@<TRIPOS>MOLECULE
1nn3_2DT_A_1.pdb
 20 21 0 0 0
SMALL
GASTEIGER

@<TRIPOS>ATOM
      1  P         13.0900   71.4950   26.7060 P.3   301  2DT301      0.5327
      2  OP1       14.0010   70.6520   25.8090 O.2   301  2DT301     -0.2224
      3  OP2       13.2920   70.9310   28.0780 O.3   301  2DT301     -0.1145
      4  OP3       11.7380   71.6840   26.0850 O.3   301  2DT301     -0.1145
      5  O5'       13.9790   72.8010   26.7580 O.3   301  2DT301     -0.2673
      6  N1        13.4820   77.5520   24.1480 N.am  301  2DT301     -0.1757
      7  C6        12.6960   76.6600   23.4250 C.2   301  2DT301      0.0880
      8  C2        13.8750   78.7870   23.6400 C.1   301  2DT301      0.2847
      9  O2        14.5630   79.5880   24.2650 O.2   301  2DT301     -0.1918
     10  N3        13.4110   79.0790   22.3740 N.2   301  2DT301     -0.2455
     11  C4        12.6290   78.2580   21.6010 C.1   301  2DT301      0.2134
     12  O4        12.2930   78.6540   20.4740 O.2   301  2DT301     -0.2088
     13  C5        12.2870   77.0140   22.2000 C.2   301  2DT301      0.0891
     14  C5M       11.4130   76.0810   21.3710 C.3   301  2DT301      0.0462
     15  C2'       13.0970   76.8450   26.4940 C.2   301  2DT301      0.0230
     16  C5'       14.1300   73.6620   25.6000 C.3   301  2DT301      0.1877
     17  C4'       14.4600   74.9910   26.2440 C.3   301  2DT301      0.1693
     18  O4'       14.7950   75.9480   25.1890 O.3   301  2DT301     -0.3288
     19  C1'       14.0930   77.1500   25.4230 C.3   301  2DT301      0.2302
     20  C3'       13.3350   75.6410   26.9400 C.2   301  2DT301      0.0051
@<TRIPOS>BOND
     1    12    11    2
     2    14    13    1
     3    11    13    1
     4    11    10    2
     5    13     7    2
     6    10     8    2
     7     7     6    1
     8     8     6   am
     9     8     9    2
    10     6    19    1
    11    18    19    1
    12    18    17    1
    13    19    15    1
    14    16    17    1
    15    16     5    1
    16     2     1    2
    17     4     1    1
    18    17    20    1
    19    15    20    2
    20     1     5    1
    21     1     3    1
