@<TRIPOS>MOLECULE
1nn5_ANP_A_1.pdb
 31 33 0 0 0
SMALL
GASTEIGER

@<TRIPOS>ATOM
      1  PG        10.7530   70.7670   30.4630 P.3   303  ANP303      0.4884
      2  O1G       11.9920   70.7710   31.3180 O.3   303  ANP303     -0.1240
      3  O2G       11.0340   70.1320   29.1650 O.2   303  ANP303     -0.2331
      4  O3G       10.0560   72.1020   30.5280 O.3   303  ANP303     -0.1240
      5  PB         8.2720   69.1840   30.6530 P.3   303  ANP303      0.4669
      6  O1B        7.2130   70.1430   30.7890 O.3   303  ANP303     -0.1253
      7  O2B        8.4860   68.6230   29.3130 O.2   303  ANP303     -0.2351
      8  N3B        9.7110   69.7980   31.3110 N.3   303  ANP303     -0.0163
      9  PA         8.0390   66.5030   31.6880 P.3   303  ANP303      0.2220
     10  O1A        6.9010   65.8930   30.9550 O.2   303  ANP303     -0.5170
     11  O2A        9.4060   66.1340   31.2450 O.3   303  ANP303     -0.4370
     12  O3A        7.8220   68.0680   31.7020 O.3   303  ANP303     -0.2360
     13  O5'        7.8440   66.1590   33.2330 O.3   303  ANP303     -0.3111
     14  C5'        8.7980   66.7020   34.1950 C.3   303  ANP303      0.1813
     15  C4'        8.8910   65.7120   35.3500 C.3   303  ANP303      0.1821
     16  O4'        7.6530   65.7970   36.0330 O.3   303  ANP303     -0.3135
     17  C3'        9.0530   64.2540   34.9130 C.3   303  ANP303      0.2184
     18  O3'        9.8340   63.4860   35.8940 O.3   303  ANP303     -0.2174
     19  C2'        7.6460   63.7460   34.8300 C.3   303  ANP303      0.2570
     20  O2'        7.5290   62.3270   35.0830 O.3   303  ANP303     -0.2130
     21  C1'        6.9840   64.5290   35.9840 C.3   303  ANP303      0.3186
     22  N9         5.5380   64.7320   35.7130 N.pl3 303  ANP303     -0.1439
     23  C8         4.9340   65.0350   34.5110 C.3   303  ANP303      0.3377
     24  N7         3.6510   65.2910   34.6030 N.2   303  ANP303     -0.2095
     25  C5         3.3910   65.1230   35.9540 C.2   303  ANP303      0.2526
     26  C6         2.1850   65.2460   36.6850 C.2   303  ANP303      0.4393
     27  N6         1.0060   65.5640   36.1330 N.pl3 303  ANP303      0.2180
     28  N1         2.2910   65.0280   38.0070 N.2   303  ANP303      0.0021
     29  C2         3.4780   64.7050   38.5170 C.3   303  ANP303      0.5254
     30  N3         4.6590   64.5650   37.9610 N.2   303  ANP303     -0.0055
     31  C4         4.5220   64.7890   36.6260 C.2   303  ANP303      0.3518
@<TRIPOS>BOND
     1     3     1    2
     2     7     5    2
     3     1     4    1
     4     1     8    1
     5     1     2    1
     6     5     6    1
     7     5     8    1
     8     5    12    1
     9    10     9    2
    10    11     9    1
    11     9    12    1
    12     9    13    1
    13    13    14    1
    14    14    15    1
    15    23    24    1
    16    23    22    1
    17    24    25    2
    18    19    17    1
    19    19    20    1
    20    19    21    1
    21    17    15    1
    22    17    18    1
    23    15    16    1
    24    22    21    1
    25    22    31    1
    26    25    31    1
    27    25    26    1
    28    21    16    1
    29    27    26    1
    30    31    30    2
    31    26    28    2
    32    30    29    1
    33    28    29    1
