@<TRIPOS>MOLECULE
1nn5_2DT_A_1.pdb
 20 21 0 0 0
SMALL
GASTEIGER

@<TRIPOS>ATOM
      1  P         14.5660   71.1280   26.0280 P.3   301  2DT301      0.5327
      2  OP1       16.0060   70.9690   26.5310 O.3   301  2DT301     -0.1145
      3  OP2       13.6070   70.4900   26.9940 O.3   301  2DT301     -0.1145
      4  OP3       14.4470   70.6940   24.6030 O.2   301  2DT301     -0.2224
      5  O5'       14.3810   72.6440   26.3580 O.3   301  2DT301     -0.2673
      6  N1        13.5340   77.5420   24.1310 N.am  301  2DT301     -0.1757
      7  C6        12.7590   76.6790   23.3720 C.2   301  2DT301      0.0880
      8  C2        13.9270   78.7890   23.6490 C.1   301  2DT301      0.2847
      9  O2        14.5930   79.5760   24.3010 O.2   301  2DT301     -0.1918
     10  N3        13.4680   79.0970   22.3730 N.2   301  2DT301     -0.2455
     11  C4        12.6890   78.2700   21.5840 C.1   301  2DT301      0.2134
     12  O4        12.3890   78.6810   20.4560 O.2   301  2DT301     -0.2088
     13  C5        12.3590   76.9990   22.1360 C.2   301  2DT301      0.0891
     14  C5M       11.4940   76.0550   21.3180 C.3   301  2DT301      0.0462
     15  C2'       13.0810   76.6730   26.4080 C.2   301  2DT301      0.0230
     16  C5'       14.4210   73.6780   25.3600 C.3   301  2DT301      0.1877
     17  C4'       14.5890   74.9500   26.1550 C.3   301  2DT301      0.1693
     18  O4'       14.9140   75.9890   25.1910 O.3   301  2DT301     -0.3288
     19  C1'       14.1200   77.1250   25.4160 C.3   301  2DT301      0.2302
     20  C3'       13.3660   75.4670   26.8160 C.2   301  2DT301      0.0051
@<TRIPOS>BOND
     1    12    11    2
     2    14    13    1
     3    11    13    1
     4    11    10    2
     5    13     7    2
     6    10     8    2
     7     7     6    1
     8     8     6   am
     9     8     9    2
    10     6    19    1
    11     4     1    2
    12    18    19    1
    13    18    17    1
    14    16    17    1
    15    16     5    1
    16    19    15    1
    17     1     5    1
    18     1     2    1
    19     1     3    1
    20    17    20    1
    21    15    20    2
