@<TRIPOS>MOLECULE
1nnb_DAN_A_1.pdb
 33 33 0 0 0
SMALL
GASTEIGER

@<TRIPOS>ATOM
      1  C1        24.0190   20.0630   65.6820 C.2   500  DAN500      0.3911
      2  C2        24.6550   18.9790   64.8050 C.3   500  DAN500      0.2153
      3  C3        24.2020   17.5460   64.5910 C.3   500  DAN500      0.0384
      4  C4        24.7070   16.8560   63.3620 C.3   500  DAN500      0.0825
      5  C5        26.2460   17.0260   63.5020 C.3   500  DAN500      0.0780
      6  C6        26.6180   18.4840   63.2660 C.3   500  DAN500      0.1092
      7  C7        28.0300   18.7620   63.8170 C.3   500  DAN500      0.1111
      8  C8        28.3280   20.2690   63.4890 C.3   500  DAN500      0.1065
      9  C9        29.8090   20.7070   63.8860 C.3   500  DAN500      0.0727
     10  C10       27.4130   14.9770   62.5940 C.2   500  DAN500      0.2228
     11  C11       28.0820   14.3340   61.3760 C.3   500  DAN500      0.0946
     12  N5        27.0090   16.2420   62.5280 N.am  500  DAN500     -0.3069
     13  O1A       24.6110   21.1830   65.6650 O.co2 500  DAN500     -0.2430
     14  O1B       22.7940   19.9580   65.9750 O.co2 500  DAN500     -0.2430
     15  O4        24.2850   15.5240   63.0100 O.3   500  DAN500     -0.3895
     16  O6        25.7110   19.4370   63.9400 O.3   500  DAN500     -0.3506
     17  O7        28.1170   18.4490   65.2350 O.3   500  DAN500     -0.3865
     18  O8        28.1600   20.2920   62.0880 O.3   500  DAN500     -0.3869
     19  O9        30.7360   19.9700   63.0690 O.3   500  DAN500     -0.3924
     20  O10       27.4470   14.3400   63.6480 O.2   500  DAN500     -0.2751
     21  H3        23.5240   16.9790   65.2860 H     500  DAN500      0.0366
     22  H4        24.3350   17.4820   62.5410 H     500  DAN500      0.0616
     23  H5        26.6180   16.7060   64.4660 H     500  DAN500      0.0550
     24  H6        26.5350   18.6750   62.1730 H     500  DAN500      0.0643
     25  H7        28.7690   18.1460   63.2930 H     500  DAN500      0.0646
     26  H8        27.5730   20.9340   63.9390 H     500  DAN500      0.0643
     27  H91       30.0060   21.7750   63.7380 H     500  DAN500      0.0584
     28  H92       30.0130   20.5250   64.9570 H     500  DAN500      0.0584
     29  HN5       27.3100   16.7750   61.7630 H     500  DAN500      0.1492
     30  HO4       23.3130   15.5400   62.9860 H     500  DAN500      0.2099
     31  HO7       27.2390   18.2000   65.5610 H     500  DAN500      0.2100
     32  HO8       29.0350   20.3160   61.6710 H     500  DAN500      0.2100
     33  HO9       30.8180   20.3810   62.1880 H     500  DAN500      0.2095
@<TRIPOS>BOND
     1    11    10    1
     2    32    18    1
     3    29    12    1
     4    18     8    1
     5    24     6    1
     6    33    19    1
     7    12    10   am
     8    12     5    1
     9    22     4    1
    10    10    20    2
    11    30    15    1
    12    15     4    1
    13    19     9    1
    14     6     5    1
    15     6     7    1
    16     6    16    1
    17    25     7    1
    18     4     5    1
    19     4     3    1
    20     8     7    1
    21     8     9    1
    22     8    26    1
    23     5    23    1
    24    27     9    1
    25     7    17    1
    26     9    28    1
    27    16     2    1
    28     3     2    1
    29     3    21    1
    30     2     1    1
    31    17    31    1
    32    13     1   ar
    33     1    14   ar
