@<TRIPOS>MOLECULE
1nnc_ZMR_A_1.pdb
 23 23 0 0 0
SMALL
GASTEIGER

@<TRIPOS>ATOM
      1  C1        23.7640   19.9760   65.0440 C.2   479  ZMR479      0.4208
      2  O1A       24.3320   21.0750   65.1610 O.co2 479  ZMR479     -0.2371
      3  O1B       22.6300   19.7870   65.5130 O.co2 479  ZMR479     -0.2371
      4  C2        24.4380   18.9550   64.2710 C.2   479  ZMR479      0.2172
      5  C3        23.8330   17.7840   63.8200 C.2   479  ZMR479      0.0619
      6  C4        24.4880   16.9140   62.7610 C.3   479  ZMR479      0.2297
      7  C5        26.0460   17.0440   62.8410 C.3   479  ZMR479      0.1816
      8  N5        26.6940   16.3410   61.7600 N.am  479  ZMR479     -0.1994
      9  C10       27.2870   15.1650   61.9160 C.2   479  ZMR479      0.2420
     10  O10       27.2800   14.5690   62.9920 O.2   479  ZMR479     -0.2733
     11  C11       27.9180   14.5560   60.6860 C.3   479  ZMR479      0.0964
     12  C6        26.4360   18.5170   62.7610 C.3   479  ZMR479      0.2224
     13  O6        25.7390   19.2500   63.7910 O.2   479  ZMR479     -0.4683
     14  C7        27.9270   18.7660   63.0140 C.3   479  ZMR479      0.2262
     15  O7        28.1400   18.4570   64.3600 O.3   479  ZMR479     -0.2164
     16  C8        28.2720   20.2540   62.7340 C.3   479  ZMR479      0.2185
     17  O8        27.9270   20.5100   61.4190 O.3   479  ZMR479     -0.2174
     18  C9        29.7580   20.5760   62.9280 C.3   479  ZMR479      0.2175
     19  O9        30.5320   19.6560   62.2140 O.3   479  ZMR479     -0.2175
     20  NE        24.0780   15.5480   62.9590 N.pl3 479  ZMR479     -0.0835
     21  CZ        23.9380   14.5770   62.0510 C.cat 479  ZMR479      0.5348
     22  NH1       24.0790   14.8230   60.7580 N.pl3 479  ZMR479      0.1354
     23  NH2       23.7020   13.3400   62.4500 N.pl3 479  ZMR479      0.1354
@<TRIPOS>BOND
     1    11     9    1
     2    22    21    1
     3    17    16    1
     4     8     9   am
     5     8     7    1
     6     9    10    2
     7    21    23    1
     8    21    20    2
     9    19    18    1
    10    16    18    1
    11    16    14    1
    12    12     7    1
    13    12    14    1
    14    12    13    1
    15     6     7    1
    16     6    20    1
    17     6     5    1
    18    14    15    1
    19    13     4    1
    20     5     4    2
    21     4     1    1
    22     1     2   ar
    23     1     3   ar
