@<TRIPOS>MOLECULE
1nne_ADP_A_1.pdb
 27 29 0 0 0
SMALL
GASTEIGER

@<TRIPOS>ATOM
      1  PB        73.0650   46.9550   85.7330 P.3   999  ADP999      0.5373
      2  O1B       72.4680   45.8060   85.1210 O.3   999  ADP999     -0.1143
      3  O2B       72.3180   47.5080   86.7300 O.3   999  ADP999     -0.1143
      4  O3B       73.3590   47.9950   84.6260 O.2   999  ADP999     -0.2221
      5  PA        75.5310   46.2010   86.9630 P.3   999  ADP999      0.2231
      6  O1A       76.2220   45.6060   85.7290 O.2   999  ADP999     -0.5169
      7  O2A       75.8970   47.4040   87.5110 O.3   999  ADP999     -0.4370
      8  O3A       73.9510   46.1290   86.5840 O.3   999  ADP999     -0.2261
      9  O5'       75.4530   45.0390   87.9370 O.3   999  ADP999     -0.3111
     10  C5'       74.8340   45.1640   89.2750 C.3   999  ADP999      0.1813
     11  C4'       75.6580   44.2940   90.4610 C.3   999  ADP999      0.1821
     12  O4'       75.6040   42.8960   90.0150 O.3   999  ADP999     -0.3135
     13  C3'       77.1700   44.6550   90.5820 C.3   999  ADP999      0.2184
     14  O3'       77.4820   44.5420   91.9540 O.3   999  ADP999     -0.2174
     15  C2'       77.9280   43.6970   89.8210 C.3   999  ADP999      0.2570
     16  O2'       79.2630   43.6080   90.2970 O.3   999  ADP999     -0.2130
     17  C1'       77.0010   42.4520   89.8830 C.3   999  ADP999      0.3186
     18  N9        77.0450   41.5920   88.6690 N.pl3 999  ADP999     -0.1439
     19  C8        76.6580   41.9600   87.3940 C.3   999  ADP999      0.3377
     20  N7        76.8490   40.9580   86.5210 N.2   999  ADP999     -0.2095
     21  C5        77.3150   39.9500   87.2150 C.2   999  ADP999      0.2526
     22  C6        77.7060   38.5800   86.9190 C.2   999  ADP999      0.4393
     23  N6        77.6210   38.1470   85.8080 N.pl3 999  ADP999      0.2180
     24  N1        78.1530   37.7270   87.8450 N.2   999  ADP999      0.0021
     25  C2        78.2810   38.1390   89.2620 C.3   999  ADP999      0.5254
     26  N3        77.9060   39.4920   89.6030 N.2   999  ADP999     -0.0055
     27  C4        77.4360   40.3660   88.6090 C.2   999  ADP999      0.3518
@<TRIPOS>BOND
     1     4     1    2
     2     2     1    1
     3     6     5    2
     4     1     8    1
     5     1     3    1
     6    23    22    1
     7    20    21    2
     8    20    19    1
     9     8     5    1
    10    22    21    1
    11    22    24    2
    12     5     7    1
    13     5     9    1
    14    21    27    1
    15    19    18    1
    16    24    25    1
    17     9    10    1
    18    27    18    1
    19    27    26    2
    20    18    17    1
    21    25    26    1
    22    10    11    1
    23    15    17    1
    24    15    16    1
    25    15    13    1
    26    17    12    1
    27    12    11    1
    28    11    13    1
    29    13    14    1
