@<TRIPOS>MOLECULE
1nnf_EDT_A_1.pdb
 20 19 0 0 0
SMALL
GASTEIGER

@<TRIPOS>ATOM
      1  O20       22.5790   26.6250   14.5770 O.co2 400  EDT400     -0.2441
      2  C5        23.2910   25.6370   14.5040 C.2   400  EDT400      0.3809
      3  O19       23.9440   25.3610   13.2540 O.co2 400  EDT400     -0.2441
      4  C4        23.3510   24.7160   15.6990 C.3   400  EDT400      0.1882
      5  N3        24.2280   23.6170   15.3080 N.3   400  EDT400     -0.2524
      6  C2        25.6080   23.6390   15.7790 C.3   400  EDT400      0.1882
      7  C1        25.5300   22.9830   17.1410 C.2   400  EDT400      0.3809
      8  O18       26.5950   22.4880   17.7540 O.co2 400  EDT400     -0.2441
      9  O17       24.4590   22.8900   17.7170 O.co2 400  EDT400     -0.2441
     10  C6        23.6200   22.5790   14.4820 C.3   400  EDT400      0.0905
     11  C7        24.5840   21.8180   13.5790 C.3   400  EDT400      0.0905
     12  N8        24.7260   22.3860   12.2420 N.3   400  EDT400     -0.2524
     13  C9        23.6250   23.0040   11.5130 C.3   400  EDT400      0.1882
     14  C10       22.8900   21.7810   10.9910 C.2   400  EDT400      0.3809
     15  O16       21.6440   21.9430   10.5920 O.co2 400  EDT400     -0.2441
     16  O15       23.3770   20.6650   10.9040 O.co2 400  EDT400     -0.2441
     17  C11       25.8950   21.9690   11.4720 C.3   400  EDT400      0.1882
     18  C12       27.2300   22.2940   12.0630 C.2   400  EDT400      0.3809
     19  O13       28.2170   21.7080   11.7090 O.co2 400  EDT400     -0.2441
     20  O14       27.3530   23.3560   12.9990 O.co2 400  EDT400     -0.2441
@<TRIPOS>BOND
     1    15    14   ar
     2    16    14   ar
     3    14    13    1
     4    17    18    1
     5    17    12    1
     6    13    12    1
     7    19    18   ar
     8    18    20   ar
     9    12    11    1
    10     3     2   ar
    11    11    10    1
    12    10     5    1
    13     2     1   ar
    14     2     4    1
    15     5     4    1
    16     5     6    1
    17     6     7    1
    18     7     9   ar
    19     7     8   ar
