@<TRIPOS>MOLECULE
1nni_FMN_1_1.pdb
 31 33 0 0 0
SMALL
GASTEIGER

@<TRIPOS>ATOM
      1  N1        12.2850   41.9670  -18.0530 N.2   200  FMN200     -0.2890
      2  C2        13.5830   41.5960  -18.0540 C.1   200  FMN200      0.3669
      3  O2        14.1040   40.6010  -17.5410 O.2   200  FMN200     -0.1744
      4  N3        14.5520   42.4720  -18.7420 N.2   200  FMN200     -0.2300
      5  C4        14.1700   43.6840  -19.4050 C.1   200  FMN200      0.2513
      6  O4        15.1080   44.3040  -19.9330 O.2   200  FMN200     -0.2057
      7  C4A       12.8300   44.0020  -19.3630 C.2   200  FMN200      0.2700
      8  N5        12.4530   45.0980  -19.9460 N.2   200  FMN200     -0.3878
      9  C5A       11.0920   45.4900  -19.9310 C.2   200  FMN200      0.1320
     10  C6        10.6180   46.6880  -20.5410 C.2   200  FMN200      0.0250
     11  C7         9.2010   47.0430  -20.4760 C.2   200  FMN200     -0.0238
     12  C7M        8.9840   48.3710  -21.2030 C.3   200  FMN200      0.0308
     13  C8         8.2550   46.1700  -19.7930 C.2   200  FMN200     -0.0280
     14  C8M        6.8350   46.5490  -19.7400 C.3   200  FMN200      0.0304
     15  C9         8.7010   45.0070  -19.2010 C.2   200  FMN200     -0.0041
     16  C9A       10.1390   44.5920  -19.2290 C.3   200  FMN200      0.1497
     17  N10       10.4870   43.4040  -18.5940 N.pl3 200  FMN200     -0.2691
     18  C10       11.8190   43.0810  -18.6430 C.2   200  FMN200      0.2416
     19  C1'        9.5660   42.5090  -17.9000 C.3   200  FMN200      0.1294
     20  C2'        9.4030   42.8050  -16.4350 C.3   200  FMN200      0.2044
     21  O2'       10.6340   42.5960  -15.7840 O.3   200  FMN200     -0.2185
     22  C3'        8.3720   41.8510  -15.9630 C.3   200  FMN200      0.2164
     23  O3'        7.0800   42.4330  -16.3130 O.3   200  FMN200     -0.2175
     24  C4'        8.2250   41.6080  -14.4520 C.3   200  FMN200      0.2147
     25  O4'        7.1890   40.6790  -14.2160 O.3   200  FMN200     -0.2176
     26  C5'        7.9990   42.8780  -13.5880 C.3   200  FMN200      0.1892
     27  O5'        6.6410   43.2770  -13.8580 O.3   200  FMN200     -0.2674
     28  P          6.1760   44.6470  -13.2960 P.3   200  FMN200      0.5327
     29  O1P        4.7080   44.7210  -13.7740 O.3   200  FMN200     -0.1145
     30  O2P        6.2790   44.6190  -11.8140 O.3   200  FMN200     -0.1145
     31  O3P        6.9840   45.7750  -13.9410 O.2   200  FMN200     -0.2224
@<TRIPOS>BOND
     1    12    11    1
     2    10    11    2
     3    10     9    1
     4    11    13    1
     5     8     9    2
     6     8     7    2
     7     6     5    2
     8     9    16    1
     9    13    14    1
    10    13    15    2
    11     5     7    1
    12     5     4    2
    13     7    18    1
    14    16    15    1
    15    16    17    1
    16     4     2    2
    17    18    17    1
    18    18     1    2
    19    17    19    1
    20     2     1    2
    21     2     3    2
    22    19    20    1
    23    20    22    1
    24    20    21    1
    25    23    22    1
    26    22    24    1
    27    24    25    1
    28    24    26    1
    29    31    28    2
    30    27    26    1
    31    27    28    1
    32    29    28    1
    33    28    30    1
