@<TRIPOS>MOLECULE
1nnk_CE2_A_1.pdb
 16 16 0 0 0
SMALL
GASTEIGER

@<TRIPOS>ATOM
      1  C12       46.7080   12.6030   23.0670 C.3   454  CE2454      0.0076
      2  C7        46.9580   13.8820   22.2800 C.3   454  CE2454      0.0542
      3  C5        48.2890   14.5440   22.5000 C.2   454  CE2454      0.1598
      4  C3        48.9800   14.9760   23.5960 C.2   454  CE2454      0.0985
      5  C2        50.1910   15.6020   23.0880 C.1   454  CE2454      0.1879
      6  O4        51.0840   16.1690   23.8090 O.2   454  CE2454     -0.2193
      7  N1        50.2520   15.5050   21.7490 N.2   454  CE2454     -0.0008
      8  O8        49.0160   14.8080   21.3580 O.2   454  CE2454     -0.3482
      9  C6        48.7770   14.9510   25.0720 C.3   454  CE2454      0.0718
     10  C11       49.6540   13.8480   25.7050 C.3   454  CE2454      0.1995
     11  C25       49.7480   14.1220   27.2180 C.2   454  CE2454      0.3822
     12  O28       50.2260   15.2470   27.5410 O.co2 454  CE2454     -0.2440
     13  O27       49.3940   13.2180   28.0080 O.co2 454  CE2454     -0.2440
     14  N24       49.1210   12.4700   25.4670 N.3   454  CE2454     -0.1204
     15  C13       46.7330   13.5740   20.7940 C.3   454  CE2454      0.0076
     16  C14       45.9030   14.9200   22.6680 C.3   454  CE2454      0.0076
@<TRIPOS>BOND
     1    15     2    1
     2     8     7    1
     3     8     3    1
     4     7     5    2
     5     2     3    1
     6     2    16    1
     7     2     1    1
     8     3     4    2
     9     5     4    1
    10     5     6    2
    11     4     9    1
    12     9    10    1
    13    14    10    1
    14    10    11    1
    15    11    12   ar
    16    11    13   ar
