@<TRIPOS>MOLECULE
1nno_HEC_A_1.pdb
 43 50 0 0 0
SMALL
GASTEIGER

@<TRIPOS>ATOM
      1 FE         43.2370   10.1970    7.1150 Fe    601  HEC601      0.0000
      2  CHA       43.0650    6.8440    7.0960 C.2   601  HEC601      0.0000
      3  CHB       46.1740   10.1260    8.7700 C.2   601  HEC601      0.0000
      4  CHC       43.4970   13.6010    6.8380 C.2   601  HEC601      0.0000
      5  CHD       40.1130   10.3800    5.7370 C.2   601  HEC601      0.0000
      6  NA        44.3630    8.7900    7.8180 N.2   601  HEC601      0.0000
      7  C1A       44.1550    7.4490    7.7260 C.2   601  HEC601      0.0000
      8  C2A       45.2480    6.7300    8.3270 C.2   601  HEC601      0.0000
      9  C3A       46.1340    7.6260    8.7860 C.2   601  HEC601      0.0000
     10  C4A       45.5630    8.9150    8.4750 C.2   601  HEC601      0.0000
     11  CMA       47.5040    7.3140    9.3520 C.3   601  HEC601      0.0000
     12  CAA       45.4570    5.2300    8.3000 C.3   601  HEC601      0.0000
     13  CBA       44.7700    4.5660    9.4620 C.3   601  HEC601      0.0000
     14  CGA       45.2380    3.1530    9.6660 C.2   601  HEC601      0.0000
     15  O1A       45.1050    2.3350    8.7340 O.co2 601  HEC601      0.0000
     16  O2A       45.7520    2.8600   10.7580 O.co2 601  HEC601      0.0000
     17  NB        44.5570   11.5660    7.6640 N.ar  601  HEC601      0.0000
     18  C1B       45.6980   11.3690    8.4240 C.ar  601  HEC601      0.0000
     19  C2B       46.3670   12.5980    8.7410 C.ar  601  HEC601      0.0000
     20  C3B       45.6730   13.5630    8.0760 C.ar  601  HEC601      0.0000
     21  C4B       44.5330   12.9190    7.4540 C.ar  601  HEC601      0.0000
     22  CMB       47.5750   12.7570    9.6840 C.3   601  HEC601      0.0000
     23  CAB       45.9220   15.0650    8.0570 C.3   601  HEC601      0.0000
     24  CBB       47.2780   15.6340    7.6670 C.3   601  HEC601      0.0000
     25  NC        42.1060   11.6830    6.3910 N.2   601  HEC601      0.0000
     26  C1C       42.3530   13.0400    6.3400 C.2   601  HEC601      0.0000
     27  C2C       41.2450   13.7720    5.7470 C.2   601  HEC601      0.0000
     28  C3C       40.2990   12.9020    5.4170 C.2   601  HEC601      0.0000
     29  C4C       40.8170   11.5840    5.8380 C.2   601  HEC601      0.0000
     30  CMC       41.0800   15.2740    5.6280 C.3   601  HEC601      0.0000
     31  CAC       38.8540   13.2060    5.0260 C.3   601  HEC601      0.0000
     32  CBC       38.4140   14.1710    3.9390 C.3   601  HEC601      0.0000
     33  ND        41.8950    8.8840    6.5250 N.ar  601  HEC601      0.0000
     34  C1D       40.6150    9.1280    6.0350 C.ar  601  HEC601      0.0000
     35  C2D       39.9110    7.8440    5.7810 C.ar  601  HEC601      0.0000
     36  C3D       40.7950    6.8440    6.0420 C.ar  601  HEC601      0.0000
     37  C4D       41.9980    7.5060    6.5510 C.ar  601  HEC601      0.0000
     38  CMD       38.4840    7.6470    5.3280 C.3   601  HEC601      0.0000
     39  CAD       40.6400    5.3570    5.6830 C.3   601  HEC601      0.0000
     40  CBD       40.9250    5.0690    4.2050 C.3   601  HEC601      0.0000
     41  CGD       41.0750    3.5720    3.8730 C.2   601  HEC601      0.0000
     42  O1D       41.5140    3.2500    2.7470 O.co2 601  HEC601      0.0000
     43  O2D       40.7670    2.7120    4.7270 O.co2 601  HEC601      0.0000
@<TRIPOS>BOND
     1    42    41   ar
     2    41    40    1
     3    41    43   ar
     4    32    31    1
     5    40    39    1
     6    31    28    1
     7    38    35    1
     8    28    27    2
     9    28    29    1
    10    30    27    1
    11    39    36    1
    12     5    29    1
    13     5    34    2
    14    27    26    1
    15    35    34   ar
    16    35    36   ar
    17    29    25    2
    18    34    33   ar
    19    36    37   ar
    20    26    25    1
    21    26     4    2
    22    25     1    1
    23    33    37   ar
    24    33     1    1
    25    37     2    2
    26     4    21    1
    27     2     7    1
    28     1    17    1
    29     1     6    1
    30    21    17   ar
    31    21    20   ar
    32    17    18   ar
    33    24    23    1
    34     7     6    2
    35     7     8    1
    36     6    10    1
    37    23    20    1
    38    20    19   ar
    39    12     8    1
    40    12    13    1
    41     8     9    2
    42    18    19   ar
    43    18     3    1
    44    10     3    2
    45    10     9    1
    46    15    14   ar
    47    19    22    1
    48     9    11    1
    49    13    14    1
    50    14    16   ar
