@<TRIPOS>MOLECULE
1nno_DHE_A_1.pdb
 49 56 0 0 0
SMALL
GASTEIGER

@<TRIPOS>ATOM
      1 FE         27.5260   22.1690    5.8960 Fe    602  DHE602      0.0000
      2  CHA       24.1960   22.3900    6.5000 C.2   602  DHE602      0.0000
      3  CHB       27.9580   20.3580    8.6990 C.2   602  DHE602      0.0000
      4  CHC       30.4720   21.2890    4.7300 C.2   602  DHE602      0.0000
      5  CHD       27.4100   24.8880    3.8780 C.2   602  DHE602      0.0000
      6  NA        26.2250   21.2610    7.2490 N.2   602  DHE602      0.0000
      7  C1A       24.8970   21.5850    7.3940 C.2   602  DHE602      0.0000
      8  C2A       24.4240   20.9560    8.5840 C.2   602  DHE602      0.0000
      9  C3A       25.4950   20.3890    9.2120 C.2   602  DHE602      0.0000
     10  C4A       26.6390   20.6510    8.4090 C.2   602  DHE602      0.0000
     11  CMA       25.5170   19.6140   10.4930 C.3   602  DHE602      0.0000
     12  CAA       22.9910   20.8980    9.0200 C.3   602  DHE602      0.0000
     13  CBA       22.5850   21.9050    9.9870 C.3   602  DHE602      0.0000
     14  CGA       21.1380   22.0310   10.1720 C.2   602  DHE602      0.0000
     15  O1A       20.4110   21.9990    9.1510 O.co2 602  DHE602      0.0000
     16  O2A       20.6650   22.1560   11.3360 O.co2 602  DHE602      0.0000
     17  NB        29.0590   21.0180    6.6280 N.pl3 602  DHE602      0.0000
     18  C1B       29.0090   20.3930    7.8240 C.2   602  DHE602      0.0000
     19  C2B       30.2800   19.7210    8.0800 C.2   602  DHE602      0.0000
     20  OMB       30.6260   19.2220    9.1220 O.2   602  DHE602      0.0000
     21  C3B       31.0760   19.7770    6.7900 C.2   602  DHE602      0.0000
     22  CGB       31.0010   18.3080    6.1480 C.3   602  DHE602      0.0000
     23  CAB       32.4920   20.1780    6.9980 C.3   602  DHE602      0.0000
     24  CBB       32.7340   21.6110    7.2840 C.2   602  DHE602      0.0000
     25  O1B       33.8500   22.1050    7.0120 O.co2 602  DHE602      0.0000
     26  O2B       31.8260   22.2880    7.7940 O.co2 602  DHE602      0.0000
     27  C4B       30.1930   20.7370    5.9750 C.2   602  DHE602      0.0000
     28  NC        28.8420   23.0960    4.6170 N.2   602  DHE602      0.0000
     29  C1C       29.9820   22.4740    4.2180 C.2   602  DHE602      0.0000
     30  C2C       30.6590   23.2930    3.2000 C.2   602  DHE602      0.0000
     31  OMC       31.7090   23.0620    2.6730 O.2   602  DHE602      0.0000
     32  C3C       29.7830   24.5150    2.9560 C.2   602  DHE602      0.0000
     33  CGC       29.3260   24.4540    1.4110 C.3   602  DHE602      0.0000
     34  CAC       30.4690   25.8030    3.2330 C.3   602  DHE602      0.0000
     35  CBC       30.9800   25.9920    4.6110 C.2   602  DHE602      0.0000
     36  O1C       30.9180   27.1480    5.1160 O.co2 602  DHE602      0.0000
     37  O2C       31.4590   25.0120    5.2290 O.co2 602  DHE602      0.0000
     38  C4C       28.5910   24.1840    3.8500 C.2   602  DHE602      0.0000
     39  ND        25.9930   23.3380    5.1530 N.ar  602  DHE602      0.0000
     40  C1D       26.1710   24.4540    4.3650 C.ar  602  DHE602      0.0000
     41  C2D       24.8890   25.0390    4.1380 C.ar  602  DHE602      0.0000
     42  C3D       23.9580   24.2540    4.8020 C.ar  602  DHE602      0.0000
     43  C4D       24.6800   23.2730    5.5420 C.ar  602  DHE602      0.0000
     44  CMD       24.6680   26.2630    3.3140 C.3   602  DHE602      0.0000
     45  CAD       22.4810   24.3730    4.7790 C.2   602  DHE602      0.0000
     46  CBD       21.7260   24.4320    3.7480 C.2   602  DHE602      0.0000
     47  CGD       20.2900   24.1670    3.7140 C.2   602  DHE602      0.0000
     48  O1D       19.6580   24.4210    2.6700 O.co2 602  DHE602      0.0000
     49  O2D       19.7450   23.6920    4.7260 O.co2 602  DHE602      0.0000
@<TRIPOS>BOND
     1    33    32    1
     2    48    47   ar
     3    31    30    1
     4    32    30    2
     5    32    34    1
     6    32    38    1
     7    30    29    1
     8    34    35    1
     9    44    41    1
    10    47    46    1
    11    47    49   ar
    12    46    45    2
    13    38     5    1
    14    38    28    2
    15     5    40    2
    16    41    40   ar
    17    41    42   ar
    18    29    28    1
    19    29     4    2
    20    40    39   ar
    21    35    36   ar
    22    35    37   ar
    23    28     1    1
    24     4    27    1
    25    45    42    1
    26    42    43   ar
    27    39    43   ar
    28    39     1    1
    29    43     2    2
    30     1    17    1
    31     1     6    1
    32    27    17    1
    33    27    21    2
    34    22    21    1
    35     2     7    1
    36    17    18    1
    37    21    23    1
    38    21    19    1
    39    23    24    1
    40    25    24   ar
    41     6     7    2
    42     6    10    1
    43    24    26   ar
    44     7     8    1
    45    18    19    2
    46    18     3    1
    47    19    20    1
    48    10     3    2
    49    10     9    1
    50     8    12    1
    51     8     9    2
    52    12    13    1
    53    15    14   ar
    54     9    11    1
    55    13    14    1
    56    14    16   ar
