@<TRIPOS>MOLECULE
1nnp_CE2_A_1.pdb
 16 16 0 0 0
SMALL
GASTEIGER

@<TRIPOS>ATOM
      1  C12       28.2110    4.4550   21.4400 C.3   1008  CE21008     0.0076
      2  C7        29.3650    4.4740   22.4410 C.3   1008  CE21008     0.0542
      3  C5        30.4610    5.5150   22.2240 C.2   1008  CE21008     0.1598
      4  C3        31.1270    6.0150   21.1280 C.2   1008  CE21008     0.0985
      5  C2        32.1460    6.9220   21.6560 C.1   1008  CE21008     0.1879
      6  O4        33.0180    7.5430   20.9490 O.2   1008  CE21008    -0.2193
      7  N1        32.0490    7.0290   22.9860 N.2   1008  CE21008    -0.0008
      8  O8        30.9430    6.1350   23.3690 O.2   1008  CE21008    -0.3482
      9  C6        31.0420    5.8440   19.6380 C.3   1008  CE21008     0.0718
     10  C11       30.2620    7.0270   19.0050 C.3   1008  CE21008     0.1995
     11  C25       30.5730    7.0730   17.4900 C.2   1008  CE21008     0.3822
     12  O28       31.8000    7.1300   17.1700 O.co2 1008  CE21008    -0.2440
     13  O27       29.6120    7.0610   16.6950 O.co2 1008  CE21008    -0.2440
     14  N24       28.7790    6.9380   19.2260 N.3   1008  CE21008    -0.1204
     15  C13       28.7340    4.6100   23.8340 C.3   1008  CE21008     0.0076
     16  C14       30.0570    3.1040   22.4180 C.3   1008  CE21008     0.0076
@<TRIPOS>BOND
     1    13    11   ar
     2    12    11   ar
     3    11    10    1
     4    10    14    1
     5    10     9    1
     6     9     4    1
     7     6     5    2
     8     4     5    1
     9     4     3    2
    10     1     2    1
    11     5     7    2
    12     3     2    1
    13     3     8    1
    14    16     2    1
    15     2    15    1
    16     7     8    1
