@<TRIPOS>MOLECULE
1nnu_TCT_A_1.pdb
 20 22 0 0 0
SMALL
GASTEIGER

@<TRIPOS>ATOM
      1  C16       52.7650   89.7600   35.3370 C.ar  500  TCT500      0.0032
      2  C15       51.7250   90.6620   35.6210 C.ar  500  TCT500      0.0375
      3  C14       51.6960   91.9630   35.0530 C.ar  500  TCT500      0.1454
      4  C13       52.7410   92.3780   34.1650 C.ar  500  TCT500      0.0375
      5  C12       53.7990   91.4870   33.8570 C.ar  500  TCT500      0.0032
      6  C11       53.8070   90.1330   34.4710 C.ar  500  TCT500      0.0034
      7  C10       54.8590   89.2400   34.1750 C.ar  500  TCT500      0.0420
      8  C9        55.8910   89.6310   33.3040 C.ar  500  TCT500      0.1957
      9  O3        56.9020   88.7520   33.0300 O.3   500  TCT500     -0.2866
     10  C8        55.8900   90.9240   32.7090 C.ar  500  TCT500      0.0420
     11  C7        54.8540   91.8510   32.9810 C.ar  500  TCT500      0.0034
     12  O2        50.6230   92.7860   35.4250 O.3   500  TCT500     -0.4503
     13  C3        50.4140   94.1230   35.0190 C.ar  500  TCT500      0.1840
     14  C4        51.0880   95.1700   35.7230 C.ar  500  TCT500      0.0417
     15  C5        50.8850   96.5320   35.3760 C.ar  500  TCT500      0.0147
     16  C6        50.0040   96.8750   34.3260 C.ar  500  TCT500      0.0611
     17 CL1        49.7480   98.5680   33.9330 Cl    500  TCT500     -0.0821
     18  C1        49.3280   95.8430   33.6060 C.ar  500  TCT500      0.0566
     19  C2        49.5350   94.4640   33.9500 C.ar  500  TCT500      0.2307
     20  O1        48.8760   93.4850   33.2600 O.3   500  TCT500     -0.2833
@<TRIPOS>BOND
     1    10    11   ar
     2    10     8   ar
     3    11     5   ar
     4     9     8    1
     5    20    19    1
     6     8     7   ar
     7    18    19   ar
     8    18    16   ar
     9     5     4   ar
    10     5     6   ar
    11    17    16    1
    12    19    13   ar
    13     4     3   ar
    14     7     6   ar
    15    16    15   ar
    16     6     1   ar
    17    13    12    1
    18    13    14   ar
    19     3    12    1
    20     3     2   ar
    21     1     2   ar
    22    15    14   ar
