@<TRIPOS>MOLECULE
1nnu_NAD_A_1.pdb
 44 48 0 0 0
SMALL
GASTEIGER

@<TRIPOS>ATOM
      1  PA        51.2030   89.6690   40.6760 P.3   450  NAD450      0.2189
      2  O1A       50.7740   89.4390   42.0870 O.3   450  NAD450     -0.4371
      3  O2A       52.6710   89.9330   40.4090 O.2   450  NAD450     -0.5170
      4  O5B       50.7010   88.3400   39.8900 O.3   450  NAD450     -0.3112
      5  C5B       51.3940   87.5650   38.8990 C.3   450  NAD450      0.1813
      6  C4B       51.5300   86.1680   39.3880 C.3   450  NAD450      0.1821
      7  O4B       51.5430   85.1740   38.3220 O.3   450  NAD450     -0.3135
      8  C3B       52.8240   85.9740   40.1790 C.3   450  NAD450      0.2184
      9  O3B       52.4300   85.8990   41.5750 O.3   450  NAD450     -0.2174
     10  C2B       53.4420   84.6810   39.6470 C.3   450  NAD450      0.2570
     11  O2B       53.8700   83.8830   40.7260 O.3   450  NAD450     -0.2130
     12  C1B       52.3340   84.0620   38.7410 C.3   450  NAD450      0.3186
     13  N9A       52.8640   83.4070   37.5220 N.pl3 450  NAD450     -0.1439
     14  C8A       53.6530   83.6250   36.4100 C.3   450  NAD450      0.3377
     15  N7A       53.7960   82.5990   35.5870 N.2   450  NAD450     -0.2095
     16  C5A       53.0380   81.6040   36.1890 C.2   450  NAD450      0.2526
     17  C6A       52.7930   80.2770   35.8370 C.2   450  NAD450      0.4393
     18  N6A       53.3080   79.7030   34.7640 N.pl3 450  NAD450      0.2180
     19  N1A       51.9950   79.5400   36.6440 N.2   450  NAD450      0.0021
     20  C2A       51.4240   80.1170   37.7210 C.3   450  NAD450      0.5254
     21  N3A       51.6420   81.3390   38.2170 N.2   450  NAD450     -0.0055
     22  C4A       52.4520   82.0750   37.3770 C.2   450  NAD450      0.3518
     23  O3        50.6800   90.8600   39.8870 O.3   450  NAD450     -0.2703
     24  PN        49.3250   91.4090   39.5980 P.3   450  NAD450      0.2189
     25  O1N       48.4110   91.4190   40.7850 O.3   450  NAD450     -0.4371
     26  O2N       49.5990   92.6820   38.8940 O.2   450  NAD450     -0.5170
     27  O5D       48.8500   90.5320   38.3460 O.3   450  NAD450     -0.3112
     28  C5D       47.7490   89.6240   38.3800 C.3   450  NAD450      0.1813
     29  C4D       46.8560   89.8770   37.1550 C.3   450  NAD450      0.1799
     30  O4D       46.3080   91.2370   37.1950 O.3   450  NAD450     -0.3327
     31  C3D       47.6550   89.7310   35.8570 C.3   450  NAD450      0.2158
     32  O3D       46.8890   88.9430   35.0030 O.3   450  NAD450     -0.2175
     33  C2D       47.7740   91.1400   35.4020 C.3   450  NAD450      0.2309
     34  O2D       47.9390   91.1940   34.0150 O.3   450  NAD450     -0.2158
     35  C1D       46.4640   91.7260   35.8580 C.3   450  NAD450      0.2263
     36  N1N       46.3880   93.1950   35.8330 N.pl3 450  NAD450     -0.2787
     37  C2N       47.2550   93.9270   36.6810 C.3   450  NAD450      0.1244
     38  C3N       47.3900   95.3110   36.7810 C.2   450  NAD450      0.0544
     39  C7N       48.2810   96.0720   37.6710 C.2   450  NAD450      0.2818
     40  O7N       48.4760   97.3940   37.5650 O.2   450  NAD450     -0.2670
     41  N7N       49.0260   95.5370   38.6250 N.am  450  NAD450     -0.0839
     42  C4N       46.4250   95.9170   35.9800 C.2   450  NAD450      0.0033
     43  C5N       45.4380   95.2910   35.1470 C.2   450  NAD450      0.0157
     44  C6N       45.4480   93.8470   35.0720 C.2   450  NAD450      0.0633
@<TRIPOS>BOND
     1    34    33    1
     2    18    17    1
     3    32    31    1
     4    44    43    2
     5    44    36    1
     6    43    42    1
     7    33    31    1
     8    33    35    1
     9    15    16    2
    10    15    14    1
    11    36    35    1
    12    36    37    1
    13    17    16    1
    14    17    19    2
    15    31    29    1
    16    35    30    1
    17    42    38    2
    18    16    22    1
    19    14    13    1
    20    19    20    1
    21    37    38    1
    22    38    39    1
    23    29    30    1
    24    29    28    1
    25    22    13    1
    26    22    21    2
    27    13    12    1
    28    40    39    2
    29    39    41   am
    30    20    21    1
    31     7    12    1
    32     7     6    1
    33    27    28    1
    34    27    24    1
    35    12    10    1
    36    26    24    2
    37     5     6    1
    38     5     4    1
    39     6     8    1
    40    24    23    1
    41    24    25    1
    42    10     8    1
    43    10    11    1
    44    23     1    1
    45     4     1    1
    46     8     9    1
    47     3     1    2
    48     1     2    1
