@<TRIPOS>MOLECULE
1no3_4NC_A_1.pdb
 11 11 0 0 0
SMALL
GASTEIGER

@<TRIPOS>ATOM
      1  C1        20.6800    5.2890   16.8170 C.ar  859  4NC859      0.2344
      2  C2        21.5720    6.1550   17.4380 C.ar  859  4NC859      0.2359
      3  C3        21.8670    5.9830   18.7480 C.ar  859  4NC859      0.0694
      4  C4        21.2490    4.9700   19.4670 C.ar  859  4NC859      0.1463
      5  C5        20.3230    4.1340   18.8910 C.ar  859  4NC859      0.0276
      6  C6        20.0660    4.3080   17.5580 C.ar  859  4NC859      0.0471
      7  O7        20.3370    5.5030   15.5440 O.3   859  4NC859     -0.2831
      8  O8        22.1360    7.1710   16.7530 O.3   859  4NC859     -0.2831
      9  N9        21.6410    4.8310   20.8400 N.pl3 859  4NC859      0.0578
     10  O10       21.4020    5.7720   21.5730 O.2   859  4NC859     -0.1261
     11  O11       22.2630    3.8310   21.1860 O.2   859  4NC859     -0.1261
@<TRIPOS>BOND
     1     7     1    1
     2     8     2    1
     3     1     2   ar
     4     1     6   ar
     5     2     3   ar
     6     6     5   ar
     7     3     4   ar
     8     5     4   ar
     9     4     9    1
    10     9    11    2
    11     9    10    2
