@<TRIPOS>MOLECULE
1no6_794_A_1.pdb
 25 27 0 0 0
SMALL
GASTEIGER

@<TRIPOS>ATOM
      1  O35       36.0610   29.8300   23.5530 O.co2 322  794322     -0.2354
      2  C30       35.0690   29.0480   23.7960 C.2   322  794322      0.4411
      3  O36       34.1270   29.4050   24.5360 O.co2 322  794322     -0.2354
      4  C19       34.9430   27.6620   23.1430 C.2   322  794322      0.3367
      5  O34       34.8680   26.7390   23.9790 O.2   322  794322     -0.2620
      6  N18       34.9010   27.4660   21.6720 N.am  322  794322     -0.2282
      7  C20       34.7480   26.1330   21.1450 C.ar  322  794322      0.0649
      8  C21       33.5110   25.8340   20.4360 C.ar  322  794322      0.0155
      9  C22       33.2550   24.5360   19.8840 C.ar  322  794322      0.0013
     10  C23       34.2080   23.5020   20.0240 C.ar  322  794322      0.0003
     11  C24       35.4290   23.7300   20.7110 C.ar  322  794322      0.0078
     12  C25       35.7520   25.0250   21.2870 C.ar  322  794322      0.0937
     13  C31       37.0730   25.1610   21.9860 C.2   322  794322      0.3890
     14  O32       37.8340   24.1850   22.0880 O.co2 322  794322     -0.2405
     15  O33       37.3770   26.2280   22.4400 O.co2 322  794322     -0.2405
     16  C11       34.9980   28.5630   20.7850 C.ar  322  794322      0.0585
     17  C12       36.2490   28.7810   20.1090 C.ar  322  794322      0.0152
     18  C13       36.4270   29.8690   19.1930 C.ar  322  794322      0.0013
     19  C14       35.3500   30.7620   18.9380 C.ar  322  794322      0.0001
     20  C2        34.0830   30.5890   19.5900 C.ar  322  794322      0.0012
     21  C1        33.8850   29.4780   20.5300 C.ar  322  794322      0.0140
     22  C6        32.5940   29.3260   21.1720 C.ar  322  794322      0.0012
     23  C5        31.5530   30.2510   20.8830 C.ar  322  794322      0.0000
     24  C4        31.7660   31.3360   19.9570 C.ar  322  794322      0.0000
     25  C3        33.0210   31.4940   19.3240 C.ar  322  794322      0.0000
@<TRIPOS>BOND
     1    19    18   ar
     2    19    20   ar
     3    18    17   ar
     4    25    20   ar
     5    25    24   ar
     6    20    21   ar
     7     9    10   ar
     8     9     8   ar
     9    24    23   ar
    10    10    11   ar
    11    17    16   ar
    12     8     7   ar
    13    21    16   ar
    14    21    22   ar
    15    11    12   ar
    16    16     6    1
    17    23    22   ar
    18     7    12   ar
    19     7     6    1
    20    12    13    1
    21     6     4   am
    22    13    14   ar
    23    13    15   ar
    24     4     2    1
    25     4     5    2
    26     1     2   ar
    27     2     3   ar
