@<TRIPOS>MOLECULE
1no9_4ND_H_1.pdb
 15 16 0 0 0
SMALL
GASTEIGER

@<TRIPOS>ATOM
      1  C1        15.2080  -10.4800   19.5460 C.2   250  4ND250      0.3110
      2  O1        16.2040  -10.6340   18.8130 O.2   250  4ND250     -0.2642
      3  N5        14.8240  -11.4450   20.4230 N.am  250  4ND250     -0.2301
      4  C3        13.6480  -11.2690   21.3530 C.ar  250  4ND250      0.0585
      5  C4        13.6720  -10.2510   22.3510 C.ar  250  4ND250      0.0152
      6  C5        12.5840  -10.0910   23.2530 C.ar  250  4ND250      0.0013
      7  C6        11.4610  -10.9450   23.1650 C.ar  250  4ND250      0.0001
      8  C7        11.4230  -11.9600   22.1700 C.ar  250  4ND250      0.0013
      9  C8        12.5050  -12.1260   21.2680 C.ar  250  4ND250      0.0152
     10  C9        15.6140  -12.7130   20.4950 C.ar  250  4ND250      0.0585
     11  C10       15.2590  -13.8130   19.6580 C.ar  250  4ND250      0.0152
     12  C11       16.0110  -15.0260   19.7170 C.ar  250  4ND250      0.0013
     13  C12       17.1140  -15.1400   20.6080 C.ar  250  4ND250      0.0001
     14  C13       17.4730  -14.0430   21.4470 C.ar  250  4ND250      0.0013
     15  C14       16.7190  -12.8260   21.3890 C.ar  250  4ND250      0.0152
@<TRIPOS>BOND
     1     2     1    2
     2     1     3   am
     3    11    12   ar
     4    11    10   ar
     5    12    13   ar
     6     3    10    1
     7     3     4    1
     8    10    15   ar
     9    13    14   ar
    10     9     4   ar
    11     9     8   ar
    12     4     5   ar
    13    15    14   ar
    14     8     7   ar
    15     5     6   ar
    16     7     6   ar
