@<TRIPOS>MOLECULE
1noc_HEM_A_1.pdb
 43 50 0 0 0
SMALL
GASTEIGER

@<TRIPOS>ATOM
      1 FE         91.8010   87.4690  116.9940 Fe    901  HEM901      0.0000
      2  CHA       90.3150   86.8120  114.1160 C.2   901  HEM901      0.0000
      3  CHB       88.9340   88.6150  118.2790 C.2   901  HEM901      0.0000
      4  CHC       93.2820   87.8310  119.9910 C.2   901  HEM901      0.0000
      5  CHD       94.8250   86.7310  115.6320 C.2   901  HEM901      0.0000
      6  NA        90.0410   87.6570  116.3540 N.2   901  HEM901      0.0000
      7  C1A       89.5560   87.3020  115.1400 C.2   901  HEM901      0.0000
      8  C2A       88.1470   87.6090  115.0280 C.2   901  HEM901      0.0000
      9  C3A       87.7630   88.1170  116.2330 C.2   901  HEM901      0.0000
     10  C4A       88.9450   88.1580  117.0140 C.2   901  HEM901      0.0000
     11  CMA       86.4130   88.5990  116.7220 C.3   901  HEM901      0.0000
     12  CAA       87.4040   87.5890  113.6960 C.3   901  HEM901      0.0000
     13  CBA       86.0620   86.8920  113.6610 C.3   901  HEM901      0.0000
     14  CGA       86.1530   85.4800  114.1560 C.2   901  HEM901      0.0000
     15  O1A       85.4610   85.1570  115.1440 O.co2 901  HEM901      0.0000
     16  O2A       86.9320   84.7040  113.5660 O.co2 901  HEM901      0.0000
     17  NB        91.2440   88.1340  118.7300 N.ar  901  HEM901      0.0000
     18  C1B       90.0230   88.6040  119.0800 C.ar  901  HEM901      0.0000
     19  C2B       89.9660   89.0350  120.4290 C.ar  901  HEM901      0.0000
     20  C3B       91.1690   88.8140  120.9580 C.ar  901  HEM901      0.0000
     21  C4B       91.9700   88.2310  119.8950 C.ar  901  HEM901      0.0000
     22  CMB       88.7340   89.6470  121.0830 C.3   901  HEM901      0.0000
     23  CAB       91.4740   89.0960  122.2630 C.2   901  HEM901      0.0000
     24  CBB       92.5830   89.7990  122.6420 C.2   901  HEM901      0.0000
     25  NC        93.6410   87.2900  117.6580 N.2   901  HEM901      0.0000
     26  C1C       94.0640   87.3820  118.9500 C.2   901  HEM901      0.0000
     27  C2C       95.4620   87.1250  119.0890 C.2   901  HEM901      0.0000
     28  C3C       95.9470   86.9110  117.8440 C.2   901  HEM901      0.0000
     29  C4C       94.7870   87.0050  116.9720 C.2   901  HEM901      0.0000
     30  CMC       96.1730   87.1430  120.4280 C.3   901  HEM901      0.0000
     31  CAC       97.2410   86.6270  117.3900 C.3   901  HEM901      0.0000
     32  CBC       98.4680   86.7970  118.0220 C.3   901  HEM901      0.0000
     33  ND        92.4310   86.9210  115.2550 N.ar  901  HEM901      0.0000
     34  C1D       93.7230   86.6600  114.8340 C.ar  901  HEM901      0.0000
     35  C2D       93.7550   86.1950  113.4650 C.ar  901  HEM901      0.0000
     36  C3D       92.4730   86.1500  113.0420 C.ar  901  HEM901      0.0000
     37  C4D       91.6660   86.6330  114.1530 C.ar  901  HEM901      0.0000
     38  CMD       94.9870   85.8650  112.6610 C.3   901  HEM901      0.0000
     39  CAD       91.9560   85.5910  111.7320 C.3   901  HEM901      0.0000
     40  CBD       90.9930   84.4310  111.9560 C.3   901  HEM901      0.0000
     41  CGD       90.4740   83.8500  110.6640 C.2   901  HEM901      0.0000
     42  O1D       90.5100   82.6200  110.4960 O.co2 901  HEM901      0.0000
     43  O2D       90.0330   84.6250  109.8060 O.co2 901  HEM901      0.0000
@<TRIPOS>BOND
     1    43    41   ar
     2    42    41   ar
     3    41    40    1
     4    39    40    1
     5    39    36    1
     6    38    35    1
     7    36    35   ar
     8    36    37   ar
     9    35    34   ar
    10    16    14   ar
    11    13    12    1
    12    13    14    1
    13    12     8    1
    14     2    37    2
    15     2     7    1
    16    37    33   ar
    17    14    15   ar
    18    34    33   ar
    19    34     5    2
    20     8     7    1
    21     8     9    2
    22     7     6    2
    23    33     1    1
    24     5    29    1
    25     9    11    1
    26     9    10    1
    27     6     1    1
    28     6    10    1
    29    29    25    2
    30    29    28    1
    31     1    25    1
    32     1    17    1
    33    10     3    2
    34    31    28    1
    35    31    32    1
    36    25    26    1
    37    28    27    2
    38     3    18    1
    39    17    18   ar
    40    17    21   ar
    41    26    27    1
    42    26     4    2
    43    18    19   ar
    44    27    30    1
    45    21     4    1
    46    21    20   ar
    47    19    20   ar
    48    19    22    1
    49    20    23    1
    50    23    24    2
