@<TRIPOS>MOLECULE
1nod_HEM_A_1.pdb
 43 50 0 0 0
SMALL
GASTEIGER

@<TRIPOS>ATOM
      1  CHA      121.2730  110.3830   30.3950 C.2   901  HEM901      0.0000
      2  CHB      122.3730  114.1450   27.6490 C.2   901  HEM901      0.0000
      3  CHC      126.5800  112.3020   26.8580 C.2   901  HEM901      0.0000
      4  CHD      125.3120  108.2720   28.9870 C.2   901  HEM901      0.0000
      5  C1A      121.2560  111.6320   29.7980 C.ar  901  HEM901      0.0000
      6  C2A      120.2120  112.6100   29.9630 C.ar  901  HEM901      0.0000
      7  C3A      120.4790  113.6340   29.1360 C.ar  901  HEM901      0.0000
      8  C4A      121.7190  113.3100   28.5080 C.ar  901  HEM901      0.0000
      9  CMA      119.6110  114.8350   28.8260 C.3   901  HEM901      0.0000
     10  CAA      119.1160  112.5480   30.9750 C.3   901  HEM901      0.0000
     11  CBA      119.7520  112.7030   32.3280 C.3   901  HEM901      0.0000
     12  CGA      118.7510  112.7190   33.4490 C.2   901  HEM901      0.0000
     13  O1A      119.1360  112.3490   34.5760 O.co2 901  HEM901      0.0000
     14  O2A      117.5890  113.1100   33.2120 O.co2 901  HEM901      0.0000
     15  C1B      123.5870  113.9210   27.1050 C.2   901  HEM901      0.0000
     16  C2B      124.2750  114.8930   26.3440 C.2   901  HEM901      0.0000
     17  C3B      125.5160  114.4010   26.1460 C.2   901  HEM901      0.0000
     18  C4B      125.5110  113.1090   26.7900 C.2   901  HEM901      0.0000
     19  CMB      123.6800  116.2020   25.8290 C.3   901  HEM901      0.0000
     20  CAB      126.5910  115.0670   25.5420 C.3   901  HEM901      0.0000
     21  CBB      127.4250  114.6330   24.5340 C.3   901  HEM901      0.0000
     22  C1C      126.6230  111.0930   27.4330 C.ar  901  HEM901      0.0000
     23  C2C      127.8120  110.2820   27.4270 C.ar  901  HEM901      0.0000
     24  C3C      127.4580  109.0780   27.9560 C.ar  901  HEM901      0.0000
     25  C4C      126.0490  109.2260   28.3090 C.ar  901  HEM901      0.0000
     26  CMC      129.1810  110.7910   26.9810 C.3   901  HEM901      0.0000
     27  CAC      128.2170  107.9110   28.1290 C.3   901  HEM901      0.0000
     28  CBC      129.5280  107.6690   27.7420 C.3   901  HEM901      0.0000
     29  C1D      124.0380  108.4370   29.5100 C.2   901  HEM901      0.0000
     30  C2D      123.3400  107.4810   30.3490 C.2   901  HEM901      0.0000
     31  C3D      122.2650  108.1150   30.7750 C.2   901  HEM901      0.0000
     32  C4D      122.2490  109.4310   30.2010 C.2   901  HEM901      0.0000
     33  CMD      123.7090  106.0500   30.6540 C.3   901  HEM901      0.0000
     34  CAD      121.2760  107.5580   31.7300 C.3   901  HEM901      0.0000
     35  CBD      121.4270  108.1180   33.1340 C.3   901  HEM901      0.0000
     36  CGD      120.5140  107.4380   34.1190 C.2   901  HEM901      0.0000
     37  O1D      120.3550  107.9550   35.2470 O.co2 901  HEM901      0.0000
     38  O2D      119.9550  106.3780   33.7650 O.co2 901  HEM901      0.0000
     39  NA       122.1930  112.0930   28.9130 N.ar  901  HEM901      0.0000
     40  NB       124.3300  112.8290   27.3520 N.2   901  HEM901      0.0000
     41  NC       125.5750  110.4700   27.9900 N.ar  901  HEM901      0.0000
     42  ND       123.3470  109.6190   29.4110 N.2   901  HEM901      0.0000
     43 FE        123.6300  111.0350   27.9690 Fe    901  HEM901      0.0000
@<TRIPOS>BOND
     1    21    20    1
     2    20    17    1
     3    19    16    1
     4    17    16    2
     5    17    18    1
     6    16    15    1
     7    18     3    2
     8    18    40    1
     9     3    22    1
    10    26    23    1
    11    15    40    2
    12    15     2    1
    13    40    43    1
    14    23    22   ar
    15    23    24   ar
    16    22    41   ar
    17     2     8    2
    18    28    27    1
    19    24    27    1
    20    24    25   ar
    21    43    41    1
    22    43    39    1
    23    43    42    1
    24    41    25   ar
    25    25     4    1
    26     8    39   ar
    27     8     7   ar
    28     9     7    1
    29    39     5   ar
    30     4    29    2
    31     7     6   ar
    32    42    29    1
    33    42    32    2
    34    29    30    1
    35     5     6   ar
    36     5     1    2
    37     6    10    1
    38    32     1    1
    39    32    31    1
    40    30    33    1
    41    30    31    2
    42    31    34    1
    43    10    11    1
    44    34    35    1
    45    11    12    1
    46    35    36    1
    47    14    12   ar
    48    12    13   ar
    49    38    36   ar
    50    36    37   ar
