@<TRIPOS>MOLECULE
1nod_ARG_A_1.pdb
 12 11 0 0 0
SMALL
GASTEIGER

@<TRIPOS>ATOM
      1  N        120.4790  115.3420   35.0580 N.3   906  ARG906     -0.1208
      2  CA       121.7070  115.5520   35.8080 C.3   906  ARG906      0.1944
      3  C        121.7400  116.9280   36.4690 C.2   906  ARG906      0.3819
      4  O        120.8540  117.7470   36.1620 O.co2 906  ARG906     -0.2441
      5  CB       122.9210  115.3560   34.8920 C.3   906  ARG906      0.0343
      6  CG       123.2880  113.8930   34.6850 C.3   906  ARG906      0.0490
      7  CD       123.4630  113.4840   33.2130 C.3   906  ARG906      0.2205
      8  NE       123.3160  114.5840   32.2650 N.pl3 906  ARG906     -0.0865
      9  CZ       123.9730  114.6700   31.1090 C.cat 906  ARG906      0.5346
     10  NH1      124.8440  113.7330   30.7700 N.pl3 906  ARG906      0.1354
     11  NH2      123.7590  115.6940   30.2940 N.pl3 906  ARG906      0.1354
     12  OXT      122.6270  117.1670   37.3100 O.co2 906  ARG906     -0.2441
@<TRIPOS>BOND
     1    11     9    1
     2    10     9    1
     3     9     8    2
     4     8     7    1
     5     7     6    1
     6     6     5    1
     7     5     2    1
     8     1     2    1
     9     2     3    1
    10     4     3   ar
    11     3    12   ar
