@<TRIPOS>MOLECULE
1nod_H4B_A_1.pdb
 17 18 0 0 0
SMALL
GASTEIGER

@<TRIPOS>ATOM
      1  N1       113.2740  111.5490   31.9540 N.2   902  H4B902     -0.2672
      2  C2       114.4980  111.9980   32.2470 C.1   902  H4B902      0.2609
      3  N2       115.2570  112.4820   31.2730 N.pl3 902  H4B902     -0.0220
      4  N3       114.9580  112.0180   33.5080 N.2   902  H4B902     -0.2466
      5  C4       114.1910  111.5920   34.5080 C.1   902  H4B902      0.2569
      6  O4       114.5490  111.6120   35.6890 O.2   902  H4B902     -0.2052
      7  C4A      112.9050  111.1060   34.2600 C.2   902  H4B902      0.2989
      8  C8A      112.4780  111.0570   32.9010 C.1   902  H4B902      0.1401
      9  N5       112.1110  110.7150   35.2430 N.2   902  H4B902     -0.3830
     10  N8       111.2940  110.5270   32.5810 N.2   902  H4B902     -0.1992
     11  C6       110.8940  110.0210   34.9180 C.2   902  H4B902      0.1466
     12  C7       110.3710  110.2170   33.5730 C.3   902  H4B902      0.1940
     13  C9       110.1660  109.5370   36.1550 C.3   902  H4B902      0.2313
     14  O9       109.7760  110.6610   36.9440 O.3   902  H4B902     -0.2130
     15  C10      108.9690  108.6290   35.9220 C.3   902  H4B902      0.1888
     16  C11      108.3670  108.2070   37.2570 C.3   902  H4B902      0.0387
     17  O10      109.3900  107.4770   35.1800 O.3   902  H4B902     -0.2200
@<TRIPOS>BOND
     1     3     2    1
     2     1     2    2
     3     1     8    2
     4     2     4    2
     5    10     8    2
     6    10    12    1
     7     8     7    1
     8     4     5    2
     9    12    11    1
    10     7     5    1
    11     7     9    2
    12     5     6    2
    13    11     9    2
    14    11    13    1
    15    17    15    1
    16    15    13    1
    17    15    16    1
    18    13    14    1
