@<TRIPOS>MOLECULE
1noi_NTZ_A_1.pdb
 14 15 0 0 0
SMALL
GASTEIGER

@<TRIPOS>ATOM
      1  C1        45.7870    3.1450   20.2780 C.ar  998  NTZ998      0.1940
      2  C2        44.5270    3.5800   19.4740 C.3   998  NTZ998      0.2439
      3  C3        43.3610    2.7060   19.9190 C.3   998  NTZ998      0.2217
      4  C4        43.7660    1.2300   20.0310 C.3   998  NTZ998      0.2100
      5  C5        44.8010    0.9750   21.1270 C.3   998  NTZ998      0.1739
      6  C6        45.3810   -0.4250   21.0820 C.3   998  NTZ998      0.2091
      7  N1        45.8160    1.9690   21.0050 N.ar  998  NTZ998     -0.2113
      8  N17       47.0810    1.9990   21.5500 N.ar  998  NTZ998     -0.0430
      9  N18       47.7340    3.1270   21.1820 N.ar  998  NTZ998     -0.0229
     10  N21       46.9490    3.8420   20.3670 N.ar  998  NTZ998     -0.1100
     11  O2        44.1530    4.9450   19.6040 O.3   998  NTZ998     -0.2120
     12  O3        42.2960    2.8160   19.0150 O.3   998  NTZ998     -0.2171
     13  O4        42.5860    0.5030   20.3800 O.3   998  NTZ998     -0.2181
     14  O6        45.6670   -0.8740   19.7460 O.3   998  NTZ998     -0.2182
@<TRIPOS>BOND
     1    12     3    1
     2     2    11    1
     3     2     3    1
     4     2     1    1
     5    14     6    1
     6     3     4    1
     7     4    13    1
     8     4     5    1
     9     1    10   ar
    10     1     7   ar
    11    10     9   ar
    12     7     5    1
    13     7     8   ar
    14     6     5    1
    15     9     8   ar
