@<TRIPOS>MOLECULE
1noi_PLP_A_1.pdb
 15 15 0 0 0
SMALL
GASTEIGER

@<TRIPOS>ATOM
      1  N1        41.2670    3.3140   29.6080 N.ar  999  PLP999     -0.2452
      2  C2        40.7460    2.3540   30.3790 C.ar  999  PLP999      0.0978
      3  C2A       40.6590    2.6020   31.8590 C.3   999  PLP999      0.0555
      4  C3        40.1810    1.2320   29.8080 C.ar  999  PLP999      0.2049
      5  O3        39.6250    0.2920   30.6330 O.3   999  PLP999     -0.2857
      6  C4        40.1220    1.1150   28.4240 C.ar  999  PLP999      0.0182
      7  C4A       39.4820   -0.0950   27.7630 C.3   999  PLP999      0.0342
      8  C5        40.6210    2.1520   27.6450 C.ar  999  PLP999      0.0261
      9  C6        41.1970    3.2190   28.2540 C.ar  999  PLP999      0.0965
     10  C5A       40.3940    2.2130   26.1170 C.3   999  PLP999      0.1815
     11  O4P       39.1670    2.8120   25.7830 O.3   999  PLP999     -0.2653
     12  P         38.8370    3.2530   24.2770 P.3   999  PLP999      0.5329
     13  O1P       37.5520    4.0020   24.2780 O.3   999  PLP999     -0.1145
     14  O2P       40.0300    4.1880   24.0570 O.3   999  PLP999     -0.1145
     15  O3P       39.0060    2.1860   23.2780 O.2   999  PLP999     -0.2224
@<TRIPOS>BOND
     1    15    12    2
     2    14    12    1
     3    12    13    1
     4    12    11    1
     5    11    10    1
     6    10     8    1
     7     8     9   ar
     8     8     6   ar
     9     7     6    1
    10     9     1   ar
    11     6     4   ar
    12     1     2   ar
    13     4     2   ar
    14     4     5    1
    15     2     3    1
