@<TRIPOS>MOLECULE
1noj_NTZ_A_1.pdb
 14 15 0 0 0
SMALL
GASTEIGER

@<TRIPOS>ATOM
      1  C1        34.2960   22.7680   27.5250 C.ar  998  NTZ998      0.1940
      2  C2        34.2310   23.1820   26.0800 C.3   998  NTZ998      0.2439
      3  C3        32.9220   22.6430   25.4330 C.3   998  NTZ998      0.2217
      4  C4        32.6480   21.2010   25.8260 C.3   998  NTZ998      0.2100
      5  C5        32.4420   21.0550   27.3600 C.3   998  NTZ998      0.1739
      6  C6        32.4450   19.6130   27.8200 C.3   998  NTZ998      0.2091
      7  N1        33.4670   21.7860   28.0390 N.ar  998  NTZ998     -0.2113
      8  N17       33.8730   21.6990   29.3640 N.ar  998  NTZ998     -0.0430
      9  N18       34.9080   22.6060   29.6140 N.ar  998  NTZ998     -0.0229
     10  N21       35.1840   23.2940   28.4460 N.ar  998  NTZ998     -0.1100
     11  O2        34.3180   24.6000   25.9090 O.3   998  NTZ998     -0.2120
     12  O3        33.1190   22.6840   24.0130 O.3   998  NTZ998     -0.2171
     13  O4        31.4850   20.7110   25.1540 O.3   998  NTZ998     -0.2181
     14  O6        33.4420   18.8580   27.1300 O.3   998  NTZ998     -0.2182
@<TRIPOS>BOND
     1    12     3    1
     2    13     4    1
     3     3     4    1
     4     3     2    1
     5     4     5    1
     6    11     2    1
     7     2     1    1
     8    14     6    1
     9     5     6    1
    10     5     7    1
    11     1     7   ar
    12     1    10   ar
    13     7     8   ar
    14    10     9   ar
    15     8     9   ar
