@<TRIPOS>MOLECULE
1noj_PLP_A_1.pdb
 15 15 0 0 0
SMALL
GASTEIGER

@<TRIPOS>ATOM
      1  N1        24.7910   25.5400   30.2250 N.ar  999  PLP999     -0.2452
      2  C2        23.6790   24.7810   30.4810 C.ar  999  PLP999      0.0978
      3  C2A       22.6100   25.3370   31.3760 C.3   999  PLP999      0.0555
      4  C3        23.4400   23.6270   29.7940 C.ar  999  PLP999      0.2049
      5  O3        22.2310   22.9710   29.9840 O.3   999  PLP999     -0.2857
      6  C4        24.3280   23.2260   28.8220 C.ar  999  PLP999      0.0182
      7  C4A       24.1230   21.9690   28.0190 C.3   999  PLP999      0.0342
      8  C5        25.4300   23.9960   28.5430 C.ar  999  PLP999      0.0261
      9  C6        25.6640   25.1600   29.2550 C.ar  999  PLP999      0.0965
     10  C5A       26.3890   23.5840   27.3870 C.3   999  PLP999      0.1815
     11  O4P       26.1890   24.4870   26.3020 O.3   999  PLP999     -0.2653
     12  P         27.1510   24.6170   25.0730 P.3   999  PLP999      0.5329
     13  O1P       26.3420   25.3450   24.1250 O.2   999  PLP999     -0.2224
     14  O2P       28.3490   25.5240   25.4790 O.3   999  PLP999     -0.1145
     15  O3P       27.6100   23.2920   24.7100 O.3   999  PLP999     -0.1145
@<TRIPOS>BOND
     1    13    12    2
     2    15    12    1
     3    12    14    1
     4    12    11    1
     5    11    10    1
     6    10     8    1
     7     7     6    1
     8     8     6   ar
     9     8     9   ar
    10     6     4   ar
    11     9     1   ar
    12     4     5    1
    13     4     2   ar
    14     1     2   ar
    15     2     3    1
