@<TRIPOS>MOLECULE
1nok_NTZ_A_1.pdb
 14 15 0 0 0
SMALL
GASTEIGER

@<TRIPOS>ATOM
      1  C1        34.2220   22.6130   27.5810 C.ar  998  NTZ998      0.1940
      2  C2        34.1850   23.0950   26.1230 C.3   998  NTZ998      0.2439
      3  C3        32.8880   22.5700   25.5160 C.3   998  NTZ998      0.2217
      4  C4        32.6040   21.1180   25.9260 C.3   998  NTZ998      0.2100
      5  C5        32.2920   20.9990   27.4650 C.3   998  NTZ998      0.1739
      6  C6        32.1480   19.5640   28.0230 C.3   998  NTZ998      0.2091
      7  N1        33.3500   21.6550   28.1260 N.ar  998  NTZ998     -0.2113
      8  N17       33.7280   21.5170   29.4530 N.ar  998  NTZ998     -0.0430
      9  N18       34.8110   22.3620   29.6840 N.ar  998  NTZ998     -0.0229
     10  N21       35.1390   23.0620   28.5180 N.ar  998  NTZ998     -0.1100
     11  O2        34.3020   24.5200   25.9540 O.3   998  NTZ998     -0.2120
     12  O3        32.9400   22.5910   24.0970 O.3   998  NTZ998     -0.2171
     13  O4        31.4940   20.6920   25.1650 O.3   998  NTZ998     -0.2181
     14  O6        33.2270   18.7170   27.5520 O.3   998  NTZ998     -0.2182
@<TRIPOS>BOND
     1    12     3    1
     2    13     4    1
     3     3     4    1
     4     3     2    1
     5     4     5    1
     6    11     2    1
     7     2     1    1
     8     5     6    1
     9     5     7    1
    10    14     6    1
    11     1     7   ar
    12     1    10   ar
    13     7     8   ar
    14    10     9   ar
    15     8     9   ar
