@<TRIPOS>MOLECULE
1nok_PLP_A_1.pdb
 15 15 0 0 0
SMALL
GASTEIGER

@<TRIPOS>ATOM
      1  N1        24.7410   25.7430   30.2450 N.ar  999  PLP999     -0.2452
      2  C2        23.6150   25.0450   30.4460 C.ar  999  PLP999      0.0978
      3  C2A       22.5980   25.5540   31.4320 C.3   999  PLP999      0.0555
      4  C3        23.3990   23.8660   29.7920 C.ar  999  PLP999      0.2049
      5  O3        22.2590   23.1300   30.0990 O.3   999  PLP999     -0.2857
      6  C4        24.3430   23.4030   28.9190 C.ar  999  PLP999      0.0182
      7  C4A       24.1760   22.0640   28.2420 C.3   999  PLP999      0.0342
      8  C5        25.4940   24.1410   28.7080 C.ar  999  PLP999      0.0261
      9  C6        25.6850   25.2930   29.3820 C.ar  999  PLP999      0.0965
     10  C5A       26.4550   23.8110   27.5540 C.3   999  PLP999      0.1815
     11  O4P       26.0740   24.3920   26.2780 O.3   999  PLP999     -0.2653
     12  P         27.0360   24.7390   25.1260 P.3   999  PLP999      0.5329
     13  O1P       26.2090   25.3170   24.1190 O.2   999  PLP999     -0.2224
     14  O2P       28.0230   25.8130   25.6000 O.3   999  PLP999     -0.1145
     15  O3P       27.8570   23.5970   24.7550 O.3   999  PLP999     -0.1145
@<TRIPOS>BOND
     1    13    12    2
     2    15    12    1
     3    12    14    1
     4    12    11    1
     5    11    10    1
     6    10     8    1
     7     7     6    1
     8     8     6   ar
     9     8     9   ar
    10     6     4   ar
    11     9     1   ar
    12     4     5    1
    13     4     2   ar
    14     1     2   ar
    15     2     3    1
