@<TRIPOS>MOLECULE
1noo_HEM_A_1.pdb
 43 50 0 0 0
SMALL
GASTEIGER

@<TRIPOS>ATOM
      1  CHA       45.4410   45.0320    8.8540 C.2   417  HEM417      0.0000
      2  CHB       49.9020   43.3230    9.2850 C.2   417  HEM417      0.0000
      3  CHC       51.5950   47.7710    9.4030 C.2   417  HEM417      0.0000
      4  CHD       47.0980   49.4780    9.5260 C.2   417  HEM417      0.0000
      5  C1A       46.5100   44.1710    8.9700 C.2   417  HEM417      0.0000
      6  C2A       46.4300   42.7350    8.9540 C.2   417  HEM417      0.0000
      7  C3A       47.6740   42.2680    9.1030 C.2   417  HEM417      0.0000
      8  C4A       48.5250   43.4110    9.2090 C.2   417  HEM417      0.0000
      9  CMA       48.0940   40.8030    9.0960 C.3   417  HEM417      0.0000
     10  CAA       45.1830   41.8750    8.7570 C.3   417  HEM417      0.0000
     11  CBA       44.4340   41.6010   10.0590 C.3   417  HEM417      0.0000
     12  CGA       43.2820   40.6210    9.8950 C.2   417  HEM417      0.0000
     13  O1A       43.0400   40.1170    8.7770 O.co2 417  HEM417      0.0000
     14  O2A       42.6260   40.3360   10.9070 O.co2 417  HEM417      0.0000
     15  C1B       50.7650   44.3850    9.2930 C.ar  417  HEM417      0.0000
     16  C2B       52.2050   44.2640    9.2850 C.ar  417  HEM417      0.0000
     17  C3B       52.7020   45.5000    9.2520 C.ar  417  HEM417      0.0000
     18  C4B       51.5340   46.3930    9.2920 C.ar  417  HEM417      0.0000
     19  CMB       52.9850   42.9520    9.2560 C.3   417  HEM417      0.0000
     20  CAB       54.0270   45.8640    8.9790 C.2   417  HEM417      0.0000
     21  CBB       55.1190   45.6450    9.7520 C.2   417  HEM417      0.0000
     22  C1C       50.5060   48.6390    9.4980 C.2   417  HEM417      0.0000
     23  C2C       50.6270   50.0860    9.5880 C.2   417  HEM417      0.0000
     24  C3C       49.3760   50.5610    9.6800 C.2   417  HEM417      0.0000
     25  C4C       48.4760   49.3930    9.6370 C.2   417  HEM417      0.0000
     26  CMC       51.8870   50.9360    9.4930 C.3   417  HEM417      0.0000
     27  CAC       49.0280   51.9170    9.6480 C.2   417  HEM417      0.0000
     28  CBC       48.6660   52.6130   10.7550 C.2   417  HEM417      0.0000
     29  C1D       46.2570   48.4340    9.2240 C.ar  417  HEM417      0.0000
     30  C2D       44.8260   48.5620    9.0600 C.ar  417  HEM417      0.0000
     31  C3D       44.3560   47.3060    8.9120 C.ar  417  HEM417      0.0000
     32  C4D       45.5030   46.4140    8.9270 C.ar  417  HEM417      0.0000
     33  CMD       44.0050   49.8430    8.9320 C.3   417  HEM417      0.0000
     34  CAD       42.8960   46.9190    8.7830 C.3   417  HEM417      0.0000
     35  CBD       42.3880   46.7030    7.3750 C.3   417  HEM417      0.0000
     36  CGD       40.9340   46.2510    7.3430 C.2   417  HEM417      0.0000
     37  O1D       40.3110   46.3460    6.2730 O.co2 417  HEM417      0.0000
     38  O2D       40.4070   45.8050    8.3870 O.co2 417  HEM417      0.0000
     39  NA        47.8050   44.5750    9.1220 N.2   417  HEM417      0.0000
     40  NB        50.3570   45.6980    9.2700 N.ar  417  HEM417      0.0000
     41  NC        49.1840   48.2400    9.4780 N.2   417  HEM417      0.0000
     42  ND        46.6630   47.1240    9.0950 N.ar  417  HEM417      0.0000
     43 FE         48.4840   46.4070    9.1580 Fe    417  HEM417      0.0000
@<TRIPOS>BOND
     1    37    36   ar
     2    36    35    1
     3    36    38   ar
     4    35    34    1
     5    10     6    1
     6    10    11    1
     7    13    12   ar
     8    34    31    1
     9     1    32    2
    10     1     5    1
    11    31    32   ar
    12    31    30   ar
    13    32    42   ar
    14    33    30    1
    15     6     5    1
    16     6     7    2
    17     5    39    2
    18    20    17    1
    19    20    21    2
    20    30    29   ar
    21    42    43    1
    22    42    29   ar
    23     9     7    1
    24     7     8    1
    25    39    43    1
    26    39     8    1
    27    43    40    1
    28    43    41    1
    29     8     2    2
    30    29     4    2
    31    17    16   ar
    32    17    18   ar
    33    19    16    1
    34    40    18   ar
    35    40    15   ar
    36     2    15    1
    37    16    15   ar
    38    18     3    1
    39     3    22    2
    40    41    22    1
    41    41    25    2
    42    26    23    1
    43    22    23    1
    44     4    25    1
    45    23    24    2
    46    25    24    1
    47    27    24    1
    48    27    28    2
    49    12    11    1
    50    12    14   ar
