@<TRIPOS>MOLECULE
1noo_CAH_A_1.pdb
 12 13 0 0 0
SMALL
GASTEIGER

@<TRIPOS>ATOM
      1  C1        46.7870   44.7850   14.6490 C.3   422  CAH422      0.0540
      2  C2        45.2920   44.7590   14.3990 C.2   422  CAH422      0.1500
      3  O2        44.4590   44.8300   15.2980 O.2   422  CAH422     -0.2961
      4  C3        44.9410   44.5570   12.9600 C.3   422  CAH422      0.0670
      5  C4        46.3830   44.5820   12.4120 C.3   422  CAH422      0.0382
      6  C5        46.8760   46.0430   12.6450 C.3   422  CAH422      0.1528
      7  O5        47.9930   46.3050   11.7900 O.3   422  CAH422     -0.2231
      8  C6        47.3130   46.1400   14.1350 C.3   422  CAH422      0.0398
      9  C7        47.1570   43.8310   13.5000 C.3   422  CAH422      0.0090
     10  C8        46.5960   42.4170   13.6920 C.3   422  CAH422      0.0005
     11  C9        48.6760   43.8540   13.2350 C.3   422  CAH422      0.0005
     12  C10       47.1520   44.2760   16.0470 C.3   422  CAH422      0.0074
@<TRIPOS>BOND
     1     7     6    1
     2     5     6    1
     3     5     4    1
     4     5     9    1
     5     6     8    1
     6     4     2    1
     7    11     9    1
     8     9    10    1
     9     9     1    1
    10     8     1    1
    11     2     1    1
    12     2     3    2
    13     1    12    1
