@<TRIPOS>MOLECULE
1nop_III_C_1.pdb
 45 45 0 0 0
SMALL
GASTEIGER

@<TRIPOS>ATOM
      1  N         17.6450   55.9880   -3.7000 N.3   720  LYS720     -0.1231
      2  CA        16.4860   55.6800   -4.5650 C.3   720  LYS720      0.1693
      3  C         15.6150   56.9280   -4.5170 C.2   720  LYS720      0.2592
      4  O         15.3330   57.4520   -3.4290 O.2   720  LYS720     -0.2718
      5  CB        15.7370   54.4440   -4.0460 C.3   720  LYS720      0.0285
      6  CG        15.0150   53.6370   -5.1610 C.3   720  LYS720      0.0035
      7  CD        14.3650   52.3400   -4.6300 C.3   720  LYS720      0.0206
      8  CE        14.1650   51.3370   -5.7690 C.3   720  LYS720      0.1093
      9  NZ        12.9820   50.4120   -5.5220 N.3   720  LYS720     -0.1314
     10  N         15.2090   57.4380   -5.6800 N.am  721  LEU721     -0.1966
     11  CA        14.4250   58.6830   -5.7080 C.3   721  LEU721      0.1728
     12  C         12.9180   58.4470   -5.6640 C.2   721  LEU721      0.2616
     13  O         12.1750   59.3630   -5.3560 O.2   721  LEU721     -0.2715
     14  CB        14.7690   59.5600   -6.9190 C.3   721  LEU721      0.0311
     15  CG        16.0800   60.3400   -6.9370 C.3   721  LEU721      0.0022
     16  CD1       16.5420   60.4770   -8.3890 C.3   721  LEU721      0.0001
     17  CD2       15.9450   61.7200   -6.3000 C.3   721  LEU721      0.0001
     18  N         12.4700   57.2420   -6.0110 N.am  722  ASN722     -0.1958
     19  CA        11.0630   56.8360   -5.8640 C.3   722  ASN722      0.1819
     20  C         10.9990   55.3480   -6.1320 C.2   722  ASN722      0.2621
     21  O         12.0520   54.7350   -6.3000 O.2   722  ASN722     -0.2715
     22  CB        10.0990   57.6110   -6.7770 C.3   722  ASN722      0.1195
     23  CG        10.5410   57.6540   -8.2370 C.2   722  ASN722      0.2630
     24  OD1       10.8360   56.6220   -8.8640 O.2   722  ASN722     -0.2716
     25  ND2       10.5760   58.8720   -8.7980 N.am  722  ASN722     -0.0877
     26  N          9.7980   54.7570   -6.1770 N.am  723  TYR723     -0.1960
     27  CA         9.6750   53.3130   -6.4240 C.3   723  TYR723      0.1771
     28  C         10.0350   52.9470   -7.8790 C.2   723  TYR723      0.2619
     29  O         10.3740   51.7830   -8.1570 O.2   723  TYR723     -0.2715
     30  CB         8.2680   52.7880   -6.0880 C.3   723  TYR723      0.0574
     31  CG         7.8340   52.9430   -4.6480 C.ar  723  TYR723     -0.0198
     32  CD1        6.4970   52.7500   -4.2850 C.ar  723  TYR723     -0.0009
     33  CD2        8.7470   53.2710   -3.6390 C.ar  723  TYR723     -0.0009
     34  CE1        6.0800   52.8850   -2.9640 C.ar  723  TYR723      0.0417
     35  CE2        8.3240   53.4220   -2.2960 C.ar  723  TYR723      0.0417
     36  CZ         6.9930   53.2240   -1.9810 C.ar  723  TYR723      0.1957
     37  OH         6.5750   53.3310   -0.6890 O.3   723  TYR723     -0.2866
     38  N          9.9710   53.9300   -8.7870 N.am  724  LEU724     -0.1977
     39  CA        10.2900   53.7270  -10.2080 C.3   724  LEU724      0.1596
     40  C         11.6790   54.2350  -10.6370 C.2   724  LEU724      0.2287
     41  O         12.7160   53.8140  -10.0840 O.2   724  LEU724     -0.2864
     42  CB         9.2520   54.4280  -11.0790 C.3   724  LEU724      0.0297
     43  CG         7.7670   54.1710  -10.8450 C.3   724  LEU724      0.0022
     44  CD1        6.9880   55.4470  -11.1020 C.3   724  LEU724      0.0001
     45  CD2        7.3230   53.0580  -11.7790 C.3   724  LEU724      0.0001
@<TRIPOS>BOND
     1    45    43    1
     2    44    43    1
     3    42    43    1
     4    42    39    1
     5    40    39    1
     6    40    41    2
     7    39    38    1
     8    24    23    2
     9    25    23   am
    10    38    28   am
    11    16    15    1
    12    23    22    1
    13    29    28    2
    14    28    27    1
    15    15    14    1
    16    15    17    1
    17    14    11    1
    18    22    19    1
    19    27    26    1
    20    27    30    1
    21    21    20    2
    22    26    20   am
    23    20    19    1
    24    30    31    1
    25    18    19    1
    26    18    12   am
    27     8     9    1
    28     8     7    1
    29    11    10    1
    30    11    12    1
    31    10     3   am
    32    12    13    2
    33     6     7    1
    34     6     5    1
    35    31    32   ar
    36    31    33   ar
    37     2     3    1
    38     2     5    1
    39     2     1    1
    40     3     4    2
    41    32    34   ar
    42    33    35   ar
    43    34    36   ar
    44    35    36   ar
    45    36    37    1
