@<TRIPOS>MOLECULE
1nop_NUC_F_1.pdb
 20 21 0 0 0
SMALL
GASTEIGER

@<TRIPOS>ATOM
      1  P          7.8120   33.4360   58.7340 P.3   806  DT806       0.3942
      2  OP1        7.8880   33.8330   57.3000 O.3   806  DT806      -0.1425
      3  OP2        8.9870   32.7470   59.3340 O.3   806  DT806      -0.1425
      4  O5'        7.6000   34.7600   59.6300 O.3   806  DT806      -0.2926
      5  C5'        6.2830   35.1400   60.0260 C.3   806  DT806       0.1829
      6  C4'        6.2680   36.2470   61.0790 C.3   806  DT806       0.1773
      7  O4'        5.7850   35.6590   62.3090 O.3   806  DT806      -0.3339
      8  C3'        7.5520   36.9870   61.4900 C.3   806  DT806       0.1857
      9  O3'        7.2470   38.2860   61.9580 O.3   806  DT806      -0.2203
     10  C2'        8.0710   36.2210   62.6820 C.3   806  DT806       0.0874
     11  C1'        6.7610   35.7830   63.3250 C.3   806  DT806       0.2090
     12  N1         6.8000   34.4680   64.0350 N.am  806  DT806      -0.1794
     13  C2         6.1880   34.4100   65.2730 C.1   806  DT806       0.2844
     14  O2         5.6370   35.3760   65.7930 O.2   806  DT806      -0.1918
     15  N3         6.2590   33.1720   65.8750 N.2   806  DT806      -0.2455
     16  C4         6.8650   32.0250   65.3750 C.1   806  DT806       0.2134
     17  O4         6.8630   30.9760   66.0070 O.2   806  DT806      -0.2088
     18  C5         7.4920   32.1500   64.0700 C.2   806  DT806       0.0891
     19  C7         8.1840   30.9710   63.4330 C.3   806  DT806       0.0462
     20  C6         7.4260   33.3550   63.4640 C.2   806  DT806       0.0877
@<TRIPOS>BOND
     1     2     1    1
     2     1     3    1
     3     1     4    1
     4     4     5    1
     5     5     6    1
     6     6     8    1
     7     6     7    1
     8     8     9    1
     9     8    10    1
    10     7    11    1
    11    10    11    1
    12    11    12    1
    13    19    18    1
    14    20    12    1
    15    20    18    2
    16    12    13   am
    17    18    16    1
    18    13    14    2
    19    13    15    2
    20    16    15    2
    21    16    17    2
