@<TRIPOS>MOLECULE
1nos_HEM_A_1.pdb
 43 50 0 0 0
SMALL
GASTEIGER

@<TRIPOS>ATOM
      1 FE         67.7280   -9.8220   55.9500 Fe    901  HEM901      0.0000
      2  CHA       71.0490  -10.0400   55.2640 C.2   901  HEM901      0.0000
      3  CHB       68.1360   -6.4750   56.5360 C.2   901  HEM901      0.0000
      4  CHC       64.3860   -9.5040   56.2280 C.2   901  HEM901      0.0000
      5  CHD       67.4620  -13.1550   55.9030 C.2   901  HEM901      0.0000
      6  NA        69.2720   -8.5380   55.9210 N.2   901  HEM901      0.0000
      7  C1A       70.5920   -8.7820   55.5750 C.2   901  HEM901      0.0000
      8  C2A       71.4070   -7.5590   55.6280 C.2   901  HEM901      0.0000
      9  C3A       70.5730   -6.5630   55.9760 C.2   901  HEM901      0.0000
     10  C4A       69.2720   -7.1780   56.2020 C.2   901  HEM901      0.0000
     11  CMA       70.9170   -5.0770   56.0340 C.3   901  HEM901      0.0000
     12  CAA       72.8990   -7.4050   55.3740 C.3   901  HEM901      0.0000
     13  CBA       73.2030   -6.9710   53.9540 C.3   901  HEM901      0.0000
     14  CGA       72.7080   -7.9680   52.9170 C.2   901  HEM901      0.0000
     15  O1A       73.1650   -9.1320   52.9450 O.co2 901  HEM901      0.0000
     16  O2A       71.8580   -7.5890   52.0810 O.co2 901  HEM901      0.0000
     17  NB        66.5140   -8.2980   56.3020 N.ar  901  HEM901      0.0000
     18  C1B       66.8540   -6.9790   56.5360 C.ar  901  HEM901      0.0000
     19  C2B       65.7130   -6.1420   56.6820 C.ar  901  HEM901      0.0000
     20  C3B       64.6210   -6.9470   56.5860 C.ar  901  HEM901      0.0000
     21  C4B       65.1340   -8.3150   56.3550 C.ar  901  HEM901      0.0000
     22  CMB       65.7680   -4.6170   56.8550 C.3   901  HEM901      0.0000
     23  CAB       63.3120   -6.4780   56.6200 C.2   901  HEM901      0.0000
     24  CBB       62.3310   -7.0170   57.4160 C.2   901  HEM901      0.0000
     25  NC        66.2190  -11.0960   56.0510 N.2   901  HEM901      0.0000
     26  C1C       64.8740  -10.8100   56.0800 C.2   901  HEM901      0.0000
     27  C2C       64.0760  -12.0330   56.0060 C.2   901  HEM901      0.0000
     28  C3C       64.9480  -13.0770   55.9900 C.2   901  HEM901      0.0000
     29  C4C       66.2740  -12.4630   56.0300 C.2   901  HEM901      0.0000
     30  CMC       62.5610  -12.1230   55.9190 C.3   901  HEM901      0.0000
     31  CAC       64.7130  -14.4640   55.9000 C.3   901  HEM901      0.0000
     32  CBC       63.6340  -15.2310   56.3370 C.3   901  HEM901      0.0000
     33  ND        68.9780  -11.2680   55.6510 N.ar  901  HEM901      0.0000
     34  C1D       68.7130  -12.6030   55.6850 C.ar  901  HEM901      0.0000
     35  C2D       69.8640  -13.3580   55.3210 C.ar  901  HEM901      0.0000
     36  C3D       70.8320  -12.4890   55.0580 C.ar  901  HEM901      0.0000
     37  C4D       70.3000  -11.1920   55.3030 C.ar  901  HEM901      0.0000
     38  CMD       69.9960  -14.8600   55.3040 C.3   901  HEM901      0.0000
     39  CAD       72.2280  -12.8240   54.5610 C.3   901  HEM901      0.0000
     40  CBD       73.3630  -12.3240   55.4480 C.3   901  HEM901      0.0000
     41  CGD       73.4720  -13.0610   56.7710 C.2   901  HEM901      0.0000
     42  O1D       72.5520  -13.8150   57.1380 O.co2 901  HEM901      0.0000
     43  O2D       74.5010  -12.8920   57.4500 O.co2 901  HEM901      0.0000
@<TRIPOS>BOND
     1    16    14   ar
     2    14    15   ar
     3    14    13    1
     4    13    12    1
     5    39    36    1
     6    39    40    1
     7    36    37   ar
     8    36    35   ar
     9     2    37    2
    10     2     7    1
    11    37    33   ar
    12    38    35    1
    13    35    34   ar
    14    12     8    1
    15    40    41    1
    16     7     8    1
    17     7     6    2
    18     8     9    2
    19    33    34   ar
    20    33     1    1
    21    34     5    2
    22    31    28    1
    23    31    32    1
    24     5    29    1
    25    30    27    1
    26     6     1    1
    27     6    10    1
    28     1    25    1
    29     1    17    1
    30     9    11    1
    31     9    10    1
    32    28    27    2
    33    28    29    1
    34    27    26    1
    35    29    25    2
    36    25    26    1
    37    26     4    2
    38    10     3    2
    39     4    21    1
    40    17    21   ar
    41    17    18   ar
    42    21    20   ar
    43    18     3    1
    44    18    19   ar
    45    20    23    1
    46    20    19   ar
    47    23    24    2
    48    19    22    1
    49    41    42   ar
    50    41    43   ar
