@<TRIPOS>MOLECULE
1nou_NAG_A_1.pdb
 14 14 0 0 0
SMALL
GASTEIGER

@<TRIPOS>ATOM
      1  C1        31.0530   14.4080   -2.1820 C.3     2  NAG2        0.1665
      2  C2        29.8920   13.4600   -2.3940 C.3     2  NAG2        0.1576
      3  C3        30.2920   12.0200   -2.1610 C.3     2  NAG2        0.2069
      4  C4        31.4700   11.7220   -3.0560 C.3     2  NAG2        0.2134
      5  C5        32.5790   12.7090   -2.7710 C.3     2  NAG2        0.1809
      6  C6        33.8070   12.4180   -3.6360 C.3     2  NAG2        0.2141
      7  C7        27.5070   13.8640   -2.0230 C.2     2  NAG2        0.2420
      8  C8        26.3700   13.6040   -1.0730 C.3     2  NAG2        0.0964
      9  N2        28.7600   13.8200   -1.5560 N.am    2  NAG2       -0.2019
     10  O3        29.2040   11.2030   -2.5160 O.3     2  NAG2       -0.2184
     11  O4        31.9390   10.4270   -2.8130 O.3     2  NAG2       -0.2176
     12  O5        32.0950   14.0060   -3.0290 O.3     2  NAG2       -0.3489
     13  O6        33.4560   12.3890   -5.0000 O.3     2  NAG2       -0.2176
     14  O7        27.2350   14.1220   -3.1870 O.2     2  NAG2       -0.2733
@<TRIPOS>BOND
     1    13     6    1
     2     6     5    1
     3    14     7    2
     4     4    11    1
     5     4     5    1
     6     4     3    1
     7    12     5    1
     8    12     1    1
     9    10     3    1
    10     2     1    1
    11     2     3    1
    12     2     9    1
    13     7     9   am
    14     7     8    1
