@<TRIPOS>MOLECULE
1now_NAG_A_1.pdb
 14 14 0 0 0
SMALL
GASTEIGER

@<TRIPOS>ATOM
      1  C1        31.1220   14.3520   -2.3260 C.3     2  NAG2        0.1665
      2  C2        29.9760   13.3710   -2.5260 C.3     2  NAG2        0.1576
      3  C3        30.3920   11.9210   -2.3150 C.3     2  NAG2        0.2069
      4  C4        31.5460   11.6090   -3.2380 C.3     2  NAG2        0.2134
      5  C5        32.6510   12.6200   -2.9860 C.3     2  NAG2        0.1809
      6  C6        33.8380   12.3570   -3.9180 C.3     2  NAG2        0.2141
      7  C7        27.6060   13.7700   -2.1290 C.2     2  NAG2        0.2420
      8  C8        26.4920   13.3680   -1.2070 C.3     2  NAG2        0.0964
      9  N2        28.8530   13.6990   -1.6680 N.am    2  NAG2       -0.2019
     10  O3        29.3190   11.0700   -2.6370 O.3     2  NAG2       -0.2184
     11  O4        32.0130   10.3140   -2.9490 O.3     2  NAG2       -0.2176
     12  O5        32.1840   13.9450   -3.1580 O.3     2  NAG2       -0.3489
     13  O6        33.4540   12.3670   -5.2710 O.3     2  NAG2       -0.2176
     14  O7        27.3320   14.1690   -3.2520 O.2     2  NAG2       -0.2733
@<TRIPOS>BOND
     1    13     6    1
     2     6     5    1
     3    14     7    2
     4     4     5    1
     5     4    11    1
     6     4     3    1
     7    12     5    1
     8    12     1    1
     9    10     3    1
    10     2     1    1
    11     2     3    1
    12     2     9    1
    13     7     9   am
    14     7     8    1
