@<TRIPOS>MOLECULE
1now_IFG_A_1.pdb
 14 14 0 0 0
SMALL
GASTEIGER

@<TRIPOS>ATOM
      1  N1         5.1330   22.0720   35.6050 N.3   557  IFG557     -0.1963
      2  C2         5.5810   23.3950   35.9290 C.3   557  IFG557      0.2007
      3  C3         7.1010   23.6680   36.0010 C.3   557  IFG557      0.2184
      4  C4         7.9300   22.4640   36.4690 C.3   557  IFG557      0.1892
      5  C5         7.5010   21.2540   35.6640 C.3   557  IFG557      0.0835
      6  C6         8.2700   19.9770   35.9300 C.3   557  IFG557      0.1861
      7  C7         4.9740   24.3390   33.7670 C.2   557  IFG557      0.2432
      8  C8         4.5080   25.4300   32.8520 C.3   557  IFG557      0.0965
      9  C9         6.0180   20.9390   35.8490 C.3   557  IFG557      0.0958
     10  N2         4.9060   24.3970   35.1390 N.am  557  IFG557     -0.1864
     11  O7         5.4580   23.3520   33.2280 O.2   557  IFG557     -0.2733
     12  O3         7.3410   24.7650   36.8730 O.3   557  IFG557     -0.2170
     13  O4         7.6430   22.2270   37.8450 O.3   557  IFG557     -0.2202
     14  O6         8.0740   19.0330   34.8870 O.3   557  IFG557     -0.2203
@<TRIPOS>BOND
     1     8     7    1
     2    11     7    2
     3     7    10   am
     4    14     6    1
     5    10     2    1
     6     1     9    1
     7     1     2    1
     8     5     9    1
     9     5     6    1
    10     5     4    1
    11     2     3    1
    12     3     4    1
    13     3    12    1
    14     4    13    1
