@<TRIPOS>MOLECULE
1nox_FMN_A_1.pdb
 31 33 0 0 0
SMALL
GASTEIGER

@<TRIPOS>ATOM
      1  N1        15.9670   32.4900   41.8920 N.2   300  FMN300     -0.2890
      2  C2        16.9610   33.3810   42.3110 C.1   300  FMN300      0.3669
      3  O2        17.9440   33.5950   41.7040 O.2   300  FMN300     -0.1744
      4  N3        16.6700   34.1060   43.5420 N.2   300  FMN300     -0.2300
      5  C4        15.5680   33.9770   44.3350 C.1   300  FMN300      0.2513
      6  O4        15.3460   34.5980   45.3800 O.2   300  FMN300     -0.2057
      7  C4A       14.5540   32.9890   43.9520 C.2   300  FMN300      0.2700
      8  N5        13.3770   32.7920   44.4830 N.2   300  FMN300     -0.3878
      9  C5A       12.3470   32.1140   43.9010 C.2   300  FMN300      0.1320
     10  C6        11.0040   32.2590   44.4270 C.2   300  FMN300      0.0250
     11  C7         9.9130   31.6890   43.7530 C.2   300  FMN300     -0.0238
     12  C7M        8.5120   31.8030   44.3130 C.3   300  FMN300      0.0308
     13  C8        10.1070   30.9960   42.4970 C.2   300  FMN300     -0.0280
     14  C8M        9.0060   30.3080   41.7300 C.3   300  FMN300      0.0304
     15  C9        11.4060   30.8550   41.9690 C.2   300  FMN300     -0.0041
     16  C9A       12.5840   31.4040   42.6030 C.3   300  FMN300      0.1497
     17  N10       13.9070   31.4910   42.0960 N.pl3 300  FMN300     -0.2691
     18  C10       14.9240   32.3170   42.6950 C.2   300  FMN300      0.2416
     19  C1'       14.1790   30.7910   40.7400 C.3   300  FMN300      0.1294
     20  C2'       14.0410   29.3120   41.0750 C.3   300  FMN300      0.2044
     21  O2'       15.2640   28.7040   41.6530 O.3   300  FMN300     -0.2185
     22  C3'       13.8690   28.3640   39.7970 C.3   300  FMN300      0.2164
     23  O3'       12.5520   28.8390   39.2860 O.3   300  FMN300     -0.2175
     24  C4'       13.8690   26.8400   39.6440 C.3   300  FMN300      0.2147
     25  O4'       15.2400   26.5150   40.1490 O.3   300  FMN300     -0.2176
     26  C5'       13.5970   26.1320   38.2950 C.3   300  FMN300      0.1892
     27  O5'       14.3950   26.9110   37.3700 O.3   300  FMN300     -0.2674
     28  P         13.7540   27.6690   36.1160 P.3   300  FMN300      0.5327
     29  O1P       12.9050   26.7060   35.3400 O.3   300  FMN300     -0.1145
     30  O2P       14.9960   28.0810   35.3310 O.2   300  FMN300     -0.2224
     31  O3P       12.9100   28.8380   36.6790 O.3   300  FMN300     -0.1145
@<TRIPOS>BOND
     1    30    28    2
     2    29    28    1
     3    28    31    1
     4    28    27    1
     5    27    26    1
     6    26    24    1
     7    23    22    1
     8    24    22    1
     9    24    25    1
    10    22    20    1
    11    19    20    1
    12    19    17    1
    13    20    21    1
    14     3     2    2
    15    14    13    1
    16     1     2    2
    17     1    18    2
    18    15    13    2
    19    15    16    1
    20    17    16    1
    21    17    18    1
    22     2     4    2
    23    13    11    1
    24    16     9    1
    25    18     7    1
    26     4     5    2
    27    11    12    1
    28    11    10    2
    29     9    10    1
    30     9     8    2
    31     7     5    1
    32     7     8    2
    33     5     6    2
