@<TRIPOS>MOLECULE
1np0_NAG_A_1.pdb
 14 14 0 0 0
SMALL
GASTEIGER

@<TRIPOS>ATOM
      1  C1        30.9700   14.3890   -2.2560 C.3     2  NAG2        0.1665
      2  C2        29.7810   13.4690   -2.4480 C.3     2  NAG2        0.1576
      3  C3        30.1950   12.0380   -2.1770 C.3     2  NAG2        0.2069
      4  C4        31.3450   11.7120   -3.1070 C.3     2  NAG2        0.2134
      5  C5        32.4760   12.6940   -2.8760 C.3     2  NAG2        0.1809
      6  C6        33.6870   12.3930   -3.7630 C.3     2  NAG2        0.2141
      7  C7        27.4090   13.8510   -1.9520 C.2     2  NAG2        0.2420
      8  C8        26.3690   13.5910   -0.9020 C.3     2  NAG2        0.0964
      9  N2        28.6910   13.8620   -1.5740 N.am    2  NAG2       -0.2019
     10  O3        29.1050   11.1840   -2.4310 O.3     2  NAG2       -0.2184
     11  O4        31.7990   10.4060   -2.8730 O.3     2  NAG2       -0.2176
     12  O5        31.9970   13.9930   -3.1260 O.3     2  NAG2       -0.3489
     13  O6        33.3280   12.3460   -5.1230 O.3     2  NAG2       -0.2176
     14  O7        27.0270   14.0540   -3.0940 O.2     2  NAG2       -0.2733
@<TRIPOS>BOND
     1    13     6    1
     2     6     5    1
     3    12     5    1
     4    12     1    1
     5     4     5    1
     6     4    11    1
     7     4     3    1
     8    14     7    2
     9     2     1    1
    10     2     3    1
    11     2     9    1
    12    10     3    1
    13     7     9   am
    14     7     8    1
