@<TRIPOS>MOLECULE
1np0_NGT_A_1.pdb
 14 15 0 0 0
SMALL
GASTEIGER

@<TRIPOS>ATOM
      1  C1         5.1240   22.0470   34.8260 C.3   557  NGT557      0.1925
      2  C2         5.1610   23.3160   35.7290 C.3   557  NGT557      0.1740
      3  C3         6.6420   23.6460   36.2170 C.3   557  NGT557      0.2101
      4  C4         7.4490   22.4060   36.5250 C.3   557  NGT557      0.2137
      5  C5         7.4060   21.4480   35.3480 C.3   557  NGT557      0.1820
      6  C6         8.2390   20.1900   35.5460 C.3   557  NGT557      0.2142
      7  C7         4.7750   24.2600   33.7040 C.2   557  NGT557      0.0815
      8  C8         4.3410   25.2330   32.6480 C.3   557  NGT557      0.0587
      9  N2         4.6610   24.4170   34.9510 N.2   557  NGT557     -0.2643
     10  S1         5.4270   22.7120   33.1540 S.3   557  NGT557     -0.0689
     11  O3         6.5930   24.4980   37.3510 O.3   557  NGT557     -0.2181
     12  O4         8.7840   22.7800   36.8010 O.3   557  NGT557     -0.2176
     13  O5         6.0500   21.0350   35.0950 O.3   557  NGT557     -0.3400
     14  O6         8.0000   19.2560   34.5010 O.3   557  NGT557     -0.2176
@<TRIPOS>BOND
     1     8     7    1
     2    10     7    1
     3    10     1    1
     4     7     9    2
     5    14     6    1
     6     1    13    1
     7     1     2    1
     8     9     2    1
     9    13     5    1
    10     5     6    1
    11     5     4    1
    12     2     3    1
    13     3     4    1
    14     3    11    1
    15     4    12    1
