@<TRIPOS>MOLECULE
1np1_HEM_A_1.pdb
 43 50 0 0 0
SMALL
GASTEIGER

@<TRIPOS>ATOM
      1 FE         25.0030   25.1400   62.3110 Fe    302  HEM302      0.0000
      2  CHA       23.9640   24.6680   59.0800 C.2   302  HEM302      0.0000
      3  CHB       28.2190   25.9950   61.1930 C.2   302  HEM302      0.0000
      4  CHC       26.0680   25.3030   65.5650 C.2   302  HEM302      0.0000
      5  CHD       21.7410   24.9670   63.3740 C.2   302  HEM302      0.0000
      6  NA        25.9020   25.2650   60.5990 N.ar  302  HEM302      0.0000
      7  C1A       25.3360   24.9610   59.3310 C.ar  302  HEM302      0.0000
      8  C2A       26.3510   25.0200   58.3400 C.ar  302  HEM302      0.0000
      9  C3A       27.5380   25.3600   58.9230 C.ar  302  HEM302      0.0000
     10  C4A       27.2600   25.6060   60.2840 C.ar  302  HEM302      0.0000
     11  CMA       28.8670   25.3830   58.1790 C.3   302  HEM302      0.0000
     12  CAA       26.2600   24.6400   56.8620 C.3   302  HEM302      0.0000
     13  CBA       26.0290   23.1460   56.5300 C.3   302  HEM302      0.0000
     14  CGA       26.1010   22.8640   55.0080 C.2   302  HEM302      0.0000
     15  O1A       25.1590   23.3080   54.3160 O.co2 302  HEM302      0.0000
     16  O2A       27.0660   22.2260   54.4970 O.co2 302  HEM302      0.0000
     17  NB        26.8130   25.5810   63.2370 N.2   302  HEM302      0.0000
     18  C1B       28.0240   25.9020   62.5910 C.2   302  HEM302      0.0000
     19  C2B       29.0650   26.0790   63.6240 C.2   302  HEM302      0.0000
     20  C3B       28.5410   25.8070   64.8670 C.2   302  HEM302      0.0000
     21  C4B       27.0650   25.5470   64.6180 C.2   302  HEM302      0.0000
     22  CMB       30.4040   26.4820   63.1600 C.3   302  HEM302      0.0000
     23  CAB       29.2110   26.0430   66.0550 C.2   302  HEM302      0.0000
     24  CBB       29.1190   25.2560   67.1370 C.2   302  HEM302      0.0000
     25  NC        24.2040   25.0060   64.0190 N.ar  302  HEM302      0.0000
     26  C1C       24.7740   25.0030   65.3030 C.ar  302  HEM302      0.0000
     27  C2C       23.7670   24.9980   66.3500 C.ar  302  HEM302      0.0000
     28  C3C       22.5140   25.1430   65.7600 C.ar  302  HEM302      0.0000
     29  C4C       22.7810   25.1110   64.3290 C.ar  302  HEM302      0.0000
     30  CMC       23.9280   24.9160   67.8860 C.3   302  HEM302      0.0000
     31  CAC       21.2520   25.3090   66.4320 C.3   302  HEM302      0.0000
     32  CBC       20.9180   26.6460   66.4820 C.3   302  HEM302      0.0000
     33  ND        23.1530   24.8100   61.3800 N.2   302  HEM302      0.0000
     34  C1D       21.9470   24.7810   61.9890 C.2   302  HEM302      0.0000
     35  C2D       20.8510   24.6840   60.9950 C.2   302  HEM302      0.0000
     36  C3D       21.4970   24.5650   59.7970 C.2   302  HEM302      0.0000
     37  C4D       22.9390   24.6570   60.0360 C.2   302  HEM302      0.0000
     38  CMD       19.3430   24.8190   61.4590 C.3   302  HEM302      0.0000
     39  CAD       20.9080   24.6010   58.4000 C.3   302  HEM302      0.0000
     40  CBD       21.1570   26.0210   57.9100 C.3   302  HEM302      0.0000
     41  CGD       19.9470   26.6310   57.2400 C.2   302  HEM302      0.0000
     42  O1D       19.9940   26.7380   55.9870 O.co2 302  HEM302      0.0000
     43  O2D       18.9660   26.9940   57.9630 O.co2 302  HEM302      0.0000
@<TRIPOS>BOND
     1    15    14   ar
     2    16    14   ar
     3    14    13    1
     4    42    41   ar
     5    13    12    1
     6    12     8    1
     7    41    40    1
     8    41    43   ar
     9    40    39    1
    10    11     9    1
    11     8     9   ar
    12     8     7   ar
    13    39    36    1
    14     9    10   ar
    15     2     7    2
    16     2    37    1
    17     7     6   ar
    18    36    37    1
    19    36    35    2
    20    37    33    2
    21    10     6   ar
    22    10     3    2
    23     6     1    1
    24    35    38    1
    25    35    34    1
    26     3    18    1
    27    33    34    1
    28    33     1    1
    29    34     5    2
    30     1    17    1
    31     1    25    1
    32    18    17    2
    33    18    19    1
    34    22    19    1
    35    17    21    1
    36     5    29    1
    37    19    20    2
    38    25    29   ar
    39    25    26   ar
    40    29    28   ar
    41    21    20    1
    42    21     4    2
    43    20    23    1
    44    26     4    1
    45    26    27   ar
    46    28    27   ar
    47    28    31    1
    48    23    24    2
    49    27    30    1
    50    31    32    1
