@<TRIPOS>MOLECULE
1np4_HEM_A_1.pdb
 43 50 0 0 0
SMALL
GASTEIGER

@<TRIPOS>ATOM
      1 FE         11.0980   20.2260   36.7530 Fe    185  HEM185      0.0000
      2  CHA       11.5800   23.2640   35.1820 C.2   185  HEM185      0.0000
      3  CHB        7.7020   20.5380   36.2890 C.2   185  HEM185      0.0000
      4  CHC       10.6380   17.4810   38.6970 C.2   185  HEM185      0.0000
      5  CHD       14.4760   19.6780   36.7280 C.2   185  HEM185      0.0000
      6  NA         9.9160   21.6130   35.9730 N.ar  185  HEM185      0.0000
      7  C1A       10.2720   22.8600   35.4450 C.ar  185  HEM185      0.0000
      8  C2A        9.0860   23.6430   35.0690 C.ar  185  HEM185      0.0000
      9  C3A        8.0030   22.8540   35.3470 C.ar  185  HEM185      0.0000
     10  C4A        8.5130   21.5930   35.8550 C.ar  185  HEM185      0.0000
     11  CMA        6.5440   23.2360   35.1890 C.3   185  HEM185      0.0000
     12  CAA        9.0960   25.0730   34.5020 C.3   185  HEM185      0.0000
     13  CBA        8.9740   26.0630   35.6530 C.3   185  HEM185      0.0000
     14  CGA        8.9980   27.5150   35.2060 C.2   185  HEM185      0.0000
     15  O1A        9.7140   27.8330   34.2330 O.co2 185  HEM185      0.0000
     16  O2A        8.2970   28.3400   35.8330 O.co2 185  HEM185      0.0000
     17  NB         9.5220   19.2290   37.3630 N.2   185  HEM185      0.0000
     18  C1B        8.1820   19.4380   37.0140 C.2   185  HEM185      0.0000
     19  C2B        7.3390   18.4290   37.6110 C.2   185  HEM185      0.0000
     20  C3B        8.1430   17.5910   38.3310 C.2   185  HEM185      0.0000
     21  C4B        9.5030   18.1090   38.1950 C.2   185  HEM185      0.0000
     22  CMB        5.8230   18.3280   37.4640 C.3   185  HEM185      0.0000
     23  CAB        7.7330   16.3860   38.8730 C.2   185  HEM185      0.0000
     24  CBB        7.9500   15.9990   40.1620 C.2   185  HEM185      0.0000
     25  NC        12.2780   18.8800   37.5210 N.ar  185  HEM185      0.0000
     26  C1C       11.9320   17.8340   38.3640 C.ar  185  HEM185      0.0000
     27  C2C       13.1040   17.0500   38.7550 C.ar  185  HEM185      0.0000
     28  C3C       14.1440   17.5540   38.0560 C.ar  185  HEM185      0.0000
     29  C4C       13.6610   18.7490   37.3680 C.ar  185  HEM185      0.0000
     30  CMC       13.1750   15.9170   39.7880 C.3   185  HEM185      0.0000
     31  CAC       15.3110   16.8660   37.8240 C.2   185  HEM185      0.0000
     32  CBC       16.4810   17.2500   38.4070 C.2   185  HEM185      0.0000
     33  ND        12.6580   21.2310   36.0870 N.2   185  HEM185      0.0000
     34  C1D       13.9990   20.8410   36.1360 C.2   185  HEM185      0.0000
     35  C2D       14.8350   21.8100   35.4780 C.2   185  HEM185      0.0000
     36  C3D       14.0380   22.8150   35.0740 C.2   185  HEM185      0.0000
     37  C4D       12.6860   22.4720   35.4490 C.2   185  HEM185      0.0000
     38  CMD       16.3230   21.6820   35.1980 C.3   185  HEM185      0.0000
     39  CAD       14.4980   24.0670   34.3560 C.3   185  HEM185      0.0000
     40  CBD       14.3600   23.9170   32.8530 C.3   185  HEM185      0.0000
     41  CGD       14.5270   25.2350   32.1240 C.2   185  HEM185      0.0000
     42  O1D       15.3840   25.3040   31.2200 O.co2 185  HEM185      0.0000
     43  O2D       13.8040   26.2000   32.4520 O.co2 185  HEM185      0.0000
@<TRIPOS>BOND
     1    42    41   ar
     2    41    43   ar
     3    41    40    1
     4    40    39    1
     5    15    14   ar
     6    39    36    1
     7    12     8    1
     8    12    13    1
     9     8     9   ar
    10     8     7   ar
    11    36    37    1
    12    36    35    2
    13     2     7    2
    14     2    37    1
    15    11     9    1
    16    38    35    1
    17    14    13    1
    18    14    16   ar
    19     9    10   ar
    20     7     6   ar
    21    37    33    2
    22    35    34    1
    23    10     6   ar
    24    10     3    2
    25     6     1    1
    26    33    34    1
    27    33     1    1
    28    34     5    2
    29     3    18    1
    30     5    29    1
    31     1    17    1
    32     1    25    1
    33    18    17    2
    34    18    19    1
    35    17    21    1
    36    29    25   ar
    37    29    28   ar
    38    22    19    1
    39    25    26   ar
    40    19    20    2
    41    31    28    1
    42    31    32    2
    43    28    27   ar
    44    21    20    1
    45    21     4    2
    46    20    23    1
    47    26     4    1
    48    26    27   ar
    49    27    30    1
    50    23    24    2
