@<TRIPOS>MOLECULE
1npa_3NH_A_1.pdb
 46 51 0 0 0
SMALL
GASTEIGER

@<TRIPOS>ATOM
      1  O2         8.2490   28.8630    3.7620 O.2   100  3NH100     -0.2228
      2  C1         7.8180   27.9180    4.3650 C.2   100  3NH100      0.4410
      3  O1         8.5760   27.2840    5.2550 O.3   100  3NH100     -0.4355
      4  C20        8.1890   26.1200    6.0240 C.3   100  3NH100      0.1795
      5  C22        7.4440   26.6540    7.2600 C.3   100  3NH100      0.0700
      6  C23        8.6370   27.1610    8.0100 C.ar  100  3NH100     -0.0224
      7  C24        8.6320   28.1110    9.0310 C.ar  100  3NH100     -0.0045
      8  C25        9.8220   28.3700    9.6880 C.ar  100  3NH100     -0.0003
      9  C26       11.0070   27.7100    9.3180 C.ar  100  3NH100     -0.0003
     10  C27       11.0110   26.7750    8.2760 C.ar  100  3NH100     -0.0044
     11  C28        9.8170   26.5070    7.6230 C.ar  100  3NH100     -0.0220
     12  C19        9.5250   25.5000    6.5350 C.3   100  3NH100      0.0751
     13  C35       10.5560   25.2870    5.4780 C.3   100  3NH100      0.1078
     14  C17       10.9040   23.9890    4.9990 C.2   100  3NH100      0.1764
     15  O18       10.5420   22.9290    5.4510 O.2   100  3NH100     -0.2937
     16  C09       11.9120   24.1240    3.8330 C.3   100  3NH100      0.1419
     17  N29       12.1730   25.5640    3.8210 N.2   100  3NH100     -0.2695
     18  C30       11.2700   26.1570    4.7970 C.2   100  3NH100      0.0746
     19  C10       11.2700   23.5450    2.5540 C.3   100  3NH100      0.0559
     20  C11        9.8450   24.0490    2.3930 C.ar  100  3NH100     -0.0199
     21  C12        9.6550   25.2680    1.7570 C.ar  100  3NH100     -0.0042
     22  C13        8.4140   25.7910    1.5750 C.ar  100  3NH100     -0.0003
     23  C14        7.3390   25.1140    2.0520 C.ar  100  3NH100     -0.0000
     24  C15        7.5240   23.8880    2.6860 C.ar  100  3NH100     -0.0003
     25  C16        8.7640   23.3480    2.8700 C.ar  100  3NH100     -0.0042
     26  C08       13.2080   23.3510    4.2340 C.3   100  3NH100      0.0646
     27  C06       13.9690   24.0870    5.4140 C.3   100  3NH100      0.1745
     28  O07       14.9650   24.8220    4.6790 O.3   100  3NH100     -0.2212
     29  C05       14.6830   23.1010    6.3600 C.3   100  3NH100      0.1333
     30  NP4       15.5800   22.1280    5.6740 N.am  100  3NH100     -0.1675
     31  C02       15.2890   20.8480    5.2260 C.2   100  3NH100      0.4211
     32  O03       14.2150   20.3330    5.1510 O.2   100  3NH100     -0.2246
     33  O01       16.3590   20.2300    4.8580 O.3   100  3NH100     -0.4346
     34  C44       16.3970   19.1880    3.9240 C.3   100  3NH100      0.2024
     35  C45       17.5580   18.2690    3.8740 C.3   100  3NH100      0.1856
     36  O46       17.8440   18.4280    2.5150 O.3   100  3NH100     -0.3498
     37  C47       16.6140   18.4100    1.7530 C.3   100  3NH100      0.1461
     38  C48       15.5140   18.8350    2.7580 C.3   100  3NH100      0.0784
     39  C36       15.4810   23.7500    7.4900 C.3   100  3NH100      0.0507
     40  C37       16.0460   22.6460    8.4050 C.ar  100  3NH100     -0.0204
     41  C38       15.1370   21.8960    9.1690 C.ar  100  3NH100     -0.0042
     42  C39       15.5790   20.7920    9.9160 C.ar  100  3NH100     -0.0003
     43  C40       16.9330   20.4340    9.9640 C.ar  100  3NH100     -0.0000
     44  C41       17.8570   21.2140    9.2590 C.ar  100  3NH100     -0.0003
     45  C42       17.4120   22.3100    8.4810 C.ar  100  3NH100     -0.0042
     46  N1         6.5480   27.5570    4.3160 N.am  100  3NH100     -0.0475
@<TRIPOS>BOND
     1    22    21   ar
     2    22    23   ar
     3    37    36    1
     4    37    38    1
     5    21    20   ar
     6    23    24   ar
     7    20    19    1
     8    20    25   ar
     9    36    35    1
    10    19    16    1
    11    24    25   ar
    12    38    34    1
    13     1     2    2
    14    17    16    1
    15    17    18    2
    16    16    26    1
    17    16    14    1
    18    35    34    1
    19    34    33    1
    20    26    27    1
    21    46     2   am
    22     2     3    1
    23    28    27    1
    24    18    13    1
    25    33    31    1
    26    14    15    2
    27    14    13    1
    28    32    31    2
    29    31    30   am
    30     3     4    1
    31    27    29    1
    32    13    12    1
    33    30    29    1
    34     4    12    1
    35     4     5    1
    36    29    39    1
    37    12    11    1
    38     5     6    1
    39    39    40    1
    40    11     6   ar
    41    11    10   ar
    42     6     7   ar
    43    10     9   ar
    44    40    45   ar
    45    40    41   ar
    46    45    44   ar
    47     7     8   ar
    48    41    42   ar
    49    44    43   ar
    50     9     8   ar
    51    42    43   ar
