@<TRIPOS>MOLECULE
1npd_NAD_A_1.pdb
 44 48 0 0 0
SMALL
GASTEIGER

@<TRIPOS>ATOM
      1  PA       -12.4110  -31.8820  -12.6470 P.3   300  NAD300      0.2189
      2  O1A      -11.2170  -32.5230  -13.1890 O.3   300  NAD300     -0.4371
      3  O2A      -13.6710  -32.2260  -13.2890 O.2   300  NAD300     -0.5170
      4  O5B      -12.1900  -30.3070  -12.6460 O.3   300  NAD300     -0.3112
      5  C5B      -10.9550  -29.7110  -12.2200 C.3   300  NAD300      0.1813
      6  C4B      -11.2850  -28.2480  -12.2270 C.3   300  NAD300      0.1821
      7  O4B      -10.2880  -27.5640  -11.5470 O.3   300  NAD300     -0.3135
      8  C3B      -11.3910  -27.6060  -13.6180 C.3   300  NAD300      0.2184
      9  O3B      -12.5270  -26.7150  -13.7690 O.3   300  NAD300     -0.2174
     10  C2B      -10.0860  -26.8860  -13.8140 C.3   300  NAD300      0.2570
     11  O2B      -10.2310  -25.7530  -14.6840 O.3   300  NAD300     -0.2130
     12  C1B       -9.7600  -26.5460  -12.4160 C.3   300  NAD300      0.3186
     13  N9A       -8.3310  -26.4000  -12.1520 N.pl3 300  NAD300     -0.1439
     14  C8A       -7.3800  -27.3770  -12.0250 C.3   300  NAD300      0.3377
     15  N7A       -6.1720  -26.8400  -11.7630 N.2   300  NAD300     -0.2095
     16  C5A       -6.4360  -25.5310  -11.7380 C.2   300  NAD300      0.2526
     17  C6A       -5.5000  -24.5280  -11.4970 C.2   300  NAD300      0.4393
     18  N6A       -4.2160  -24.8140  -11.2540 N.pl3 300  NAD300      0.2180
     19  N1A       -6.0040  -23.2610  -11.5240 N.2   300  NAD300      0.0021
     20  C2A       -7.3000  -22.9220  -11.7630 C.3   300  NAD300      0.5254
     21  N3A       -8.1840  -23.9000  -11.9910 N.2   300  NAD300     -0.0055
     22  C4A       -7.7690  -25.2100  -11.9820 C.2   300  NAD300      0.3518
     23  O3       -12.5650  -32.1170  -11.0670 O.3   300  NAD300     -0.2703
     24  PN       -13.8240  -32.2690  -10.0830 P.3   300  NAD300      0.2189
     25  O1N      -14.4280  -33.6070  -10.2190 O.3   300  NAD300     -0.4371
     26  O2N      -14.7470  -31.1090  -10.2320 O.2   300  NAD300     -0.5170
     27  O5D      -13.1970  -32.2230   -8.6310 O.3   300  NAD300     -0.3112
     28  C5D      -12.6470  -30.9710   -8.2000 C.3   300  NAD300      0.1813
     29  C4D      -12.1580  -31.0680   -6.7750 C.3   300  NAD300      0.1799
     30  O4D      -13.2770  -31.1930   -5.9160 O.3   300  NAD300     -0.3327
     31  C3D      -11.2800  -32.2580   -6.5170 C.3   300  NAD300      0.2158
     32  O3D      -10.1640  -31.7900   -5.7820 O.3   300  NAD300     -0.2175
     33  C2D      -12.1390  -33.2380   -5.7240 C.3   300  NAD300      0.2309
     34  O2D      -11.3840  -33.9800   -4.7490 O.3   300  NAD300     -0.2158
     35  C1D      -13.1920  -32.3770   -5.1160 C.3   300  NAD300      0.2263
     36  N1N      -14.5150  -33.0410   -5.0230 N.pl3 300  NAD300     -0.2787
     37  C2N      -15.1380  -33.1540   -3.7500 C.3   300  NAD300      0.1244
     38  C3N      -16.3940  -33.7790   -3.6270 C.2   300  NAD300      0.0544
     39  C7N      -17.1470  -33.9520   -2.3000 C.2   300  NAD300      0.2818
     40  O7N      -17.7820  -34.9680   -2.0650 O.2   300  NAD300     -0.2670
     41  N7N      -17.0790  -32.9660   -1.4110 N.am  300  NAD300     -0.0839
     42  C4N      -16.9850  -34.2760   -4.8170 C.2   300  NAD300      0.0033
     43  C5N      -16.3900  -34.1770   -6.0920 C.2   300  NAD300      0.0157
     44  C6N      -15.1400  -33.5550   -6.2140 C.2   300  NAD300      0.0633
@<TRIPOS>BOND
     1    11    10    1
     2    10     8    1
     3    10    12    1
     4     9     8    1
     5     8     6    1
     6     3     1    2
     7     2     1    1
     8     1     4    1
     9     1    23    1
    10     4     5    1
    11    12    13    1
    12    12     7    1
    13     6     5    1
    14     6     7    1
    15    13    14    1
    16    13    22    1
    17    14    15    1
    18    21    22    2
    19    21    20    1
    20    22    16    1
    21    15    16    2
    22    20    19    1
    23    16    17    1
    24    19    17    2
    25    17    18    1
    26    23    24    1
    27    26    24    2
    28    25    24    1
    29    24    27    1
    30    27    28    1
    31    28    29    1
    32    29    31    1
    33    29    30    1
    34    31    32    1
    35    31    33    1
    36    44    43    2
    37    44    36    1
    38    43    42    1
    39    30    35    1
    40    33    35    1
    41    33    34    1
    42    35    36    1
    43    36    37    1
    44    42    38    2
    45    37    38    1
    46    38    39    1
    47    39    40    2
    48    39    41   am
