@<TRIPOS>MOLECULE
1npf_HEM_A_1.pdb
 43 50 0 0 0
SMALL
GASTEIGER

@<TRIPOS>ATOM
      1 FE         17.0260   28.8880   15.0070 Fe    154  HEM154      0.0000
      2  CHA       17.1320   31.9610   16.2080 C.2   154  HEM154      0.0000
      3  CHB       13.6350   28.8660   15.3270 C.2   154  HEM154      0.0000
      4  CHC       16.8730   25.6810   13.8830 C.2   154  HEM154      0.0000
      5  CHD       20.3720   28.7100   14.8640 C.2   154  HEM154      0.0000
      6  NA        15.6340   30.1670   15.6760 N.2   154  HEM154      0.0000
      7  C1A       15.8380   31.4480   16.1210 C.2   154  HEM154      0.0000
      8  C2A       14.5880   32.0990   16.4430 C.2   154  HEM154      0.0000
      9  C3A       13.5810   31.2030   16.2340 C.2   154  HEM154      0.0000
     10  C4A       14.2690   30.0160   15.7440 C.2   154  HEM154      0.0000
     11  CMA       12.0810   31.3400   16.3140 C.3   154  HEM154      0.0000
     12  CAA       14.5330   33.6530   16.9280 C.3   154  HEM154      0.0000
     13  CBA       13.9300   34.5020   15.6670 C.3   154  HEM154      0.0000
     14  CGA       14.9600   34.5820   14.2970 C.2   154  HEM154      0.0000
     15  O1A       16.1920   34.8760   14.7720 O.co2 154  HEM154      0.0000
     16  O2A       14.5260   34.0360   13.3380 O.co2 154  HEM154      0.0000
     17  NB        15.5680   27.5780   14.6250 N.ar  154  HEM154      0.0000
     18  C1B       14.2040   27.7140   14.8020 C.ar  154  HEM154      0.0000
     19  C2B       13.4180   26.5610   14.4090 C.ar  154  HEM154      0.0000
     20  C3B       14.3330   25.6480   13.9810 C.ar  154  HEM154      0.0000
     21  C4B       15.6430   26.2820   14.1340 C.ar  154  HEM154      0.0000
     22  CMB       11.9070   26.4540   14.4990 C.3   154  HEM154      0.0000
     23  CAB       14.0920   24.2480   13.4540 C.3   154  HEM154      0.0000
     24  CBB       13.2370   23.1920   14.2040 C.3   154  HEM154      0.0000
     25  NC        18.3670   27.4760   14.4880 N.2   154  HEM154      0.0000
     26  C1C       18.1420   26.1670   14.0370 C.2   154  HEM154      0.0000
     27  C2C       19.3780   25.4420   13.7930 C.2   154  HEM154      0.0000
     28  C3C       20.3700   26.3070   14.0840 C.2   154  HEM154      0.0000
     29  C4C       19.7310   27.5410   14.4850 C.2   154  HEM154      0.0000
     30  CMC       19.4370   24.0090   13.2950 C.3   154  HEM154      0.0000
     31  CAC       21.8990   26.1690   13.9940 C.2   154  HEM154      0.0000
     32  CBC       22.6380   25.2240   14.5330 C.2   154  HEM154      0.0000
     33  ND        18.5000   30.1410   15.4290 N.ar  154  HEM154      0.0000
     34  C1D       19.8620   29.9290   15.3100 C.ar  154  HEM154      0.0000
     35  C2D       20.6450   31.0730   15.7630 C.ar  154  HEM154      0.0000
     36  C3D       19.7190   31.9740   16.1790 C.ar  154  HEM154      0.0000
     37  C4D       18.3870   31.3930   15.9350 C.ar  154  HEM154      0.0000
     38  CMD       22.1410   31.1460   15.8070 C.3   154  HEM154      0.0000
     39  CAD       19.9450   33.3080   16.8430 C.3   154  HEM154      0.0000
     40  CBD       20.0700   33.0950   18.4140 C.3   154  HEM154      0.0000
     41  CGD       20.4060   34.2480   19.1550 C.2   154  HEM154      0.0000
     42  O1D       19.5920   34.7160   20.0070 O.co2 154  HEM154      0.0000
     43  O2D       21.5490   34.7680   19.0770 O.co2 154  HEM154      0.0000
@<TRIPOS>BOND
     1    30    27    1
     2    16    14   ar
     3    23    20    1
     4    23    24    1
     5    27    26    1
     6    27    28    2
     7     4    26    2
     8     4    21    1
     9    20    21   ar
    10    20    19   ar
    11    31    28    1
    12    31    32    2
    13    26    25    1
    14    28    29    1
    15    21    17   ar
    16    14    15   ar
    17    14    13    1
    18    19    22    1
    19    19    18   ar
    20    29    25    2
    21    29     5    1
    22    25     1    1
    23    17    18   ar
    24    17     1    1
    25    18     3    1
    26     5    34    2
    27     1    33    1
    28     1     6    1
    29    34    33   ar
    30    34    35   ar
    31     3    10    2
    32    33    37   ar
    33    13    12    1
    34     6    10    1
    35     6     7    2
    36    10     9    1
    37    35    38    1
    38    35    36   ar
    39    37    36   ar
    40    37     2    2
    41     7     2    1
    42     7     8    1
    43    36    39    1
    44     9    11    1
    45     9     8    2
    46     8    12    1
    47    39    40    1
    48    40    41    1
    49    43    41   ar
    50    41    42   ar
