@<TRIPOS>MOLECULE
1npg_HEM_A_1.pdb
 43 50 0 0 0
SMALL
GASTEIGER

@<TRIPOS>ATOM
      1 FE         16.7910   28.5850   14.9400 Fe    154  HEM154      0.0000
      2  CHA       16.9110   31.7180   16.1700 C.2   154  HEM154      0.0000
      3  CHB       13.4360   28.5740   15.2720 C.2   154  HEM154      0.0000
      4  CHC       16.6040   25.4680   13.5450 C.2   154  HEM154      0.0000
      5  CHD       20.1190   28.4680   14.7040 C.2   154  HEM154      0.0000
      6  NA        15.4410   29.8930   15.6290 N.2   154  HEM154      0.0000
      7  C1A       15.6290   31.1820   16.0750 C.2   154  HEM154      0.0000
      8  C2A       14.3510   31.8080   16.3710 C.2   154  HEM154      0.0000
      9  C3A       13.3630   30.8910   16.1760 C.2   154  HEM154      0.0000
     10  C4A       14.0820   29.7200   15.6980 C.2   154  HEM154      0.0000
     11  CMA       11.8650   31.0320   16.2580 C.3   154  HEM154      0.0000
     12  CAA       14.4370   33.3270   16.8250 C.3   154  HEM154      0.0000
     13  CBA       13.9470   34.2450   15.6580 C.3   154  HEM154      0.0000
     14  CGA       14.7750   34.3090   14.5100 C.2   154  HEM154      0.0000
     15  O1A       15.9870   34.7220   14.7120 O.co2 154  HEM154      0.0000
     16  O2A       14.4190   33.9090   13.3840 O.co2 154  HEM154      0.0000
     17  NB        15.3300   27.3000   14.4970 N.ar  154  HEM154      0.0000
     18  C1B       13.9720   27.4300   14.7050 C.ar  154  HEM154      0.0000
     19  C2B       13.1660   26.2970   14.2860 C.ar  154  HEM154      0.0000
     20  C3B       14.0760   25.3940   13.8150 C.ar  154  HEM154      0.0000
     21  C4B       15.3820   26.0400   13.9010 C.ar  154  HEM154      0.0000
     22  CMB       11.6520   26.2070   14.4050 C.3   154  HEM154      0.0000
     23  CAB       13.8480   23.9980   13.2890 C.3   154  HEM154      0.0000
     24  CBB       13.0610   22.9540   14.1250 C.3   154  HEM154      0.0000
     25  NC        18.1250   27.2330   14.2470 N.2   154  HEM154      0.0000
     26  C1C       17.8840   25.9500   13.6920 C.2   154  HEM154      0.0000
     27  C2C       19.1340   25.2310   13.5050 C.2   154  HEM154      0.0000
     28  C3C       20.1290   26.0730   13.8410 C.2   154  HEM154      0.0000
     29  C4C       19.5050   27.3140   14.2500 C.2   154  HEM154      0.0000
     30  CMC       19.2090   23.7800   13.0680 C.3   154  HEM154      0.0000
     31  CAC       21.6080   25.6730   13.7540 C.2   154  HEM154      0.0000
     32  CBC       22.5590   25.8450   14.6460 C.2   154  HEM154      0.0000
     33  ND        18.2490   29.8650   15.3610 N.ar  154  HEM154      0.0000
     34  C1D       19.6130   29.6690   15.1950 C.ar  154  HEM154      0.0000
     35  C2D       20.4000   30.8130   15.6450 C.ar  154  HEM154      0.0000
     36  C3D       19.4930   31.7010   16.1150 C.ar  154  HEM154      0.0000
     37  C4D       18.1530   31.1180   15.8910 C.ar  154  HEM154      0.0000
     38  CMD       21.8940   30.9330   15.6130 C.3   154  HEM154      0.0000
     39  CAD       19.7330   33.0430   16.7690 C.3   154  HEM154      0.0000
     40  CBD       19.7540   32.9560   18.3540 C.3   154  HEM154      0.0000
     41  CGD       20.0220   34.1330   19.0870 C.2   154  HEM154      0.0000
     42  O1D       19.1410   34.5940   19.8750 O.co2 154  HEM154      0.0000
     43  O2D       21.1400   34.7140   19.0610 O.co2 154  HEM154      0.0000
@<TRIPOS>BOND
     1    30    27    1
     2    23    20    1
     3    23    24    1
     4    16    14   ar
     5    27    26    1
     6    27    28    2
     7     4    26    2
     8     4    21    1
     9    26    25    1
    10    31    28    1
    11    31    32    2
    12    20    21   ar
    13    20    19   ar
    14    28    29    1
    15    21    17   ar
    16    25    29    2
    17    25     1    1
    18    29     5    1
    19    19    22    1
    20    19    18   ar
    21    17    18   ar
    22    17     1    1
    23    14    15   ar
    24    14    13    1
    25     5    34    2
    26    18     3    1
    27     1    33    1
    28     1     6    1
    29    34    33   ar
    30    34    35   ar
    31     3    10    2
    32    33    37   ar
    33    38    35    1
    34     6    10    1
    35     6     7    2
    36    35    36   ar
    37    13    12    1
    38    10     9    1
    39    37    36   ar
    40    37     2    2
    41     7     2    1
    42     7     8    1
    43    36    39    1
    44     9    11    1
    45     9     8    2
    46     8    12    1
    47    39    40    1
    48    40    41    1
    49    43    41   ar
    50    41    42   ar
