@<TRIPOS>MOLECULE
1npl_MAN_A_1.pdb
 11 11 0 0 0
SMALL
GASTEIGER

@<TRIPOS>ATOM
      1  C1        28.3460   18.1910   28.4700 C.3   111  MAN111      0.1777
      2  C2        29.3830   17.0700   28.1640 C.3   111  MAN111      0.2141
      3  C3        30.5930   17.7300   27.4550 C.3   111  MAN111      0.2173
      4  C4        30.1670   18.5540   26.2800 C.3   111  MAN111      0.2142
      5  C5        29.1320   19.6300   26.7410 C.3   111  MAN111      0.1810
      6  C6        28.7640   20.4470   25.5230 C.3   111  MAN111      0.2141
      7  O2        28.8610   16.0310   27.3560 O.3   111  MAN111     -0.2176
      8  O3        31.4400   16.6660   27.0410 O.3   111  MAN111     -0.2175
      9  O4        31.2200   19.2300   25.6070 O.3   111  MAN111     -0.2176
     10  O5        28.0120   19.0020   27.3910 O.3   111  MAN111     -0.3481
     11  O6        27.6250   21.2080   25.6750 O.3   111  MAN111     -0.2176
@<TRIPOS>BOND
     1     6    11    1
     2     6     5    1
     3     9     4    1
     4     4     5    1
     5     4     3    1
     6     5    10    1
     7     8     3    1
     8     7     2    1
     9    10     1    1
    10     3     2    1
    11     2     1    1
