@<TRIPOS>MOLECULE
1npt_NAD_O_1.pdb
 44 48 0 0 0
SMALL
GASTEIGER

@<TRIPOS>ATOM
      1  PA        61.4990   50.4690   46.1060 P.3   1336  NAD1336     0.2189
      2  O1A       60.8910   49.9190   44.8770 O.2   1336  NAD1336    -0.5170
      3  O2A       61.0410   51.7690   46.6480 O.3   1336  NAD1336    -0.4371
      4  O5B       63.0980   50.5840   46.0050 O.3   1336  NAD1336    -0.3112
      5  C5B       63.9040   49.6510   45.2760 C.3   1336  NAD1336     0.1813
      6  C4B       65.0570   50.4670   44.6980 C.3   1336  NAD1336     0.1821
      7  O4B       66.0780   49.5780   44.1920 O.3   1336  NAD1336    -0.3135
      8  C3B       64.6190   51.3650   43.5420 C.3   1336  NAD1336     0.2184
      9  O3B       65.1140   52.7010   43.7100 O.3   1336  NAD1336    -0.2174
     10  C2B       65.1550   50.6450   42.3090 C.3   1336  NAD1336     0.2570
     11  O2B       65.5000   51.5450   41.2560 O.3   1336  NAD1336    -0.2130
     12  C1B       66.3890   49.9270   42.8380 C.3   1336  NAD1336     0.3186
     13  N9A       66.8630   48.7480   42.0640 N.pl3 1336  NAD1336    -0.1439
     14  C8A       66.1360   47.7280   41.5670 C.3   1336  NAD1336     0.3377
     15  N7A       66.9070   46.8520   40.9230 N.2   1336  NAD1336    -0.2095
     16  C5A       68.1300   47.3340   41.0580 C.2   1336  NAD1336     0.2526
     17  C6A       69.3370   46.6940   40.7100 C.2   1336  NAD1336     0.4393
     18  N6A       69.3810   45.6140   39.9350 N.pl3 1336  NAD1336     0.2180
     19  N1A       70.4950   47.2960   41.1030 N.2   1336  NAD1336     0.0021
     20  C2A       70.5170   48.4540   41.7910 C.3   1336  NAD1336     0.5254
     21  N3A       69.3550   49.0500   42.1200 N.2   1336  NAD1336    -0.0055
     22  C4A       68.1460   48.5160   41.7790 C.2   1336  NAD1336     0.3518
     23  O3        61.3230   49.3480   47.2460 O.3   1336  NAD1336    -0.2703
     24  PN        61.3510   49.4080   48.8420 P.3   1336  NAD1336     0.2189
     25  O1N       59.9660   49.5620   49.3320 O.3   1336  NAD1336    -0.4371
     26  O2N       62.4120   50.3450   49.2790 O.2   1336  NAD1336    -0.5170
     27  O5D       61.8180   47.9220   49.1650 O.3   1336  NAD1336    -0.3112
     28  C5D       63.1340   47.3490   49.0170 C.3   1336  NAD1336     0.1813
     29  C4D       63.2540   46.0830   49.8810 C.3   1336  NAD1336     0.1799
     30  O4D       62.9600   46.3960   51.2650 O.3   1336  NAD1336    -0.3327
     31  C3D       62.2760   44.9610   49.5150 C.3   1336  NAD1336     0.2158
     32  O3D       62.9390   43.7000   49.5980 O.3   1336  NAD1336    -0.2175
     33  C2D       61.1040   45.1050   50.4810 C.3   1336  NAD1336     0.2309
     34  O2D       60.3270   43.9310   50.6810 O.3   1336  NAD1336    -0.2158
     35  C1D       61.8070   45.6350   51.7280 C.3   1336  NAD1336     0.2263
     36  N1N       60.9990   46.3990   52.7240 N.pl3 1336  NAD1336    -0.2787
     37  C2N       60.0480   47.4100   52.3660 C.3   1336  NAD1336     0.1244
     38  C3N       59.3530   48.1030   53.3730 C.2   1336  NAD1336     0.0544
     39  C7N       58.3590   49.2200   53.0340 C.2   1336  NAD1336     0.2818
     40  O7N       57.4370   49.4780   53.8100 O.2   1336  NAD1336    -0.2670
     41  N7N       58.5010   49.7910   51.8350 N.am  1336  NAD1336    -0.0839
     42  C4N       59.5970   47.7580   54.7200 C.2   1336  NAD1336     0.0033
     43  C5N       60.5140   46.7600   55.0910 C.2   1336  NAD1336     0.0157
     44  C6N       61.2350   46.0880   54.0960 C.2   1336  NAD1336     0.0633
@<TRIPOS>BOND
     1    18    17    1
     2    17    16    1
     3    17    19    2
     4    15    16    2
     5    15    14    1
     6    16    22    1
     7    19    20    1
     8    11    10    1
     9    14    13    1
    10    22    13    1
    11    22    21    2
    12    20    21    1
    13    13    12    1
    14    10    12    1
    15    10     8    1
    16    12     7    1
    17     8     9    1
    18     8     6    1
    19     7     6    1
    20     6     5    1
    21     2     1    2
    22     5     4    1
    23     4     1    1
    24     1     3    1
    25     1    23    1
    26    23    24    1
    27    24    27    1
    28    24    26    2
    29    24    25    1
    30    28    27    1
    31    28    29    1
    32    31    32    1
    33    31    29    1
    34    31    33    1
    35    29    30    1
    36    33    34    1
    37    33    35    1
    38    30    35    1
    39    35    36    1
    40    41    39   am
    41    37    36    1
    42    37    38    1
    43    36    44    1
    44    39    38    1
    45    39    40    2
    46    38    42    2
    47    44    43    2
    48    42    43    1
