@<TRIPOS>MOLECULE
1npv_L27_A_1.pdb
 44 49 0 0 0
SMALL
GASTEIGER

@<TRIPOS>ATOM
      1  O01       15.9090   20.9070    4.7110 O.3   479  L27479     -0.4346
      2  C02       14.8520   21.5950    5.0890 C.2   479  L27479      0.4211
      3  O03       13.7730   21.1160    5.2840 O.2   479  L27479     -0.2246
      4  NP4       15.1310   22.9010    5.2760 N.am  479  L27479     -0.1675
      5  C05       14.2970   23.7400    6.0900 C.3   479  L27479      0.1333
      6  C06       13.7980   24.8410    5.1410 C.3   479  L27479      0.1743
      7  O07       14.7890   25.5340    4.6210 O.3   479  L27479     -0.2212
      8  C08       12.9360   24.2940    3.9960 C.3   479  L27479      0.0624
      9  C09       11.4780   24.8040    3.9980 C.3   479  L27479      0.1369
     10  C10       10.7410   24.3750    2.6810 C.3   479  L27479      0.0538
     11  C11        9.3350   24.9370    2.5090 C.ar  479  L27479     -0.0201
     12  C12        9.1760   26.1690    1.7420 C.ar  479  L27479     -0.0042
     13  C13        7.9320   26.9030    1.8440 C.ar  479  L27479     -0.0003
     14  C14        6.8660   26.3470    2.6870 C.ar  479  L27479     -0.0000
     15  C15        6.9570   25.0230    3.3110 C.ar  479  L27479     -0.0003
     16  C16        8.2160   24.3000    3.2220 C.ar  479  L27479     -0.0042
     17  C17       10.7280   24.3830    5.2970 C.2   479  L27479      0.1886
     18  O18       10.4930   23.2800    5.6900 O.2   479  L27479     -0.2899
     19  N29       11.5240   26.2810    4.1000 N.pl3 479  L27479     -0.2322
     20  C30       10.8990   26.6280    5.2480 C.2   479  L27479      0.0794
     21  C35       10.4310   25.6090    6.0020 C.2   479  L27479      0.0360
     22  C36       15.1830   24.2280    7.2390 C.3   479  L27479      0.0507
     23  C37       15.6950   23.1100    8.1230 C.ar  479  L27479     -0.0204
     24  C38       14.7630   22.3010    8.9180 C.ar  479  L27479     -0.0042
     25  C39       15.2840   21.1860    9.6830 C.ar  479  L27479     -0.0003
     26  C40       16.7190   20.9320    9.6390 C.ar  479  L27479     -0.0000
     27  C41       17.6600   21.7480    8.8870 C.ar  479  L27479     -0.0003
     28  C42       17.1320   22.8610    8.1290 C.ar  479  L27479     -0.0042
     29  C44       15.9810   19.4130    4.5540 C.3   479  L27479      0.2024
     30  C45       17.4180   18.9090    4.3920 C.3   479  L27479      0.1856
     31  O46       17.8460   19.3150    3.1010 O.3   479  L27479     -0.3498
     32  C47       16.6730   19.5170    2.3240 C.3   479  L27479      0.1461
     33  C48       15.5590   18.9260    3.1670 C.3   479  L27479      0.0784
     34  C49        8.4530   24.8610    7.4740 C.3   479  L27479      0.1467
     35  C50        9.7950   25.6010    7.4060 C.3   479  L27479      0.0746
     36  C51        9.5830   26.9620    7.9530 C.ar  479  L27479     -0.0054
     37  C52        8.3890   27.6650    7.5280 C.ar  479  L27479      0.0792
     38  C53        7.3770   26.8810    6.7750 C.1   479  L27479      0.1497
     39  N54        7.4450   25.6050    6.7910 N.2   479  L27479     -0.2018
     40  C55       10.5440   27.5400    8.8800 C.ar  479  L27479     -0.0032
     41  C56       10.2320   28.8580    9.3500 C.ar  479  L27479     -0.0003
     42  C57        9.0300   29.5690    8.9500 C.ar  479  L27479      0.0007
     43  C58        8.0980   28.9930    8.0100 C.ar  479  L27479      0.0113
     44  O59        6.4930   27.4570    6.1600 O.2   479  L27479     -0.2223
@<TRIPOS>BOND
     1    12    13   ar
     2    12    11   ar
     3    13    14   ar
     4    32    31    1
     5    32    33    1
     6    11    10    1
     7    11    16   ar
     8    10     9    1
     9    14    15   ar
    10    31    30    1
    11    33    29    1
    12    16    15   ar
    13     8     9    1
    14     8     6    1
    15     9    19    1
    16     9    17    1
    17    19    20    1
    18    30    29    1
    19    29     1    1
    20     7     6    1
    21     1     2    1
    22     2     4   am
    23     2     3    2
    24     6     5    1
    25    20    21    2
    26     4     5    1
    27    17    18    2
    28    17    21    1
    29    21    35    1
    30     5    22    1
    31    44    38    2
    32    38    39    2
    33    38    37    1
    34    39    34    1
    35    22    23    1
    36    35    34    1
    37    35    36    1
    38    37    36   ar
    39    37    43   ar
    40    36    40   ar
    41    43    42   ar
    42    23    28   ar
    43    23    24   ar
    44    28    27   ar
    45    40    41   ar
    46    27    26   ar
    47    24    25   ar
    48    42    41   ar
    49    26    25   ar
