@<TRIPOS>MOLECULE
1npw_LGZ_A_1.pdb
 46 51 0 0 0
SMALL
GASTEIGER

@<TRIPOS>ATOM
      1  O01       16.3590   20.2300    4.8580 O.3   479  LGZ479     -0.4346
      2  C02       15.2890   20.8480    5.2260 C.2   479  LGZ479      0.4211
      3  O03       14.2150   20.3330    5.1510 O.2   479  LGZ479     -0.2246
      4  NP4       15.5800   22.1280    5.6740 N.am  479  LGZ479     -0.1675
      5  C05       14.6830   23.1010    6.3600 C.3   479  LGZ479      0.1333
      6  C06       13.9690   24.0870    5.4140 C.3   479  LGZ479      0.1743
      7  O07       14.9650   24.8220    4.6790 O.3   479  LGZ479     -0.2212
      8  C08       13.2080   23.3510    4.2340 C.3   479  LGZ479      0.0624
      9  C09       11.9120   24.1240    3.8330 C.3   479  LGZ479      0.1369
     10  C10       11.2700   23.5450    2.5540 C.3   479  LGZ479      0.0538
     11  C11        9.8450   24.0490    2.3930 C.ar  479  LGZ479     -0.0201
     12  C12        9.6550   25.2680    1.7570 C.ar  479  LGZ479     -0.0042
     13  C13        8.4140   25.7910    1.5750 C.ar  479  LGZ479     -0.0003
     14  C14        7.3390   25.1140    2.0520 C.ar  479  LGZ479     -0.0000
     15  C15        7.5240   23.8880    2.6860 C.ar  479  LGZ479     -0.0003
     16  C16        8.7640   23.3480    2.8700 C.ar  479  LGZ479     -0.0042
     17  C17       10.9040   23.9890    4.9990 C.2   479  LGZ479      0.1887
     18  O18       10.5420   22.9290    5.4510 O.2   479  LGZ479     -0.2899
     19  C19        9.5250   25.5000    6.5350 C.3   479  LGZ479      0.0889
     20  C20        8.1890   26.1200    6.0240 C.3   479  LGZ479      0.1829
     21  O1         8.5760   27.2840    5.2550 O.3   479  LGZ479     -0.4352
     22  C22        7.4440   26.6540    7.2600 C.3   479  LGZ479      0.0704
     23  C23        8.6370   27.1610    8.0100 C.ar  479  LGZ479     -0.0221
     24  C24        8.6320   28.1110    9.0310 C.ar  479  LGZ479     -0.0044
     25  C25        9.8220   28.3700    9.6880 C.ar  479  LGZ479     -0.0003
     26  C26       11.0070   27.7100    9.3180 C.ar  479  LGZ479     -0.0003
     27  C27       11.0110   26.7750    8.2760 C.ar  479  LGZ479     -0.0041
     28  C28        9.8170   26.5070    7.6230 C.ar  479  LGZ479     -0.0186
     29  N29       12.1730   25.5640    3.8210 N.pl3 479  LGZ479     -0.2322
     30  C30       11.2700   26.1570    4.7970 C.2   479  LGZ479      0.0795
     31  C35       10.5560   25.2870    5.4780 C.2   479  LGZ479      0.0375
     32  C36       15.4810   23.7500    7.4900 C.3   479  LGZ479      0.0507
     33  C37       16.0460   22.6460    8.4050 C.ar  479  LGZ479     -0.0204
     34  C38       15.1370   21.8960    9.1690 C.ar  479  LGZ479     -0.0042
     35  C39       15.5790   20.7920    9.9160 C.ar  479  LGZ479     -0.0003
     36  C40       16.9330   20.4340    9.9640 C.ar  479  LGZ479     -0.0000
     37  C41       17.8570   21.2140    9.2590 C.ar  479  LGZ479     -0.0003
     38  C42       17.4120   22.3100    8.4810 C.ar  479  LGZ479     -0.0042
     39  C44       16.3970   19.1880    3.9240 C.3   479  LGZ479      0.2024
     40  C45       17.5580   18.2690    3.8740 C.3   479  LGZ479      0.1856
     41  O46       17.8440   18.4280    2.5150 O.3   479  LGZ479     -0.3498
     42  C47       16.6140   18.4100    1.7530 C.3   479  LGZ479      0.1461
     43  C48       15.5140   18.8350    2.7580 C.3   479  LGZ479      0.0784
     44  C1         7.8180   27.9180    4.3650 C.2   479  LGZ479      0.4410
     45  N1         6.5480   27.5570    4.3160 N.am  479  LGZ479     -0.0475
     46  O2         8.2490   28.8630    3.7620 O.2   479  LGZ479     -0.2228
@<TRIPOS>BOND
     1    13    12   ar
     2    13    14   ar
     3    42    41    1
     4    42    43    1
     5    12    11   ar
     6    14    15   ar
     7    11    10    1
     8    11    16   ar
     9    41    40    1
    10    10     9    1
    11    15    16   ar
    12    43    39    1
    13    46    44    2
    14    29     9    1
    15    29    30    1
    16     9     8    1
    17     9    17    1
    18    40    39    1
    19    39     1    1
    20     8     6    1
    21    45    44   am
    22    44    21    1
    23     7     6    1
    24    30    31    2
    25     1     2    1
    26    17    18    2
    27    17    31    1
    28     3     2    2
    29     2     4   am
    30    21    20    1
    31     6     5    1
    32    31    19    1
    33     4     5    1
    34    20    19    1
    35    20    22    1
    36     5    32    1
    37    19    28    1
    38    22    23    1
    39    32    33    1
    40    28    23   ar
    41    28    27   ar
    42    23    24   ar
    43    27    26   ar
    44    33    38   ar
    45    33    34   ar
    46    38    37   ar
    47    24    25   ar
    48    34    35   ar
    49    37    36   ar
    50    26    25   ar
    51    35    36   ar
