@<TRIPOS>MOLECULE
1npz_C1P_A_1.pdb
 37 39 0 0 0
SMALL
GASTEIGER

@<TRIPOS>ATOM
      1  N1       -16.4930   62.0140  -37.5710 N.am  468  C1P468     -0.1808
      2  C15      -16.6420   62.7380  -38.7250 C.2   468  C1P468      0.3238
      3  O16      -16.5370   62.1810  -39.8420 O.2   468  C1P468     -0.2508
      4  N9       -16.9200   64.0970  -38.7740 N.am  468  C1P468     -0.2577
      5  C14      -17.0790   64.7780  -40.1390 C.3   468  C1P468      0.1271
      6  C13      -18.2170   65.7750  -40.2120 C.3   468  C1P468      0.1637
      7  O12      -18.2550   66.6370  -38.9710 O.3   468  C1P468     -0.3501
      8  C11      -18.3040   65.8650  -37.7270 C.3   468  C1P468      0.1637
      9  C10      -17.0920   64.9570  -37.5810 C.3   468  C1P468      0.1271
     10  C2       -16.2230   60.5470  -37.6660 C.3   468  C1P468      0.1743
     11  C3       -17.4470   59.9310  -38.2680 C.2   468  C1P468      0.2612
     12  O4       -18.5540   60.2540  -37.8750 O.2   468  C1P468     -0.2715
     13  N28      -17.2290   59.0180  -39.2350 N.am  468  C1P468     -0.2057
     14  C19      -18.3090   58.3240  -39.9410 C.3   468  C1P468      0.0975
     15  C18      -18.2340   56.8300  -39.6600 C.3   468  C1P468      0.0474
     16  C17      -16.9430   56.1570  -40.2360 C.3   468  C1P468      0.1577
     17  S33      -17.4540   55.0100  -41.5650 S.O2  468  C1P468      0.0087
     18  O34      -18.3860   55.6760  -42.5810 O.2   468  C1P468     -0.1686
     19  O35      -18.0690   53.7060  -41.0800 O.2   468  C1P468     -0.1686
     20  C32      -16.0010   54.5810  -42.5120 C.ar  468  C1P468      0.1057
     21  C36      -16.0870   53.7960  -43.7000 C.ar  468  C1P468      0.0183
     22  C37      -14.8920   53.3950  -44.4000 C.ar  468  C1P468      0.0013
     23  C29      -13.6230   53.7940  -43.9470 C.ar  468  C1P468      0.0001
     24  C30      -13.5140   54.6010  -42.8170 C.ar  468  C1P468      0.0013
     25  C31      -14.6860   55.0130  -42.1070 C.ar  468  C1P468      0.0183
     26  C20      -18.1690   58.6900  -41.4480 C.3   468  C1P468      0.0264
     27  C21      -18.4830   60.1570  -41.7160 C.3   468  C1P468      0.0281
     28  C22      -18.3070   60.5880  -43.1490 C.ar  468  C1P468     -0.0221
     29  C23      -19.3920   60.5140  -44.0800 C.ar  468  C1P468     -0.0043
     30  C24      -19.2210   60.9160  -45.4440 C.ar  468  C1P468     -0.0003
     31  C25      -17.9640   61.3970  -45.8840 C.ar  468  C1P468     -0.0000
     32  C26      -16.8630   61.4840  -44.9610 C.ar  468  C1P468     -0.0003
     33  C27      -17.0330   61.0790  -43.5930 C.ar  468  C1P468     -0.0043
     34  C5       -16.0200   59.8570  -36.3220 C.3   468  C1P468      0.0312
     35  C6       -15.0320   60.4900  -35.3810 C.3   468  C1P468      0.0022
     36  C7       -13.8410   60.9920  -36.1610 C.3   468  C1P468      0.0001
     37  C8       -14.6910   59.6010  -34.2800 C.3   468  C1P468      0.0001
@<TRIPOS>BOND
     1    31    30   ar
     2    31    32   ar
     3    30    29   ar
     4    32    33   ar
     5    22    23   ar
     6    22    21   ar
     7    29    28   ar
     8    23    24   ar
     9    21    20   ar
    10    33    28   ar
    11    28    27    1
    12    24    25   ar
    13    18    17    2
    14    20    25   ar
    15    20    17    1
    16    27    26    1
    17    17    19    2
    18    17    16    1
    19    26    14    1
    20    16    15    1
    21     6     5    1
    22     6     7    1
    23     5     4    1
    24    14    15    1
    25    14    13    1
    26     3     2    2
    27    13    11   am
    28     7     8    1
    29     4     2   am
    30     4     9    1
    31     2     1   am
    32    11    12    2
    33    11    10    1
    34     8     9    1
    35    10     1    1
    36    10    34    1
    37    34    35    1
    38    36    35    1
    39    35    37    1
