@<TRIPOS>MOLECULE
1nq0_4HY_A_1.pdb
 21 22 0 0 0
SMALL
GASTEIGER

@<TRIPOS>ATOM
      1  C1        53.9720   16.3470  114.4140 C.ar  500  4HY500     -0.0099
      2  C2        54.5320   12.1600  117.3080 C.ar  500  4HY500      0.1460
      3  C3        54.3770   16.4890  115.8110 C.ar  500  4HY500      0.0051
      4  C4        55.0680   11.5400  118.4120 C.ar  500  4HY500      0.0465
      5  C5        54.8850   15.3690  116.5070 C.ar  500  4HY500      0.0647
      6  C6        54.3140   10.6790  119.1910 C.ar  500  4HY500      0.0720
      7  C7        55.0050   14.1230  115.8820 C.ar  500  4HY500      0.1558
      8  C8        52.9540   10.4180  118.8470 C.ar  500  4HY500      0.2012
      9  C9        54.6250   13.9980  114.5120 C.ar  500  4HY500      0.0647
     10  C10       52.3800   11.0570  117.7190 C.ar  500  4HY500      0.0456
     11  C11       54.0980   15.1420  113.7770 C.ar  500  4HY500      0.0051
     12  C12       53.1710   11.9330  116.9460 C.ar  500  4HY500      0.0408
     13  C13       53.3320   17.5050  113.7010 C.3   500  4HY500      0.1404
     14  C14       54.2890   18.4950  112.9510 C.2   500  4HY500      0.3692
     15  I1        55.5530   15.5570  118.5290 I     500  4HY500     -0.0393
     16  I2        55.1600    9.8120  120.8890 I     500  4HY500     -0.0391
     17  I3        54.9110   12.1250  113.5780 I     500  4HY500     -0.0393
     18  O3        55.4420   18.0910  112.6690 O.co2 500  4HY500     -0.2453
     19  O2        55.4110   12.9740  116.5570 O.3   500  4HY500     -0.4526
     20  O1        52.2230    9.4940  119.6040 O.3   500  4HY500     -0.2861
     21  O4        53.8180   19.6280  112.6840 O.co2 500  4HY500     -0.2453
@<TRIPOS>BOND
     1    18    14   ar
     2    21    14   ar
     3    14    13    1
     4    17     9    1
     5    13     1    1
     6    11     1   ar
     7    11     9   ar
     8     1     3   ar
     9     9     7   ar
    10     3     5   ar
    11     7     5   ar
    12     7    19    1
    13     5    15    1
    14    19     2    1
    15    12     2   ar
    16    12    10   ar
    17     2     4   ar
    18    10     8   ar
    19     4     6   ar
    20     8     6   ar
    21     8    20    1
    22     6    16    1
