@<TRIPOS>MOLECULE
1nq1_4HY_A_1.pdb
 21 22 0 0 0
SMALL
GASTEIGER

@<TRIPOS>ATOM
      1  C1        47.2910    5.0660   16.6060 C.ar  500  4HY500     -0.0099
      2  C2        51.0980    6.5190   13.5350 C.ar  500  4HY500      0.1460
      3  C3        47.3180    4.6280   15.2190 C.ar  500  4HY500      0.0051
      4  C4        52.0220    6.3700   12.5530 C.ar  500  4HY500      0.0465
      5  C5        48.5340    4.6960   14.4960 C.ar  500  4HY500      0.0647
      6  C6        52.3370    7.4020   11.7040 C.ar  500  4HY500      0.0720
      7  C7        49.6980    5.1770   15.0860 C.ar  500  4HY500      0.1558
      8  C8        51.6780    8.6680   11.8230 C.ar  500  4HY500      0.2012
      9  C9        49.6490    5.5840   16.4640 C.ar  500  4HY500      0.0647
     10  C10       50.7090    8.8500   12.8400 C.ar  500  4HY500      0.0456
     11  C11       48.4150    5.5160   17.2040 C.ar  500  4HY500      0.0051
     12  C12       50.4100    7.7660   13.6990 C.ar  500  4HY500      0.0408
     13  C13       46.0110    5.0690   17.3670 C.3   500  4HY500      0.1404
     14  C14       45.5040    3.6680   17.8470 C.2   500  4HY500      0.3692
     15  I1        48.6710    3.9800   12.4960 I     500  4HY500     -0.0393
     16  I2        53.7670    7.0990   10.2710 I     500  4HY500     -0.0391
     17  I3        51.4180    6.2120   17.4350 I     500  4HY500     -0.0393
     18  O3        44.2610    3.5000   17.8460 O.co2 500  4HY500     -0.2453
     19  O2        50.8800    5.3810   14.3400 O.3   500  4HY500     -0.4526
     20  O1        52.0170    9.7060   10.9300 O.3   500  4HY500     -0.2861
     21  O4        46.3750    2.8280   18.1960 O.co2 500  4HY500     -0.2453
@<TRIPOS>BOND
     1    16     6    1
     2    20     8    1
     3     6     8   ar
     4     6     4   ar
     5     8    10   ar
     6    15     5    1
     7     4     2   ar
     8    10    12   ar
     9     2    12   ar
    10     2    19    1
    11    19     7    1
    12     5     7   ar
    13     5     3   ar
    14     7     9   ar
    15     3     1   ar
    16     9    11   ar
    17     9    17    1
    18     1    11   ar
    19     1    13    1
    20    13    14    1
    21    18    14   ar
    22    14    21   ar
