@<TRIPOS>MOLECULE
1nq2_4HY_A_1.pdb
 21 22 0 0 0
SMALL
GASTEIGER

@<TRIPOS>ATOM
      1  C1        47.4600    4.7220   16.0490 C.ar  500  4HY500     -0.0099
      2  C2        51.5640    6.3520   13.4260 C.ar  500  4HY500      0.1460
      3  C3        47.6910    4.2790   14.6730 C.ar  500  4HY500      0.0051
      4  C4        52.4890    6.2200   12.4150 C.ar  500  4HY500      0.0465
      5  C5        48.9710    4.4000   14.0930 C.ar  500  4HY500      0.0647
      6  C6        52.8560    7.2990   11.6300 C.ar  500  4HY500      0.0720
      7  C7        50.0600    4.9500   14.8200 C.ar  500  4HY500      0.1558
      8  C8        52.2680    8.5840   11.8650 C.ar  500  4HY500      0.2012
      9  C9        49.8370    5.3760   16.2110 C.ar  500  4HY500      0.0647
     10  C10       51.3100    8.7400   12.8920 C.ar  500  4HY500      0.0456
     11  C11       48.4970    5.2450   16.7870 C.ar  500  4HY500      0.0051
     12  C12       50.9570    7.6230   13.6780 C.ar  500  4HY500      0.0408
     13  C13       46.0510    4.6820   16.6290 C.3   500  4HY500      0.1404
     14  C14       45.6940    3.5920   17.7440 C.2   500  4HY500      0.3692
     15  I1        49.2860    3.6970   12.0930 I     500  4HY500     -0.0393
     16  I2        54.2720    7.0330   10.1400 I     500  4HY500     -0.0391
     17  I3        51.4580    6.0980   17.4580 I     500  4HY500     -0.0393
     18  O3        44.4710    3.5490   18.1230 O.co2 500  4HY500     -0.2453
     19  O2        51.2980    5.1880   14.2080 O.3   500  4HY500     -0.4526
     20  O1        52.6740    9.6740   11.0890 O.3   500  4HY500     -0.2861
     21  O4        46.6330    2.8470   18.1740 O.co2 500  4HY500     -0.2453
@<TRIPOS>BOND
     1    16     6    1
     2    20     8    1
     3     6     8   ar
     4     6     4   ar
     5     8    10   ar
     6    15     5    1
     7     4     2   ar
     8    10    12   ar
     9     2    12   ar
    10     2    19    1
    11     5     3   ar
    12     5     7   ar
    13    19     7    1
    14     3     1   ar
    15     7     9   ar
    16     1    13    1
    17     1    11   ar
    18     9    11   ar
    19     9    17    1
    20    13    14    1
    21    14    18   ar
    22    14    21   ar
