@<TRIPOS>MOLECULE
1nq5_NAD_A_1.pdb
 44 48 0 0 0
SMALL
GASTEIGER

@<TRIPOS>ATOM
      1  PA       -20.1890   85.3000   55.0590 P.3   5336  NAD5336     0.2189
      2  O1A      -21.4490   85.8130   54.4840 O.2   5336  NAD5336    -0.5170
      3  O2A      -20.2510   84.0970   55.9150 O.3   5336  NAD5336    -0.4371
      4  O5B      -19.3880   86.4510   55.8540 O.3   5336  NAD5336    -0.3112
      5  C5B      -19.5530   87.8580   55.5970 C.3   5336  NAD5336     0.1813
      6  C4B      -19.6770   88.6150   56.9180 C.3   5336  NAD5336     0.1821
      7  O4B      -19.4970   90.0360   56.7170 O.3   5336  NAD5336    -0.3135
      8  C3B      -21.0450   88.4120   57.5630 C.3   5336  NAD5336     0.2184
      9  O3B      -20.9570   88.0810   58.9520 O.3   5336  NAD5336    -0.2174
     10  C2B      -21.7730   89.7300   57.3210 C.3   5336  NAD5336     0.2570
     11  O2B      -22.6690   90.0010   58.4030 O.3   5336  NAD5336    -0.2130
     12  C1B      -20.6390   90.7420   57.2490 C.3   5336  NAD5336     0.3186
     13  N9A      -20.9250   91.9950   56.4770 N.pl3 5336  NAD5336    -0.1439
     14  C8A      -21.4430   92.1180   55.2350 C.3   5336  NAD5336     0.3377
     15  N7A      -21.3710   93.3800   54.7900 N.2   5336  NAD5336    -0.2095
     16  C5A      -20.8150   94.0390   55.7870 C.2   5336  NAD5336     0.2526
     17  C6A      -20.3790   95.3780   55.7680 C.2   5336  NAD5336     0.4393
     18  N6A      -20.7730   96.2760   54.8580 N.pl3 5336  NAD5336     0.2180
     19  N1A      -19.6270   95.7770   56.8340 N.2   5336  NAD5336     0.0021
     20  C2A      -19.3220   94.9730   57.8710 C.3   5336  NAD5336     0.5254
     21  N3A      -19.7520   93.6980   57.8780 N.2   5336  NAD5336    -0.0055
     22  C4A      -20.4920   93.1980   56.8470 C.2   5336  NAD5336     0.3518
     23  O3       -19.1380   84.9350   53.9040 O.3   5336  NAD5336    -0.2703
     24  PN       -17.7520   84.1260   53.9390 P.3   5336  NAD5336     0.2189
     25  O1N      -18.0100   82.7820   53.3820 O.2   5336  NAD5336    -0.5170
     26  O2N      -17.1090   84.2290   55.2670 O.3   5336  NAD5336    -0.4371
     27  O5D      -16.9420   84.9120   52.8350 O.3   5336  NAD5336    -0.3112
     28  C5D      -16.4860   86.2710   52.9010 C.3   5336  NAD5336     0.1813
     29  C4D      -15.4110   86.5190   51.8370 C.3   5336  NAD5336     0.1799
     30  O4D      -14.4260   85.4690   51.9010 O.3   5336  NAD5336    -0.3327
     31  C3D      -15.8910   86.4810   50.3900 C.3   5336  NAD5336     0.2158
     32  O3D      -15.0780   87.4060   49.6510 O.3   5336  NAD5336    -0.2175
     33  C2D      -15.6590   85.0460   49.9070 C.3   5336  NAD5336     0.2309
     34  O2D      -15.5920   84.8460   48.4960 O.3   5336  NAD5336    -0.2158
     35  C1D      -14.3500   84.7410   50.6480 C.3   5336  NAD5336     0.2263
     36  N1N      -13.9800   83.3160   50.8580 N.pl3 5336  NAD5336    -0.2787
     37  C2N      -14.9340   82.3230   51.2320 C.3   5336  NAD5336     0.1244
     38  C3N      -14.5200   80.9870   51.3630 C.2   5336  NAD5336     0.0544
     39  C7N      -15.4720   79.9120   51.8760 C.2   5336  NAD5336     0.2818
     40  O7N      -15.3290   78.7470   51.5020 O.2   5336  NAD5336    -0.2670
     41  N7N      -16.4570   80.3410   52.6720 N.am  5336  NAD5336    -0.0839
     42  C4N      -13.1670   80.6710   51.0960 C.2   5336  NAD5336     0.0033
     43  C5N      -12.2110   81.6350   50.7300 C.2   5336  NAD5336     0.0157
     44  C6N      -12.6210   82.9750   50.6250 C.2   5336  NAD5336     0.0633
@<TRIPOS>BOND
     1    34    33    1
     2    32    31    1
     3    33    31    1
     4    33    35    1
     5    31    29    1
     6    44    43    2
     7    44    36    1
     8    35    36    1
     9    35    30    1
    10    43    42    1
    11    36    37    1
    12    42    38    2
    13    37    38    1
    14    38    39    1
    15    40    39    2
    16    29    30    1
    17    29    28    1
    18    39    41   am
    19    27    28    1
    20    27    24    1
    21    25    24    2
    22    23    24    1
    23    23     1    1
    24    24    26    1
    25     2     1    2
    26    15    14    1
    27    15    16    2
    28    18    17    1
    29     1     4    1
    30     1     3    1
    31    14    13    1
    32     5     4    1
    33     5     6    1
    34    17    16    1
    35    17    19    2
    36    16    22    1
    37    13    22    1
    38    13    12    1
    39     7     6    1
    40     7    12    1
    41    19    20    1
    42    22    21    2
    43     6     8    1
    44    12    10    1
    45    10     8    1
    46    10    11    1
    47     8     9    1
    48    20    21    1
