@<TRIPOS>MOLECULE
1nq7_ARL_A_1.pdb
 25 25 0 0 0
SMALL
GASTEIGER

@<TRIPOS>ATOM
      1  C16       29.4730   25.8200   10.5960 C.3   800  ARL800      0.0312
      2  C9        28.2120   25.0270   10.1460 C.2   800  ARL800     -0.0153
      3  C13       27.1010   25.8300    9.5470 C.2   800  ARL800     -0.0041
      4  C8        27.0650   27.1570    9.3530 C.2   800  ARL800     -0.0006
      5  C44       25.9720   27.9480    8.7790 C.2   800  ARL800     -0.0043
      6  C42       26.0390   29.1630    8.1030 C.2   800  ARL800     -0.0219
      7  C7        27.4130   29.8680    7.8650 C.3   800  ARL800      0.0310
      8  C3        24.7640   29.8650    7.5910 C.ar  800  ARL800     -0.0046
      9  C4        23.4430   29.2410    7.6550 C.ar  800  ARL800     -0.0046
     10  C5        22.2030   29.8970    7.1850 C.ar  800  ARL800     -0.0231
     11  C6        22.3610   31.2370    6.6270 C.ar  800  ARL800     -0.0086
     12  C1        23.6410   31.9390    6.5230 C.ar  800  ARL800     -0.0231
     13  C2        24.8180   31.2110    7.0160 C.ar  800  ARL800     -0.0046
     14  C10       23.7890   33.4010    5.9150 C.3   800  ARL800      0.0189
     15  C11       22.4540   34.1230    5.5530 C.3   800  ARL800      0.0044
     16  C15       24.6250   33.3620    4.6300 C.3   800  ARL800      0.0044
     17  C19       24.4790   34.3340    6.9430 C.3   800  ARL800      0.0044
     18  C23       20.7870   29.1800    7.2770 C.3   800  ARL800      0.0189
     19  C24       20.0370   29.0210    5.9380 C.3   800  ARL800      0.0044
     20  C28       19.8360   29.9690    8.1910 C.3   800  ARL800      0.0044
     21  C32       20.9070   27.7900    7.8860 C.3   800  ARL800      0.0044
     22  C14       28.0320   23.6710   10.2480 C.2   800  ARL800      0.0819
     23  C12       28.9430   22.6070   10.8000 C.2   800  ARL800      0.3876
     24  O2        30.0230   22.8100   11.2630 O.co2 800  ARL800     -0.2406
     25  O3        28.5350   21.4670   10.7540 O.co2 800  ARL800     -0.2406
@<TRIPOS>BOND
     1    16    14    1
     2    15    14    1
     3    14    12    1
     4    14    17    1
     5    19    18    1
     6    12    11   ar
     7    12    13   ar
     8    11    10   ar
     9    13     8   ar
    10    10    18    1
    11    10     9   ar
    12    18    21    1
    13    18    20    1
    14     8     9   ar
    15     8     6    1
    16     7     6    1
    17     6     5    2
    18     5     4    1
    19     4     3    2
    20     3     2    1
    21     2    22    2
    22     2     1    1
    23    22    23    1
    24    25    23   ar
    25    23    24   ar
