@<TRIPOS>MOLECULE
1nqa_NAD_O_1.pdb
 44 48 0 0 0
SMALL
GASTEIGER

@<TRIPOS>ATOM
      1  PA       -13.0670   78.4960   83.3810 P.3   1336  NAD1336     0.2189
      2  O1A      -12.8520   77.7620   82.1170 O.2   1336  NAD1336    -0.5170
      3  O2A      -14.4410   78.6740   83.8940 O.3   1336  NAD1336    -0.4371
      4  O5B      -12.3630   79.9470   83.3510 O.3   1336  NAD1336    -0.3112
      5  C5B      -11.1530   80.1850   82.6060 C.3   1336  NAD1336     0.1813
      6  C4B      -11.2080   81.5580   81.9470 C.3   1336  NAD1336     0.1821
      7  O4B       -9.9090   81.9140   81.4190 O.3   1336  NAD1336    -0.3135
      8  C3B      -12.1890   81.5840   80.7740 C.3   1336  NAD1336     0.2184
      9  O3B      -13.1410   82.6470   80.9420 O.3   1336  NAD1336    -0.2174
     10  C2B      -11.2970   81.7040   79.5340 C.3   1336  NAD1336     0.2570
     11  O2B      -11.9130   82.4600   78.4850 O.3   1336  NAD1336    -0.2130
     12  C1B      -10.0540   82.4030   80.0820 C.3   1336  NAD1336     0.3186
     13  N9A       -8.7840   82.2520   79.3130 N.pl3 1336  NAD1336    -0.1439
     14  C8A       -8.2250   81.1330   78.8080 C.3   1336  NAD1336     0.3377
     15  N7A       -7.0350   81.3790   78.2500 N.2   1336  NAD1336    -0.2095
     16  C5A       -6.8780   82.6810   78.4090 C.2   1336  NAD1336     0.2526
     17  C6A       -5.7370   83.4440   78.0900 C.2   1336  NAD1336     0.4393
     18  N6A       -4.7570   83.0020   77.3010 N.pl3 1336  NAD1336     0.2180
     19  N1A       -5.7380   84.7440   78.4890 N.2   1336  NAD1336     0.0021
     20  C2A       -6.7660   85.3100   79.1520 C.3   1336  NAD1336     0.5254
     21  N3A       -7.8580   84.5750   79.4390 N.2   1336  NAD1336    -0.0055
     22  C4A       -7.9420   83.2580   79.0860 C.2   1336  NAD1336     0.3518
     23  O3       -12.2040   77.7480   84.5130 O.3   1336  NAD1336    -0.2703
     24  PN       -12.2650   77.7540   86.1070 P.3   1336  NAD1336     0.2189
     25  O1N      -13.0920   76.6310   86.5910 O.3   1336  NAD1336    -0.4371
     26  O2N      -12.5600   79.1270   86.5820 O.2   1336  NAD1336    -0.5170
     27  O5D      -10.7440   77.3870   86.4180 O.3   1336  NAD1336    -0.3112
     28  C5D       -9.6030   78.2630   86.2890 C.3   1336  NAD1336     0.1813
     29  C4D       -8.4180   77.8100   87.1680 C.3   1336  NAD1336     0.1799
     30  O4D       -8.8200   77.7480   88.5550 O.3   1336  NAD1336    -0.3327
     31  C3D       -7.8730   76.4210   86.8380 C.3   1336  NAD1336     0.2158
     32  O3D       -6.4460   76.3830   86.9410 O.3   1336  NAD1336    -0.2175
     33  C2D       -8.5910   75.4990   87.8090 C.3   1336  NAD1336     0.2309
     34  O2D       -8.0490   74.2010   88.0420 O.3   1336  NAD1336    -0.2158
     35  C1D       -8.7250   76.3870   89.0380 C.3   1336  NAD1336     0.2263
     36  N1N       -9.8130   76.0810   90.0090 N.pl3 1336  NAD1336    -0.2787
     37  C2N      -11.1350   75.6790   89.6230 C.3   1336  NAD1336     0.1244
     38  C3N      -12.0630   75.3510   90.6200 C.2   1336  NAD1336     0.0544
     39  C7N      -13.5170   75.0240   90.2830 C.2   1336  NAD1336     0.2818
     40  O7N      -14.1520   74.2700   91.0250 O.2   1336  NAD1336    -0.2670
     41  N7N      -13.9900   75.5490   89.1520 N.am  1336  NAD1336    -0.0839
     42  C4N      -11.6640   75.4220   91.9760 C.2   1336  NAD1336     0.0033
     43  C5N      -10.3860   75.8380   92.3610 C.2   1336  NAD1336     0.0157
     44  C6N       -9.4480   76.1760   91.3770 C.2   1336  NAD1336     0.0633
@<TRIPOS>BOND
     1    18    17    1
     2    17    16    1
     3    17    19    2
     4    15    16    2
     5    15    14    1
     6    16    22    1
     7    11    10    1
     8    19    20    1
     9    14    13    1
    10    22    13    1
    11    22    21    2
    12    20    21    1
    13    13    12    1
    14    10    12    1
    15    10     8    1
    16    12     7    1
    17     8     9    1
    18     8     6    1
    19     7     6    1
    20     6     5    1
    21     2     1    2
    22     5     4    1
    23     4     1    1
    24     1     3    1
    25     1    23    1
    26    23    24    1
    27    24    27    1
    28    24    26    2
    29    24    25    1
    30    28    27    1
    31    28    29    1
    32    31    32    1
    33    31    29    1
    34    31    33    1
    35    29    30    1
    36    33    34    1
    37    33    35    1
    38    30    35    1
    39    35    36    1
    40    41    39   am
    41    37    36    1
    42    37    38    1
    43    36    44    1
    44    39    38    1
    45    39    40    2
    46    38    42    2
    47    44    43    2
    48    42    43    1
