@<TRIPOS>MOLECULE
1nqa_G3H_O_1.pdb
 10 9 0 0 0
SMALL
GASTEIGER

@<TRIPOS>ATOM
      1  O1       -11.5320   71.5300   93.0750 O.2   1337  G3H1337    -0.2854
      2  C1       -10.8430   70.8280   92.3350 C.2   1337  G3H1337     0.2426
      3  C2        -9.9540   71.4750   91.2890 C.3   1337  G3H1337     0.2459
      4  O2        -9.8290   72.8270   91.7240 O.3   1337  G3H1337    -0.2119
      5  C3       -10.6040   71.3170   89.9120 C.3   1337  G3H1337     0.1946
      6  O1P       -9.9160   71.9000   88.7710 O.3   1337  G3H1337    -0.2670
      7  O2P      -11.6890   71.0080   87.2150 O.3   1337  G3H1337    -0.1145
      8  O3P       -9.3050   71.1980   86.5040 O.2   1337  G3H1337    -0.2224
      9  O4P      -10.7610   73.1960   86.8630 O.3   1337  G3H1337    -0.1145
     10  P        -10.4490   71.8020   87.2240 P.3   1337  G3H1337     0.5327
@<TRIPOS>BOND
     1     8    10    2
     2     9    10    1
     3     7    10    1
     4    10     6    1
     5     6     5    1
     6     5     3    1
     7     3     4    1
     8     3     2    1
     9     2     1    2
