@<TRIPOS>MOLECULE
1nqc_C4P_A_1.pdb
 32 34 0 0 0
SMALL
GASTEIGER

@<TRIPOS>ATOM
      1  N43        2.1010   10.5570   49.8530 N.am  218  C4P218     -0.1804
      2  C40        1.8820   10.4030   51.2240 C.2   218  C4P218      0.3238
      3  O41        0.9900   11.0720   51.7920 O.2   218  C4P218     -0.2508
      4  N1         2.6420    9.5170   51.9300 N.am  218  C4P218     -0.2577
      5  C2         2.3870    9.3610   53.3900 C.3   218  C4P218      0.1271
      6  C3         2.5330    7.8680   53.7470 C.3   218  C4P218      0.1637
      7  O4         3.8240    7.3870   53.2530 O.3   218  C4P218     -0.3501
      8  C5         3.8980    7.3260   51.8000 C.3   218  C4P218      0.1637
      9  C6         3.6960    8.7480   51.1910 C.3   218  C4P218      0.1271
     10  C44        1.2410   11.5010   49.1100 C.3   218  C4P218      0.1786
     11  C45       -0.1270   10.8810   49.0090 C.2   218  C4P218      0.2620
     12  O46       -0.2580    9.7350   48.6960 O.2   218  C4P218     -0.2715
     13  N54       -1.1330   11.6990   49.2820 N.am  218  C4P218     -0.1968
     14  C55       -2.5240   11.3310   49.2290 C.3   218  C4P218      0.1703
     15  C56       -3.1600   11.2940   47.8490 C.2   218  C4P218      0.2296
     16  O57       -4.3590   11.0310   47.6870 O.2   218  C4P218     -0.2864
     17  C58       -3.2060   11.7230   50.5910 C.3   218  C4P218      0.0875
     18  S1        -2.7020   10.4460   51.8120 S.3   218  C4P218     -0.1332
     19  C1        -3.5510   10.9520   53.3430 C.3   218  C4P218      0.0838
     20  C62       -5.0330   10.5970   53.0280 C.ar  218  C4P218     -0.0113
     21  C67       -5.9860   11.6430   52.6760 C.ar  218  C4P218     -0.0034
     22  C66       -7.3540   11.2970   52.3670 C.ar  218  C4P218     -0.0003
     23  C65       -7.7790    9.9080   52.4090 C.ar  218  C4P218     -0.0000
     24  C64       -6.8370    8.8710   52.7630 C.ar  218  C4P218     -0.0003
     25  C63       -5.4690    9.2120   53.0710 C.ar  218  C4P218     -0.0034
     26  C47        1.6870   11.7530   47.6500 C.3   218  C4P218      0.0575
     27  C48        2.9500   12.5900   47.4580 C.ar  218  C4P218     -0.0200
     28  C49        3.1750   13.7920   48.2370 C.ar  218  C4P218     -0.0042
     29  C51        4.3720   14.5660   48.0310 C.ar  218  C4P218     -0.0003
     30  C53        5.3440   14.1480   47.0490 C.ar  218  C4P218     -0.0000
     31  C52        5.1180   12.9530   46.2780 C.ar  218  C4P218     -0.0003
     32  C50        3.9230   12.1760   46.4840 C.ar  218  C4P218     -0.0042
@<TRIPOS>BOND
     1    31    32   ar
     2    31    30   ar
     3    32    27   ar
     4    30    29   ar
     5    27    26    1
     6    27    28   ar
     7    26    10    1
     8    16    15    2
     9    15    14    1
    10    29    28   ar
    11    12    11    2
    12    11    10    1
    13    11    13   am
    14    10     1    1
    15    14    13    1
    16    14    17    1
    17     1     2   am
    18    17    18    1
    19     9     8    1
    20     9     4    1
    21     2     3    2
    22     2     4   am
    23     8     7    1
    24    18    19    1
    25     4     5    1
    26    22    23   ar
    27    22    21   ar
    28    23    24   ar
    29    21    20   ar
    30    24    25   ar
    31    20    25   ar
    32    20    19    1
    33     7     6    1
    34     5     6    1
