@<TRIPOS>MOLECULE
1nqe_C8E_A_1.pdb
 21 20 0 0 0
SMALL
GASTEIGER

@<TRIPOS>ATOM
      1  C1        16.6180   49.6910   31.8250 C.3   800  C8E800      0.0000
      2  C2        17.3220   50.5730   30.7980 C.3   800  C8E800      0.0000
      3  C3        17.2240   52.0310   31.1300 C.3   800  C8E800      0.0000
      4  C4        17.8450   52.8540   30.0290 C.3   800  C8E800      0.0000
      5  C5        17.8620   54.3110   30.3670 C.3   800  C8E800      0.0001
      6  C6        19.0900   54.8820   29.7090 C.3   800  C8E800      0.0026
      7  C7        18.7060   55.3160   28.3390 C.3   800  C8E800      0.0321
      8  C8        18.3470   56.7770   28.4510 C.3   800  C8E800      0.1423
      9  O9        19.5890   57.3340   28.6970 O.3   800  C8E800     -0.3511
     10  C10       19.6840   58.6990   28.6030 C.3   800  C8E800      0.1741
     11  C11       20.2790   59.1540   27.3400 C.3   800  C8E800      0.1742
     12  O12       21.0170   60.2490   27.7900 O.3   800  C8E800     -0.3484
     13  C13       22.3930   59.9400   27.8100 C.3   800  C8E800      0.1742
     14  C14       22.6620   58.5840   27.1570 C.3   800  C8E800      0.1742
     15  O15       23.2790   58.7840   25.8960 O.3   800  C8E800     -0.3484
     16  C16       24.6880   58.7790   25.9150 C.3   800  C8E800      0.1742
     17  C17       25.2830   57.4260   25.4440 C.3   800  C8E800      0.1742
     18  O18       26.5800   57.2590   26.0380 O.3   800  C8E800     -0.3483
     19  C19       27.1570   55.9680   25.9340 C.3   800  C8E800      0.1777
     20  C20       28.6870   56.0750   25.8500 C.3   800  C8E800      0.2140
     21  O21       29.1690   56.9770   26.8200 O.3   800  C8E800     -0.2176
@<TRIPOS>BOND
     1    17    16    1
     2    17    18    1
     3    20    19    1
     4    20    21    1
     5    15    16    1
     6    15    14    1
     7    19    18    1
     8    14    13    1
     9    11    12    1
    10    11    10    1
    11    12    13    1
    12     7     8    1
    13     7     6    1
    14     8     9    1
    15    10     9    1
    16     6     5    1
    17     4     5    1
    18     4     3    1
    19     2     3    1
    20     2     1    1
