@<TRIPOS>MOLECULE
1nqf_C8E_A_1.pdb
 21 20 0 0 0
SMALL
GASTEIGER

@<TRIPOS>ATOM
      1  C1        15.3050   52.2680   35.0450 C.3   800  C8E800      0.0000
      2  C2        15.6580   53.1340   33.8430 C.3   800  C8E800      0.0000
      3  C3        16.4640   54.3400   34.2880 C.3   800  C8E800      0.0000
      4  C4        16.5150   55.4200   33.2270 C.3   800  C8E800      0.0000
      5  C5        17.0660   56.6980   33.7840 C.3   800  C8E800      0.0001
      6  C6        17.6100   57.5830   32.6880 C.3   800  C8E800      0.0026
      7  C7        16.5140   57.8630   31.6730 C.3   800  C8E800      0.0321
      8  C8        16.9220   59.1670   31.0310 C.3   800  C8E800      0.1423
      9  O9        18.0110   59.5950   31.8130 O.3   800  C8E800     -0.3511
     10  C10       17.8790   60.9520   32.0930 C.3   800  C8E800      0.1741
     11  C11       18.6580   61.7020   31.0500 C.3   800  C8E800      0.1742
     12  O12       19.5970   62.4620   31.7450 O.3   800  C8E800     -0.3484
     13  C13       20.9140   62.0700   31.4310 C.3   800  C8E800      0.1742
     14  C14       20.9170   60.6140   30.9700 C.3   800  C8E800      0.1742
     15  O15       21.4230   60.5190   29.6560 O.3   800  C8E800     -0.3484
     16  C16       22.7380   61.0290   29.5290 C.3   800  C8E800      0.1742
     17  C17       23.5670   60.0080   28.7520 C.3   800  C8E800      0.1742
     18  O18       24.9320   60.0730   29.0810 O.3   800  C8E800     -0.3483
     19  C19       25.3320   58.9930   29.8820 C.3   800  C8E800      0.1777
     20  C20       26.7800   58.6330   29.5640 C.3   800  C8E800      0.2140
     21  O21       27.5820   59.7950   29.5780 O.3   800  C8E800     -0.2176
@<TRIPOS>BOND
     1    17    18    1
     2    17    16    1
     3    18    19    1
     4    16    15    1
     5    20    21    1
     6    20    19    1
     7    15    14    1
     8    14    13    1
     9     8     7    1
    10     8     9    1
    11    11    12    1
    12    11    10    1
    13    13    12    1
    14     7     6    1
    15     9    10    1
    16     6     5    1
    17     4     5    1
    18     4     3    1
    19     2     3    1
    20     2     1    1
