@<TRIPOS>MOLECULE
1nqg_C8E_A_1.pdb
 21 20 0 0 0
SMALL
GASTEIGER

@<TRIPOS>ATOM
      1  C1        15.3130   52.7930   34.3440 C.3   800  C8E800      0.0000
      2  C2        15.6100   53.6330   33.1310 C.3   800  C8E800      0.0000
      3  C3        16.3820   54.8690   33.5780 C.3   800  C8E800      0.0000
      4  C4        16.0660   56.0300   32.6260 C.3   800  C8E800      0.0000
      5  C5        16.7360   57.3340   33.0740 C.3   800  C8E800      0.0001
      6  C6        17.4400   58.0500   31.9460 C.3   800  C8E800      0.0026
      7  C7        16.5710   59.1170   31.3270 C.3   800  C8E800      0.0321
      8  C8        17.4750   60.0180   30.5100 C.3   800  C8E800      0.1423
      9  O9        18.6060   60.2710   31.2760 O.3   800  C8E800     -0.3511
     10  C10       18.3640   61.3310   32.1490 C.3   800  C8E800      0.1741
     11  C11       18.2260   62.5620   31.2800 C.3   800  C8E800      0.1742
     12  O12       19.2490   62.5050   30.3320 O.3   800  C8E800     -0.3484
     13  C13       20.4390   62.5770   31.0490 C.3   800  C8E800      0.1742
     14  C14       21.1620   61.5380   30.2800 C.3   800  C8E800      0.1742
     15  O15       21.8200   62.3880   29.4470 O.3   800  C8E800     -0.3484
     16  C16       23.1600   62.2570   29.7800 C.3   800  C8E800      0.1742
     17  C17       23.6400   61.0220   29.0270 C.3   800  C8E800      0.1742
     18  O18       24.8100   60.5470   29.6720 O.3   800  C8E800     -0.3483
     19  C19       25.2350   59.5170   28.8570 C.3   800  C8E800      0.1777
     20  C20       26.6850   59.2850   29.0730 C.3   800  C8E800      0.2140
     21  O21       26.7250   57.9710   28.6250 O.3   800  C8E800     -0.2176
@<TRIPOS>BOND
     1    21    20    1
     2    19    20    1
     3    19    18    1
     4    17    18    1
     5    17    16    1
     6    15    16    1
     7    15    14    1
     8    14    13    1
     9    12    13    1
    10    12    11    1
    11     8     9    1
    12     8     7    1
    13     9    10    1
    14    11    10    1
    15     7     6    1
    16     6     5    1
    17     4     5    1
    18     4     3    1
    19     2     3    1
    20     2     1    1
