@<TRIPOS>MOLECULE
1nqh_C8E_A_1.pdb
 21 20 0 0 0
SMALL
GASTEIGER

@<TRIPOS>ATOM
      1  C1        15.1650   52.6650   34.6240 C.3   800  C8E800      0.0000
      2  C2        15.4150   53.5300   33.4260 C.3   800  C8E800      0.0000
      3  C3        16.2400   54.7250   33.8040 C.3   800  C8E800      0.0000
      4  C4        15.9660   55.7920   32.7450 C.3   800  C8E800      0.0000
      5  C5        16.5810   57.1420   33.0700 C.3   800  C8E800      0.0001
      6  C6        17.1390   57.7900   31.8440 C.3   800  C8E800      0.0026
      7  C7        16.7640   59.2220   31.9540 C.3   800  C8E800      0.0321
      8  C8        17.5290   60.1520   31.0420 C.3   800  C8E800      0.1423
      9  O9        18.7440   60.4180   31.6290 O.3   800  C8E800     -0.3511
     10  C10       18.6550   61.6010   32.3520 C.3   800  C8E800      0.1741
     11  C11       18.1800   62.6600   31.4000 C.3   800  C8E800      0.1742
     12  O12       19.1740   62.8840   30.4470 O.3   800  C8E800     -0.3484
     13  C13       20.3930   62.9230   31.0920 C.3   800  C8E800      0.1742
     14  C14       21.2020   61.9080   30.3220 C.3   800  C8E800      0.1742
     15  O15       21.8890   62.6800   29.3790 O.3   800  C8E800     -0.3484
     16  C16       23.2590   62.4530   29.3970 C.3   800  C8E800      0.1742
     17  C17       23.4560   61.2080   28.5890 C.3   800  C8E800      0.1742
     18  O18       24.5140   60.5900   29.2320 O.3   800  C8E800     -0.3483
     19  C19       24.6700   59.2770   28.8210 C.3   800  C8E800      0.1777
     20  C20       26.1290   58.8890   29.0250 C.3   800  C8E800      0.2140
     21  O21       27.0190   59.9810   29.1380 O.3   800  C8E800     -0.2176
@<TRIPOS>BOND
     1    17    18    1
     2    17    16    1
     3    19    20    1
     4    19    18    1
     5    20    21    1
     6    15    16    1
     7    15    14    1
     8    14    13    1
     9    12    13    1
    10    12    11    1
    11     8     9    1
    12     8     7    1
    13    11    10    1
    14     9    10    1
    15     6     7    1
    16     6     5    1
    17     4     5    1
    18     4     3    1
    19     2     3    1
    20     2     1    1
