@<TRIPOS>MOLECULE
1nqi_NAG_B_1.pdb
 15 15 0 0 0
SMALL
GASTEIGER

@<TRIPOS>ATOM
      1  C1         2.8390   -2.0200   17.8350 C.3   403  NAG403      0.2917
      2  C2         2.0280   -2.7740   18.9010 C.3   403  NAG403      0.1871
      3  C3         2.1030   -1.9710   20.2050 C.3   403  NAG403      0.2095
      4  C4         3.5480   -1.7570   20.6150 C.3   403  NAG403      0.2136
      5  C5         4.3250   -1.0460   19.4850 C.3   403  NAG403      0.1835
      6  C6         5.8360   -0.8880   19.8030 C.3   403  NAG403      0.2142
      7  C7         0.0220   -4.0780   18.0920 C.2   403  NAG403      0.2421
      8  C8        -1.4350   -3.9580   17.6950 C.3   403  NAG403      0.0964
      9  N2         0.5840   -2.9000   18.4660 N.am  403  NAG403     -0.1991
     10  O1         2.8390   -2.7640   16.6650 O.3   403  NAG403     -0.1879
     11  O3         1.4000   -2.6770   21.2400 O.3   403  NAG403     -0.2183
     12  O4         3.6440   -0.9740   21.8060 O.3   403  NAG403     -0.2176
     13  O5         4.1860   -1.8190   18.2550 O.3   403  NAG403     -0.3242
     14  O6         6.4650   -2.1810   20.0180 O.3   403  NAG403     -0.2176
     15  O7         0.6090   -5.1640   18.0630 O.2   403  NAG403     -0.2733
@<TRIPOS>BOND
     1    10     1    1
     2     8     7    1
     3     1    13    1
     4     1     2    1
     5    15     7    2
     6     7     9   am
     7    13     5    1
     8     9     2    1
     9     2     3    1
    10     5     6    1
    11     5     4    1
    12     6    14    1
    13     3     4    1
    14     3    11    1
    15     4    12    1
