@<TRIPOS>MOLECULE
1nqm_BTN_A_1.pdb
 16 17 0 0 0
SMALL
GASTEIGER

@<TRIPOS>ATOM
      1  C11       26.7230   82.9310    4.0060 C.2   150  BTN150      0.3649
      2  O11       26.6760   83.1070    2.8480 O.co2 150  BTN150     -0.2457
      3  O12       27.0770   83.8980    4.8350 O.co2 150  BTN150     -0.2457
      4  C10       26.4450   81.7590    4.8600 C.3   150  BTN150      0.1141
      5  C9        25.3620   80.8090    4.2320 C.3   150  BTN150      0.0118
      6  C8        23.9050   81.4870    4.2730 C.3   150  BTN150      0.0015
      7  C7        22.9020   80.5430    3.6310 C.3   150  BTN150      0.0129
      8  C2        21.5150   81.3020    3.6340 C.3   150  BTN150      0.0729
      9  S1        20.7850   81.1880    5.3660 S.3   150  BTN150     -0.1369
     10  C6        19.2470   81.8920    4.7330 C.3   150  BTN150      0.0848
     11  C5        19.0130   81.0670    3.4120 C.3   150  BTN150      0.1509
     12  N1        18.4150   79.7570    3.6430 N.2   150  BTN150     -0.1859
     13  C3        19.2240   78.7790    3.2340 C.1   150  BTN150      0.2386
     14  O3        18.9080   77.5710    3.3360 O.2   150  BTN150     -0.2023
     15  N2        20.3920   79.2590    2.7120 N.2   150  BTN150     -0.1860
     16  C4        20.4610   80.6920    2.7320 C.3   150  BTN150      0.1500
@<TRIPOS>BOND
     1    15    16    1
     2    15    13    2
     3    16    11    1
     4    16     8    1
     5     2     1   ar
     6    13    14    2
     7    13    12    2
     8    11    12    1
     9    11    10    1
    10     7     8    1
    11     7     6    1
    12     8     9    1
    13     1     3   ar
    14     1     4    1
    15     5     6    1
    16     5     4    1
    17    10     9    1
