@<TRIPOS>MOLECULE
1nqo_G3H_A_1.pdb
 10 9 0 0 0
SMALL
GASTEIGER

@<TRIPOS>ATOM
      1  O1       -13.2740   78.2420   47.1050 O.2   5337  G3H5337    -0.2854
      2  C1       -13.7410   78.9760   46.2340 C.2   5337  G3H5337     0.2426
      3  C2       -14.0040   80.4450   46.5280 C.3   5337  G3H5337     0.2459
      4  O2       -13.2920   80.6930   47.7430 O.3   5337  G3H5337    -0.2119
      5  C3       -15.5160   80.6630   46.6380 C.3   5337  G3H5337     0.1946
      6  O1P      -15.9870   82.0050   46.9240 O.3   5337  G3H5337    -0.2670
      7  O2P      -18.4170   81.2170   46.8320 O.3   5337  G3H5337    -0.1145
      8  O3P      -17.7410   83.4890   46.0560 O.2   5337  G3H5337    -0.2224
      9  O4P      -17.6590   82.8560   48.4560 O.3   5337  G3H5337    -0.1145
     10  P        -17.5680   82.4090   47.0590 P.3   5337  G3H5337     0.5327
@<TRIPOS>BOND
     1     8    10    2
     2     2     3    1
     3     2     1    2
     4     3     5    1
     5     3     4    1
     6     5     6    1
     7     7    10    1
     8     6    10    1
     9    10     9    1
