@<TRIPOS>MOLECULE
1nqo_NAD_A_1.pdb
 44 48 0 0 0
SMALL
GASTEIGER

@<TRIPOS>ATOM
      1  PA       -20.1250   85.3140   54.8410 P.3   5336  NAD5336     0.2189
      2  O1A      -21.3480   85.8710   54.2170 O.2   5336  NAD5336    -0.5170
      3  O2A      -20.2430   84.0850   55.6750 O.3   5336  NAD5336    -0.4371
      4  O5B      -19.3780   86.3940   55.7640 O.3   5336  NAD5336    -0.3112
      5  C5B      -19.3020   87.7930   55.4220 C.3   5336  NAD5336     0.1813
      6  C4B      -19.5090   88.6300   56.6840 C.3   5336  NAD5336     0.1821
      7  O4B      -19.4600   90.0170   56.2950 O.3   5336  NAD5336    -0.3135
      8  C3B      -20.8780   88.4030   57.3440 C.3   5336  NAD5336     0.2184
      9  O3B      -20.7490   88.2070   58.7630 O.3   5336  NAD5336    -0.2174
     10  C2B      -21.6720   89.6660   57.0180 C.3   5336  NAD5336     0.2570
     11  O2B      -22.5850   89.9490   58.0870 O.3   5336  NAD5336    -0.2130
     12  C1B      -20.5590   90.7030   56.9080 C.3   5336  NAD5336     0.3186
     13  N9A      -20.8340   91.9710   56.1570 N.pl3 5336  NAD5336    -0.1439
     14  C8A      -21.4270   92.1430   54.9590 C.3   5336  NAD5336     0.3377
     15  N7A      -21.3820   93.4280   54.5700 N.2   5336  NAD5336    -0.2095
     16  C5A      -20.7380   94.0370   55.5510 C.2   5336  NAD5336     0.2526
     17  C6A      -20.3440   95.3920   55.6090 C.2   5336  NAD5336     0.4393
     18  N6A      -20.7130   96.3050   54.7030 N.pl3 5336  NAD5336     0.2180
     19  N1A      -19.6110   95.7670   56.7020 N.2   5336  NAD5336     0.0021
     20  C2A      -19.2760   94.9180   57.6990 C.3   5336  NAD5336     0.5254
     21  N3A      -19.6660   93.6280   57.6230 N.2   5336  NAD5336    -0.0055
     22  C4A      -20.3830   93.1580   56.5620 C.2   5336  NAD5336     0.3518
     23  O3       -19.0350   85.0100   53.7270 O.3   5336  NAD5336    -0.2703
     24  PN       -17.6390   84.2180   53.7700 P.3   5336  NAD5336     0.2189
     25  O1N      -17.8620   82.8370   53.3050 O.2   5336  NAD5336    -0.5170
     26  O2N      -16.9840   84.4200   55.0800 O.3   5336  NAD5336    -0.4371
     27  O5D      -16.8900   84.9620   52.5630 O.3   5336  NAD5336    -0.3112
     28  C5D      -16.3130   86.2800   52.6230 C.3   5336  NAD5336     0.1813
     29  C4D      -15.2820   86.5300   51.5050 C.3   5336  NAD5336     0.1799
     30  O4D      -14.2360   85.5330   51.5710 O.3   5336  NAD5336    -0.3327
     31  C3D      -15.8020   86.4600   50.0730 C.3   5336  NAD5336     0.2158
     32  O3D      -15.1160   87.4010   49.2400 O.3   5336  NAD5336    -0.2175
     33  C2D      -15.4920   85.0380   49.6260 C.3   5336  NAD5336     0.2309
     34  O2D      -15.4010   84.8320   48.2240 O.3   5336  NAD5336    -0.2158
     35  C1D      -14.1910   84.7410   50.3610 C.3   5336  NAD5336     0.2263
     36  N1N      -13.8480   83.3190   50.6400 N.pl3 5336  NAD5336    -0.2787
     37  C2N      -14.8430   82.3600   50.9980 C.3   5336  NAD5336     0.1244
     38  C3N      -14.4650   81.0170   51.1640 C.2   5336  NAD5336     0.0544
     39  C7N      -15.4630   79.9890   51.6860 C.2   5336  NAD5336     0.2818
     40  O7N      -15.3320   78.8070   51.3660 O.2   5336  NAD5336    -0.2670
     41  N7N      -16.4220   80.4620   52.4800 N.am  5336  NAD5336    -0.0839
     42  C4N      -13.1040   80.6580   50.9710 C.2   5336  NAD5336     0.0033
     43  C5N      -12.1090   81.5940   50.6430 C.2   5336  NAD5336     0.0157
     44  C6N      -12.4850   82.9400   50.4810 C.2   5336  NAD5336     0.0633
@<TRIPOS>BOND
     1    34    33    1
     2    32    31    1
     3    33    31    1
     4    33    35    1
     5    31    29    1
     6    35    36    1
     7    35    30    1
     8    44    36    1
     9    44    43    2
    10    36    37    1
    11    43    42    1
    12    42    38    2
    13    37    38    1
    14    38    39    1
    15    40    39    2
    16    29    30    1
    17    29    28    1
    18    39    41   am
    19    27    28    1
    20    27    24    1
    21    25    24    2
    22    23    24    1
    23    23     1    1
    24    24    26    1
    25     2     1    2
    26    15    14    1
    27    15    16    2
    28    18    17    1
    29     1     3    1
    30     1     4    1
    31    14    13    1
    32     5     4    1
    33     5     6    1
    34    16    17    1
    35    16    22    1
    36    17    19    2
    37    13    22    1
    38    13    12    1
    39     7     6    1
    40     7    12    1
    41    22    21    2
    42     6     8    1
    43    19    20    1
    44    12    10    1
    45    10     8    1
    46    10    11    1
    47     8     9    1
    48    21    20    1
