@<TRIPOS>MOLECULE
1nqp_HEM_A_1.pdb
 43 50 0 0 0
SMALL
GASTEIGER

@<TRIPOS>ATOM
      1 FE          0.0960    0.0350   22.6620 Fe    144  HEM144      0.0000
      2  CHA        0.1550   -0.5290   26.0470 C.2   144  HEM144      0.0000
      3  CHB        3.2290   -1.4390   22.3770 C.2   144  HEM144      0.0000
      4  CHC        0.1620    0.5880   19.2720 C.2   144  HEM144      0.0000
      5  CHD       -2.9090    1.6260   22.9110 C.2   144  HEM144      0.0000
      6  NA         1.4280   -0.8320   23.9520 N.ar  144  HEM144      0.0000
      7  C1A        1.2700   -0.9650   25.3200 C.ar  144  HEM144      0.0000
      8  C2A        2.4270   -1.5970   25.8870 C.ar  144  HEM144      0.0000
      9  C3A        3.2930   -1.8450   24.8750 C.ar  144  HEM144      0.0000
     10  C4A        2.6660   -1.3720   23.6530 C.ar  144  HEM144      0.0000
     11  CMA        4.6830   -2.4970   24.9210 C.3   144  HEM144      0.0000
     12  CAA        2.6920   -1.9060   27.3350 C.3   144  HEM144      0.0000
     13  CBA        2.3930   -3.2630   27.9210 C.3   144  HEM144      0.0000
     14  CGA        2.7570   -3.3500   29.3830 C.2   144  HEM144      0.0000
     15  O1A        3.8220   -2.8430   29.7830 O.co2 144  HEM144      0.0000
     16  O2A        1.9720   -3.9180   30.1350 O.co2 144  HEM144      0.0000
     17  NB         1.4560   -0.3650   21.1010 N.2   144  HEM144      0.0000
     18  C1B        2.6650   -0.9900   21.1960 C.2   144  HEM144      0.0000
     19  C2B        3.2740   -1.1020   19.8990 C.2   144  HEM144      0.0000
     20  C3B        2.3980   -0.5340   19.0010 C.2   144  HEM144      0.0000
     21  C4B        1.2630   -0.0730   19.7830 C.2   144  HEM144      0.0000
     22  CMB        4.6240   -1.7310   19.5570 C.3   144  HEM144      0.0000
     23  CAB        2.6090   -0.4340   17.5700 C.3   144  HEM144      0.0000
     24  CBB        3.7890   -0.0480   16.7560 C.3   144  HEM144      0.0000
     25  NC        -1.1400    0.9200   21.3290 N.ar  144  HEM144      0.0000
     26  C1C       -0.9360    1.0570   19.9760 C.ar  144  HEM144      0.0000
     27  C2C       -2.0190    1.8120   19.3940 C.ar  144  HEM144      0.0000
     28  C3C       -2.8980    2.1070   20.4070 C.ar  144  HEM144      0.0000
     29  C4C       -2.3370    1.5450   21.6220 C.ar  144  HEM144      0.0000
     30  CMC       -2.1620    2.2290   17.9310 C.3   144  HEM144      0.0000
     31  CAC       -4.0860    2.8180   20.3020 C.3   144  HEM144      0.0000
     32  CBC       -4.1240    4.2290   20.0340 C.3   144  HEM144      0.0000
     33  ND        -1.1720    0.4480   24.2000 N.2   144  HEM144      0.0000
     34  C1D       -2.3680    1.1150   24.1030 C.2   144  HEM144      0.0000
     35  C2D       -2.9590    1.2160   25.4200 C.2   144  HEM144      0.0000
     36  C3D       -2.1050    0.6080   26.2970 C.2   144  HEM144      0.0000
     37  C4D       -0.9720    0.1280   25.5270 C.2   144  HEM144      0.0000
     38  CMD       -4.2840    1.8830   25.7670 C.3   144  HEM144      0.0000
     39  CAD       -2.2530    0.4560   27.7820 C.3   144  HEM144      0.0000
     40  CBD       -1.6390    1.6950   28.3760 C.3   144  HEM144      0.0000
     41  CGD       -1.7000    1.7240   29.8820 C.2   144  HEM144      0.0000
     42  O1D       -0.6150    1.7390   30.5080 O.co2 144  HEM144      0.0000
     43  O2D       -2.8260    1.7460   30.4260 O.co2 144  HEM144      0.0000
@<TRIPOS>BOND
     1    24    23    1
     2    23    20    1
     3    30    27    1
     4    20    21    1
     5    20    19    2
     6     4    21    2
     7     4    26    1
     8    27    26   ar
     9    27    28   ar
    10    22    19    1
    11    21    17    1
    12    19    18    1
    13    26    25   ar
    14    32    31    1
    15    31    28    1
    16    28    29   ar
    17    17    18    2
    18    17     1    1
    19    18     3    1
    20    25    29   ar
    21    25     1    1
    22    29     5    1
    23     3    10    2
    24     1     6    1
    25     1    33    1
    26     5    34    2
    27    10     6   ar
    28    10     9   ar
    29     6     7   ar
    30    34    33    1
    31    34    35    1
    32    33    37    2
    33     9    11    1
    34     9     8   ar
    35     7     8   ar
    36     7     2    2
    37    35    38    1
    38    35    36    2
    39    37     2    1
    40    37    36    1
    41     8    12    1
    42    36    39    1
    43    12    13    1
    44    39    40    1
    45    13    14    1
    46    40    41    1
    47    14    15   ar
    48    14    16   ar
    49    41    43   ar
    50    41    42   ar
