@<TRIPOS>MOLECULE
1nqt_ADP_A_1.pdb
 27 29 0 0 0
SMALL
GASTEIGER

@<TRIPOS>ATOM
      1  PB        64.7690   62.0320  174.2180 P.3     1  ADP1        0.5373
      2  O1B       63.3500   61.4900  174.3070 O.3     1  ADP1       -0.1143
      3  O2B       65.4510   62.1260  175.7910 O.3     1  ADP1       -0.1143
      4  O3B       65.7510   61.3060  173.2840 O.2     1  ADP1       -0.2221
      5  PA        66.0480   64.5770  173.7350 P.3     1  ADP1        0.2231
      6  O1A       67.2450   63.6740  173.4580 O.3     1  ADP1       -0.4370
      7  O2A       65.7350   65.6980  172.7560 O.2     1  ADP1       -0.5169
      8  O3A       64.6800   63.6380  173.7940 O.3     1  ADP1       -0.2261
      9  O5'       66.1330   65.1790  175.2820 O.3     1  ADP1       -0.3111
     10  C5'       67.2980   65.9050  175.7090 C.3     1  ADP1        0.1813
     11  C4'       68.3140   64.9910  176.4490 C.3     1  ADP1        0.1821
     12  O4'       67.8570   64.4700  177.7360 O.3     1  ADP1       -0.3135
     13  C3'       68.8250   63.7720  175.6870 C.3     1  ADP1        0.2184
     14  O3'       70.0840   64.1380  175.0660 O.3     1  ADP1       -0.2174
     15  C2'       69.0510   62.7010  176.7810 C.3     1  ADP1        0.2570
     16  O2'       70.4260   62.2070  176.7500 O.3     1  ADP1       -0.2130
     17  C1'       68.8210   63.4580  178.0950 C.3     1  ADP1        0.3186
     18  N9        68.3270   62.6000  179.2070 N.pl3   1  ADP1       -0.1439
     19  C8        67.2430   61.8190  179.1710 C.3     1  ADP1        0.3377
     20  N7        67.0660   61.2720  180.3810 N.2     1  ADP1       -0.2095
     21  C5        68.0270   61.7030  181.1760 C.2     1  ADP1        0.2526
     22  C6        68.3180   61.5060  182.5250 C.2     1  ADP1        0.4393
     23  N6        67.5350   60.7330  183.2900 N.pl3   1  ADP1        0.2180
     24  N1        69.3850   62.1290  183.0640 N.2     1  ADP1        0.0021
     25  C2        70.1600   62.9280  182.3160 C.3     1  ADP1        0.5254
     26  N3        69.8930   63.1310  181.0140 N.2     1  ADP1       -0.0055
     27  C4        68.8350   62.5400  180.4340 C.2     1  ADP1        0.3518
@<TRIPOS>BOND
     1     7     5    2
     2     4     1    2
     3     6     5    1
     4     5     8    1
     5     5     9    1
     6     8     1    1
     7     1     2    1
     8     1     3    1
     9    14    13    1
    10     9    10    1
    11    13    11    1
    12    13    15    1
    13    10    11    1
    14    11    12    1
    15    16    15    1
    16    15    17    1
    17    12    17    1
    18    17    18    1
    19    19    18    1
    20    19    20    1
    21    18    27    1
    22    20    21    2
    23    27    26    2
    24    27    21    1
    25    26    25    1
    26    21    22    1
    27    25    24    1
    28    22    24    2
    29    22    23    1
