@<TRIPOS>MOLECULE
1nqu_RDL_A_1.pdb
 23 24 0 0 0
SMALL
GASTEIGER

@<TRIPOS>ATOM
      1  O15      137.5610   10.6860  142.2020 O.3   1201  RDL1201    -0.2175
      2  C15      137.4810   11.3130  143.4720 C.3   1201  RDL1201     0.2175
      3  C14      138.8870   11.4800  144.0720 C.3   1201  RDL1201     0.2175
      4  O14      139.4860   10.1890  144.2790 O.3   1201  RDL1201    -0.2175
      5  C13      139.8010   12.2770  143.1560 C.3   1201  RDL1201     0.2166
      6  O13      139.2360   13.5860  142.9710 O.3   1201  RDL1201    -0.2175
      7  C12      141.2430   12.3710  143.6570 C.3   1201  RDL1201     0.2049
      8  O12      142.0900   13.0220  142.7230 O.3   1201  RDL1201    -0.2185
      9  C11      141.3310   13.1880  144.8960 C.3   1201  RDL1201     0.1373
     10  N9       142.5370   13.1050  145.6960 N.am  1201  RDL1201    -0.2140
     11  C8       142.5390   12.2790  146.7330 C.2   1201  RDL1201     0.3496
     12  O8       141.5700   11.5200  146.9530 O.2   1201  RDL1201    -0.2553
     13  C7       143.6880   12.2710  147.6590 C.1   1201  RDL1201     0.2614
     14  O7       143.6620   11.4960  148.6560 O.2   1201  RDL1201    -0.2046
     15  C10      143.5630   13.9280  145.4420 C.2   1201  RDL1201     0.2486
     16  C5       144.6900   13.9150  146.3520 C.2   1201  RDL1201     0.2834
     17  N6       144.7220   13.0760  147.4170 N.2   1201  RDL1201    -0.3122
     18  C4       145.7720   14.8260  146.0770 C.1   1201  RDL1201     0.2523
     19  O4       146.7800   14.8440  146.8340 O.2   1201  RDL1201    -0.2057
     20  N3       145.6800   15.6200  144.9970 N.2   1201  RDL1201    -0.2300
     21  C2       144.6140   15.5640  144.1540 C.1   1201  RDL1201     0.3669
     22  N1       143.6000   14.7500  144.3760 N.2   1201  RDL1201    -0.2886
     23  O2       144.6010   16.3010  143.1530 O.2   1201  RDL1201    -0.1744
@<TRIPOS>BOND
     1     1     2    1
     2     8     7    1
     3     6     5    1
     4    23    21    2
     5     5     7    1
     6     5     3    1
     7     2     3    1
     8     7     9    1
     9     3     4    1
    10    21    22    2
    11    21    20    2
    12    22    15    2
    13     9    10    1
    14    20    18    2
    15    15    10    1
    16    15    16    1
    17    10    11   am
    18    18    16    1
    19    18    19    2
    20    16    17    2
    21    11    12    2
    22    11    13    1
    23    17    13    2
    24    13    14    2
