@<TRIPOS>MOLECULE
1nqv_LMZ_A_1.pdb
 20 20 0 0 0
SMALL
GASTEIGER

@<TRIPOS>ATOM
      1  N1       143.1710   14.7780  143.9180 N.2   1201  LMZ1201    -0.2930
      2  C2       144.1900   15.5770  143.6570 C.1   1201  LMZ1201     0.3663
      3  N3       145.1790   15.6570  144.5490 N.2   1201  LMZ1201    -0.2351
      4  C4       145.2720   14.9600  145.6880 C.1   1201  LMZ1201     0.2200
      5  C5       144.2820   14.1310  146.0100 C.3   1201  LMZ1201     0.2916
      6  C6       143.0850   14.0980  145.1370 C.2   1201  LMZ1201     0.2273
      7  N7       142.0320   13.1570  145.3080 N.pl3 1201  LMZ1201    -0.2076
      8  C8       140.8220   13.5060  144.5570 C.3   1201  LMZ1201     0.1501
      9  C9       140.8010   12.6040  143.3240 C.3   1201  LMZ1201     0.2063
     10  O9       141.6630   13.1500  142.3080 O.3   1201  LMZ1201    -0.2184
     11  C10      139.3890   12.3940  142.7450 C.3   1201  LMZ1201     0.2166
     12  O10      138.7630   13.6640  142.5300 O.3   1201  LMZ1201    -0.2175
     13  C11      138.4650   11.5450  143.6540 C.3   1201  LMZ1201     0.2175
     14  O11      139.0780   10.2630  143.8540 O.3   1201  LMZ1201    -0.2175
     15  C12      137.0560   11.2950  143.0320 C.3   1201  LMZ1201     0.2175
     16  O12      137.1550   10.7010  141.7570 O.3   1201  LMZ1201    -0.2175
     17  N5       144.2910   13.4450  147.1640 N.4   1201  LMZ1201    -0.0222
     18  O52      143.4280   12.5530  147.3110 O.3   1201  LMZ1201    -0.0985
     19  O4       146.2620   15.0870  146.4280 O.2   1201  LMZ1201    -0.2114
     20  O2       144.2580   16.2660  142.6580 O.2   1201  LMZ1201    -0.1745
@<TRIPOS>BOND
     1    16    15    1
     2    10     9    1
     3    12    11    1
     4    20     2    2
     5    11     9    1
     6    11    13    1
     7    15    13    1
     8     9     8    1
     9    13    14    1
    10     2     1    2
    11     2     3    2
    12     1     6    2
    13     3     4    2
    14     8     7    1
    15     6     7    1
    16     6     5    1
    17     4     5    1
    18     4    19    2
    19     5    17    1
    20    17    18    1
