@<TRIPOS>MOLECULE
1nqw_5YL_A_1.pdb
 27 27 0 0 0
SMALL
GASTEIGER

@<TRIPOS>ATOM
      1  O3P      145.6110    9.7970  153.2630 O.3   1201  5YL1201    -0.3569
      2  P        145.1390    9.4360  151.8690 P.3   1201  5YL1201     0.1215
      3  O1P      143.6780    9.1120  151.8300 O.3   1201  5YL1201    -0.3569
      4  O2P      146.0040    8.3890  151.2200 O.2   1201  5YL1201    -0.4598
      5  C17      145.3490   10.8300  151.0010 C.3   1201  5YL1201     0.0845
      6  C16      144.9560   10.9490  149.5240 C.2   1201  5YL1201    -0.0230
      7  C15      145.9660   11.7120  148.6110 C.2   1201  5YL1201    -0.0302
      8  C14      145.3900   12.2290  147.2590 C.3   1201  5YL1201     0.0274
      9  C13      144.4140   13.4090  147.4410 C.3   1201  5YL1201     0.0310
     10  C5       144.1560   14.1080  146.1290 C.3   1201  5YL1201     0.1882
     11  C4       145.2370   15.0140  145.7200 C.1   1201  5YL1201     0.2006
     12  O4       146.2060   15.2370  146.4800 O.2   1201  5YL1201    -0.2129
     13  N3       145.1910   15.6130  144.5480 N.2   1201  5YL1201    -0.2365
     14  C2       144.2010   15.4170  143.6860 C.1   1201  5YL1201     0.3662
     15  O2       144.2570   16.0500  142.6240 O.2   1201  5YL1201    -0.1745
     16  N1       143.1850   14.5940  143.9420 N.2   1201  5YL1201    -0.2946
     17  C6       143.0790   13.9210  145.1060 C.2   1201  5YL1201     0.2077
     18  N7       142.0210   13.0840  145.2930 N.pl3 1201  5YL1201    -0.2089
     19  C8       140.7680   13.2690  144.5790 C.3   1201  5YL1201     0.1501
     20  C9       140.7430   12.4680  143.2660 C.3   1201  5YL1201     0.2063
     21  O9       141.5810   13.0690  142.2830 O.3   1201  5YL1201    -0.2184
     22  C10      139.3160   12.3510  142.7140 C.3   1201  5YL1201     0.2166
     23  O10      138.7550   13.6480  142.5280 O.3   1201  5YL1201    -0.2175
     24  C11      138.4050   11.5350  143.6450 C.3   1201  5YL1201     0.2175
     25  O11      138.9990   10.2700  143.9290 O.3   1201  5YL1201    -0.2175
     26  C12      137.0100   11.2950  143.0410 C.3   1201  5YL1201     0.2175
     27  O12      137.1380   10.6880  141.7740 O.3   1201  5YL1201    -0.2175
@<TRIPOS>BOND
     1    27    26    1
     2    21    20    1
     3    23    22    1
     4    15    14    2
     5    22    20    1
     6    22    24    1
     7    26    24    1
     8    20    19    1
     9    24    25    1
    10    14    16    2
    11    14    13    2
    12    16    17    2
    13    13    11    2
    14    19    18    1
    15    17    18    1
    16    17    10    1
    17    11    10    1
    18    11    12    2
    19    10     9    1
    20     8     9    1
    21     8     7    1
    22     7     6    2
    23     6     5    1
    24     5     2    1
    25     4     2    2
    26     3     2    1
    27     2     1    1
