@<TRIPOS>MOLECULE
1nqx_RLP_A_1.pdb
 27 28 0 0 0
SMALL
GASTEIGER

@<TRIPOS>ATOM
      1  O19      140.7000   10.1240  149.0070 O.co2 1201  RLP1201    -0.2456
      2  C18      141.0430   11.3050  149.1820 C.2   1201  RLP1201     0.3653
      3  O18      140.2690   12.2290  148.9920 O.co2 1201  RLP1201    -0.2456
      4  C17      142.4420   11.6880  149.6180 C.3   1201  RLP1201     0.1216
      5  C16      143.4280   11.3360  148.5100 C.3   1201  RLP1201     0.0756
      6  C7       143.3830   12.2710  147.2980 C.2   1201  RLP1201     0.1642
      7  C8       142.2220   12.2350  146.3690 C.2   1201  RLP1201     0.2802
      8  O8       141.2570   11.4530  146.5720 O.2   1201  RLP1201    -0.2671
      9  N9       142.1950   13.0460  145.2890 N.am  1201  RLP1201    -0.2224
     10  C10      143.1920   13.9160  145.0410 C.2   1201  RLP1201     0.2471
     11  C5       144.3410   13.9270  145.9580 C.2   1201  RLP1201     0.2705
     12  N6       144.4020   13.1100  147.0220 N.2   1201  RLP1201    -0.3851
     13  C4       145.4310   14.8660  145.6540 C.1   1201  RLP1201     0.2513
     14  O4       146.4290   14.9740  146.4290 O.2   1201  RLP1201    -0.2057
     15  N3       145.3100   15.6290  144.5490 N.2   1201  RLP1201    -0.2300
     16  C2       144.2400   15.5580  143.7210 C.1   1201  RLP1201     0.3669
     17  O2       144.2580   16.2980  142.7340 O.2   1201  RLP1201    -0.1744
     18  N1       143.2070   14.7110  143.9210 N.2   1201  RLP1201    -0.2886
     19  C11      140.9930   13.1090  144.4630 C.3   1201  RLP1201     0.1366
     20  C12      140.8540   12.2570  143.2500 C.3   1201  RLP1201     0.2049
     21  O12      141.7320   12.8930  142.3340 O.3   1201  RLP1201    -0.2185
     22  C13      139.4020   12.2040  142.7790 C.3   1201  RLP1201     0.2166
     23  O13      138.9080   13.5390  142.5850 O.3   1201  RLP1201    -0.2175
     24  C14      138.4700   11.4320  143.7150 C.3   1201  RLP1201     0.2175
     25  O14      139.0310   10.1570  144.0260 O.3   1201  RLP1201    -0.2175
     26  C15      137.0790   11.2310  143.0890 C.3   1201  RLP1201     0.2175
     27  O15      137.1880   10.6460  141.7820 O.3   1201  RLP1201    -0.2175
@<TRIPOS>BOND
     1    27    26    1
     2    21    20    1
     3    23    22    1
     4    17    16    2
     5    22    20    1
     6    22    24    1
     7    26    24    1
     8    20    19    1
     9    24    25    1
    10    16    18    2
    11    16    15    2
    12    18    10    2
    13    19     9    1
    14    15    13    2
    15    10     9    1
    16    10    11    1
    17     9     7   am
    18    13    11    1
    19    13    14    2
    20    11    12    2
    21     7     8    2
    22     7     6    1
    23    12     6    2
    24     6     5    1
    25     5     4    1
    26     3     2   ar
    27     1     2   ar
    28     2     4    1
