@<TRIPOS>MOLECULE
1nr5_NAD_A_1.pdb
 44 48 0 0 0
SMALL
GASTEIGER

@<TRIPOS>ATOM
      1  PA       -17.4900  -11.1770   -5.9240 P.3   400  NAD400      0.2189
      2  O1A      -16.3220  -11.4710   -6.7390 O.2   400  NAD400     -0.5170
      3  O2A      -17.2850  -10.6910   -4.5620 O.3   400  NAD400     -0.4371
      4  O5B      -18.3840  -12.5440   -5.9190 O.3   400  NAD400     -0.3112
      5  C5B      -19.7500  -12.5140   -5.2950 C.3   400  NAD400      0.1813
      6  C4B      -19.8790  -13.6120   -4.2160 C.3   400  NAD400      0.1821
      7  O4B      -20.1570  -14.8910   -4.7530 O.3   400  NAD400     -0.3135
      8  C3B      -18.6680  -13.8730   -3.2980 C.3   400  NAD400      0.2184
      9  O3B      -18.9730  -14.0540   -2.1090 O.3   400  NAD400     -0.2174
     10  C2B      -17.9850  -15.1290   -3.8790 C.3   400  NAD400      0.2570
     11  O2B      -17.1900  -15.8170   -2.9320 O.3   400  NAD400     -0.2130
     12  C1B      -19.1690  -15.9080   -4.3380 C.3   400  NAD400      0.3186
     13  N9A      -19.0930  -16.7170   -5.5570 N.pl3 400  NAD400     -0.1439
     14  C8A      -18.4360  -16.3330   -6.7200 C.3   400  NAD400      0.3377
     15  N7A      -18.6450  -17.1970   -7.6910 N.2   400  NAD400     -0.2095
     16  C5A      -19.4010  -18.2060   -7.1250 C.2   400  NAD400      0.2526
     17  C6A      -19.9410  -19.4110   -7.6600 C.2   400  NAD400      0.4393
     18  N6A      -19.9070  -19.7540   -8.9380 N.pl3 400  NAD400      0.2180
     19  N1A      -20.5360  -20.2910   -6.7560 N.2   400  NAD400      0.0021
     20  C2A      -20.6930  -19.8760   -5.4540 C.3   400  NAD400      0.5254
     21  N3A      -20.3110  -18.7280   -4.8650 N.2   400  NAD400     -0.0055
     22  C4A      -19.6340  -17.9350   -5.7930 C.2   400  NAD400      0.3518
     23  O3       -18.5240  -10.1090   -6.6520 O.3   400  NAD400     -0.2703
     24  PN       -19.0060   -9.7400   -8.1530 P.3   400  NAD400      0.2189
     25  O1N      -18.6410  -10.7900   -9.0910 O.2   400  NAD400     -0.5170
     26  O2N      -20.4320   -9.2970   -7.9720 O.3   400  NAD400     -0.4371
     27  O5D      -18.0500   -8.4530   -8.4070 O.3   400  NAD400     -0.3112
     28  C5D      -18.2860   -7.1810   -7.8890 C.3   400  NAD400      0.1813
     29  C4D      -17.0680   -6.3040   -8.2080 C.3   400  NAD400      0.1799
     30  O4D      -16.9030   -6.1890   -9.6570 O.3   400  NAD400     -0.3327
     31  C3D      -17.1930   -4.8610   -7.6680 C.3   400  NAD400      0.2158
     32  O3D      -16.0730   -4.6230   -6.8470 O.3   400  NAD400     -0.2175
     33  C2D      -17.2510   -4.0040   -8.9140 C.3   400  NAD400      0.2309
     34  O2D      -16.7490   -2.6880   -8.7040 O.3   400  NAD400     -0.2158
     35  C1D      -16.4570   -4.8200   -9.9210 C.3   400  NAD400      0.2263
     36  N1N      -16.7870   -4.6070  -11.3340 N.pl3 400  NAD400     -0.2787
     37  C2N      -15.6630   -4.3580  -12.1090 C.3   400  NAD400      0.1244
     38  C3N      -15.8010   -4.2860  -13.5080 C.2   400  NAD400      0.0544
     39  C7N      -14.5740   -4.1650  -14.4810 C.2   400  NAD400      0.2818
     40  O7N      -14.7540   -3.9200  -15.6760 O.2   400  NAD400     -0.2670
     41  N7N      -13.3200   -4.3420  -13.9820 N.am  400  NAD400     -0.0839
     42  C4N      -17.0970   -4.3380  -14.1690 C.2   400  NAD400      0.0033
     43  C5N      -18.2010   -4.4140  -13.2540 C.2   400  NAD400      0.0157
     44  C6N      -18.1320   -4.6310  -11.9000 C.2   400  NAD400      0.0633
@<TRIPOS>BOND
     1    40    39    2
     2    39    41   am
     3    39    38    1
     4    42    38    2
     5    42    43    1
     6    38    37    1
     7    43    44    2
     8    37    36    1
     9    44    36    1
    10    36    35    1
    11    35    30    1
    12    35    33    1
    13    30    29    1
    14    25    24    2
    15    18    17    1
    16    33    34    1
    17    33    31    1
    18    27    24    1
    19    27    28    1
    20    29    28    1
    21    29    31    1
    22    24    26    1
    23    24    23    1
    24    15    16    2
    25    15    14    1
    26    31    32    1
    27    17    16    1
    28    17    19    2
    29    16    22    1
    30    19    20    1
    31     2     1    2
    32    14    13    1
    33    23     1    1
    34     1     4    1
    35     1     3    1
    36     4     5    1
    37    22    13    1
    38    22    21    2
    39    13    12    1
    40    20    21    1
    41     5     6    1
    42     7    12    1
    43     7     6    1
    44    12    10    1
    45     6     8    1
    46    10     8    1
    47    10    11    1
    48     8     9    1
