@<TRIPOS>MOLECULE
1nr5_CRB_A_1.pdb
 17 17 0 0 0
SMALL
GASTEIGER

@<TRIPOS>ATOM
      1  C1       -16.2180   -0.7120  -18.2510 C.2   1500  CRB1500     0.3917
      2  O11      -15.7750    0.2750  -18.9350 O.co2 1500  CRB1500    -0.2429
      3  O12      -15.9160   -1.9050  -18.4720 O.co2 1500  CRB1500    -0.2429
      4  C2       -17.1770   -0.3430  -17.0680 C.3   1500  CRB1500     0.2215
      5  O2       -17.8100    0.9110  -17.3160 O.3   1500  CRB1500    -0.2140
      6  C3       -18.3190   -1.3740  -16.7980 C.3   1500  CRB1500     0.0771
      7  C4       -19.0470   -1.1140  -15.4770 C.3   1500  CRB1500     0.1851
      8  O4       -19.9830   -2.1700  -15.2140 O.3   1500  CRB1500    -0.2203
      9  C5       -18.0170   -1.0210  -14.3080 C.3   1500  CRB1500     0.1827
     10  O5       -18.6330   -0.9250  -13.1260 O.3   1500  CRB1500    -0.2204
     11  C6       -17.0550    0.1310  -14.5660 C.3   1500  CRB1500     0.0433
     12  C7       -16.0880    0.4320  -13.4300 C.3   1500  CRB1500     0.0616
     13  C8       -16.2290   -0.2020  -15.8530 C.3   1500  CRB1500     0.0447
     14  P1       -15.2450    2.0170  -13.5620 P.3   1500  CRB1500     0.1173
     15  O91      -14.3970    2.0790  -14.7610 O.2   1500  CRB1500    -0.4601
     16  O92      -14.4680    2.1450  -12.2820 O.3   1500  CRB1500    -0.3571
     17  O93      -16.3840    3.1460  -13.5960 O.3   1500  CRB1500    -0.3571
@<TRIPOS>BOND
     1     2     1   ar
     2     3     1   ar
     3     1     4    1
     4     5     4    1
     5     4     6    1
     6     4    13    1
     7     6     7    1
     8    13    11    1
     9     7     8    1
    10     7     9    1
    11    15    14    2
    12    11     9    1
    13    11    12    1
    14     9    10    1
    15    17    14    1
    16    14    12    1
    17    14    16    1
