@<TRIPOS>MOLECULE
1nr6_HEM_A_1.pdb
 43 50 0 0 0
SMALL
GASTEIGER

@<TRIPOS>ATOM
      1 FE        -11.5200  -20.0230  -31.3900 Fe    500  HEM500      0.0000
      2  CHA      -13.2970  -18.9210  -28.7670 C.2   500  HEM500      0.0000
      3  CHB       -9.3840  -21.5330  -29.2930 C.2   500  HEM500      0.0000
      4  CHC       -9.5560  -20.7590  -33.9440 C.2   500  HEM500      0.0000
      5  CHD      -13.6110  -18.4090  -33.4350 C.2   500  HEM500      0.0000
      6  NA       -11.3860  -20.2790  -29.3640 N.2   500  HEM500      0.0000
      7  C1A      -12.2180  -19.7420  -28.4350 C.2   500  HEM500      0.0000
      8  C2A      -11.8370  -20.1620  -27.1530 C.2   500  HEM500      0.0000
      9  C3A      -10.7450  -20.9740  -27.3370 C.2   500  HEM500      0.0000
     10  C4A      -10.5090  -21.0100  -28.7060 C.2   500  HEM500      0.0000
     11  CMA       -9.9050  -21.7300  -26.2480 C.3   500  HEM500      0.0000
     12  CAA      -12.5280  -19.7750  -25.8360 C.3   500  HEM500      0.0000
     13  CBA      -13.6330  -20.6980  -25.4000 C.3   500  HEM500      0.0000
     14  CGA      -14.2830  -20.3250  -24.0790 C.2   500  HEM500      0.0000
     15  O1A      -14.4220  -21.1870  -23.2260 O.co2 500  HEM500      0.0000
     16  O2A      -14.6590  -19.1880  -23.8450 O.co2 500  HEM500      0.0000
     17  NB        -9.6830  -20.9400  -31.5780 N.ar  500  HEM500      0.0000
     18  C1B       -8.9720  -21.5170  -30.6160 C.ar  500  HEM500      0.0000
     19  C2B       -7.7900  -22.0830  -31.1240 C.ar  500  HEM500      0.0000
     20  C3B       -7.8270  -21.8040  -32.4970 C.ar  500  HEM500      0.0000
     21  C4B       -9.0300  -21.0900  -32.7020 C.ar  500  HEM500      0.0000
     22  CMB       -6.7550  -22.8210  -30.3010 C.3   500  HEM500      0.0000
     23  CAB       -6.8960  -22.1360  -33.5040 C.3   500  HEM500      0.0000
     24  CBB       -5.8130  -23.1380  -33.4840 C.3   500  HEM500      0.0000
     25  NC       -11.5710  -19.6410  -33.4000 N.2   500  HEM500      0.0000
     26  C1C      -10.7590  -20.1840  -34.2930 C.2   500  HEM500      0.0000
     27  C2C      -11.1180  -19.8420  -35.5740 C.2   500  HEM500      0.0000
     28  C3C      -12.2510  -19.0140  -35.4500 C.2   500  HEM500      0.0000
     29  C4C      -12.4900  -18.9230  -34.0660 C.2   500  HEM500      0.0000
     30  CMC      -10.3950  -20.2910  -36.8870 C.3   500  HEM500      0.0000
     31  CAC      -13.0330  -18.3800  -36.3580 C.3   500  HEM500      0.0000
     32  CBC      -13.6640  -18.8790  -37.5080 C.3   500  HEM500      0.0000
     33  ND       -13.2390  -18.9420  -31.1620 N.ar  500  HEM500      0.0000
     34  C1D      -13.9370  -18.4020  -32.1180 C.ar  500  HEM500      0.0000
     35  C2D      -15.0090  -17.6960  -31.5740 C.ar  500  HEM500      0.0000
     36  C3D      -14.9390  -17.8250  -30.2360 C.ar  500  HEM500      0.0000
     37  C4D      -13.8070  -18.6170  -30.0110 C.ar  500  HEM500      0.0000
     38  CMD      -16.0910  -16.9060  -32.3340 C.3   500  HEM500      0.0000
     39  CAD      -15.8970  -17.2330  -29.1700 C.3   500  HEM500      0.0000
     40  CBD      -17.0510  -18.2330  -28.8650 C.3   500  HEM500      0.0000
     41  CGD      -18.1130  -17.8170  -27.8190 C.2   500  HEM500      0.0000
     42  O1D      -19.2190  -18.3190  -27.8200 O.co2 500  HEM500      0.0000
     43  O2D      -17.8160  -16.9630  -26.9750 O.co2 500  HEM500      0.0000
@<TRIPOS>BOND
     1    32    31    1
     2    30    27    1
     3    31    28    1
     4    27    28    2
     5    27    26    1
     6    28    29    1
     7    26     4    2
     8    26    25    1
     9    29     5    1
    10    29    25    2
    11     4    21    1
    12    23    24    1
    13    23    20    1
    14     5    34    2
    15    25     1    1
    16    21    20   ar
    17    21    17   ar
    18    20    19   ar
    19    38    35    1
    20    34    35   ar
    21    34    33   ar
    22    17     1    1
    23    17    18   ar
    24    35    36   ar
    25     1    33    1
    26     1     6    1
    27    33    37   ar
    28    19    18   ar
    29    19    22    1
    30    18     3    1
    31    36    37   ar
    32    36    39    1
    33    37     2    2
    34     6    10    1
    35     6     7    2
    36     3    10    2
    37    39    40    1
    38    40    41    1
    39     2     7    1
    40    10     9    1
    41     7     8    1
    42    42    41   ar
    43    41    43   ar
    44     9     8    2
    45     9    11    1
    46     8    12    1
    47    12    13    1
    48    13    14    1
    49    14    16   ar
    50    14    15   ar
