@<TRIPOS>MOLECULE
1nr6_DIF_A_1.pdb
 19 20 0 0 0
SMALL
GASTEIGER

@<TRIPOS>ATOM
      1  C1        -8.2200  -16.1770  -28.6420 C.ar  501  DIF501      0.0128
      2  C2        -8.5510  -14.8780  -29.0060 C.ar  501  DIF501      0.0737
      3 CL2        -7.2680  -13.8110  -29.2480 Cl    501  DIF501     -0.0809
      4  C3        -9.9130  -14.4960  -29.1610 C.ar  501  DIF501      0.0915
      5  C4       -10.9140  -15.4610  -28.9430 C.ar  501  DIF501      0.0737
      6 CL4       -12.5520  -15.0820  -29.1130 Cl    501  DIF501     -0.0809
      7  C5       -10.5560  -16.7660  -28.5780 C.ar  501  DIF501      0.0128
      8  C6        -9.2140  -17.1220  -28.4270 C.ar  501  DIF501      0.0018
      9  N1       -10.2160  -13.1640  -29.5280 N.pl3 501  DIF501     -0.2111
     10  C7        -9.4200  -10.9430  -29.1770 C.ar  501  DIF501      0.0043
     11  C8        -9.7460  -12.1890  -28.6290 C.ar  501  DIF501      0.0671
     12  C9        -9.5840  -12.3950  -27.2500 C.ar  501  DIF501      0.0162
     13  C10       -9.1020  -11.3620  -26.4440 C.ar  501  DIF501      0.0013
     14  C11       -8.7790  -10.1210  -27.0030 C.ar  501  DIF501     -0.0002
     15  C12       -8.9400   -9.9120  -28.3740 C.ar  501  DIF501     -0.0024
     16  C13       -9.5880  -10.7280  -30.6080 C.3   501  DIF501      0.1416
     17  C14      -10.7950   -9.9890  -30.8370 C.2   501  DIF501      0.3693
     18  O1       -11.8520  -10.4410  -30.4210 O.co2 501  DIF501     -0.2453
     19  O2       -10.7720   -8.8390  -31.4910 O.co2 501  DIF501     -0.2453
@<TRIPOS>BOND
     1    19    17   ar
     2    17    16    1
     3    17    18   ar
     4    16    10    1
     5     9     4    1
     6     9    11    1
     7     3     2    1
     8    10    11   ar
     9    10    15   ar
    10     4     2   ar
    11     4     5   ar
    12     6     5    1
    13     2     1   ar
    14     5     7   ar
    15     1     8   ar
    16    11    12   ar
    17     7     8   ar
    18    15    14   ar
    19    12    13   ar
    20    14    13   ar
