@<TRIPOS>MOLECULE
1nrg_PLP_A_1.pdb
 16 16 0 0 0
SMALL
GASTEIGER

@<TRIPOS>ATOM
      1  N1        28.9660   16.2470   21.3610 N.ar  320  PLP320     -0.2452
      2  C2        29.2630   15.7320   20.0780 C.ar  320  PLP320      0.0982
      3  C2A       28.3450   16.0750   18.9110 C.3   320  PLP320      0.0555
      4  C3        30.4040   14.8900   19.8790 C.ar  320  PLP320      0.2120
      5  O3        30.6840   14.3840   18.6060 O.3   320  PLP320     -0.2852
      6  C4        31.2600   14.5870   20.9910 C.ar  320  PLP320      0.0822
      7  C4A       32.5350   13.6730   20.8260 C.2   320  PLP320      0.2372
      8  O4A       32.8670   13.1690   19.7200 O.2   320  PLP320     -0.2830
      9  C5        30.9420   15.1280   22.2840 C.ar  320  PLP320      0.0333
     10  C6        29.7960   15.9560   22.4620 C.ar  320  PLP320      0.0969
     11  C5A       31.8480   14.8190   23.4740 C.3   320  PLP320      0.1819
     12  O4P       31.3980   15.4700   24.6550 O.3   320  PLP320     -0.2653
     13  P         32.2760   16.7080   25.2080 P.3   320  PLP320      0.5329
     14  O1P       33.6330   16.1350   25.8600 O.3   320  PLP320     -0.1145
     15  O2P       31.4160   17.4900   26.3300 O.3   320  PLP320     -0.1145
     16  O3P       32.6630   17.7260   24.0170 O.2   320  PLP320     -0.2224
@<TRIPOS>BOND
     1     5     4    1
     2     3     2    1
     3     8     7    2
     4     4     2   ar
     5     4     6   ar
     6     2     1   ar
     7     7     6    1
     8     6     9   ar
     9     1    10   ar
    10     9    10   ar
    11     9    11    1
    12    11    12    1
    13    16    13    2
    14    12    13    1
    15    13    14    1
    16    13    15    1
