@<TRIPOS>MOLECULE
1nrg_FMN_A_1.pdb
 31 33 0 0 0
SMALL
GASTEIGER

@<TRIPOS>ATOM
      1  N1        26.9490   13.0950   20.1930 N.2   300  FMN300     -0.2890
      2  C2        26.3130   13.6410   21.2170 C.1   300  FMN300      0.3669
      3  O2        25.3440   14.3080   21.1260 O.2   300  FMN300     -0.1744
      4  N3        26.8140   13.4690   22.5330 N.2   300  FMN300     -0.2300
      5  C4        28.0180   12.7600   22.8270 C.1   300  FMN300      0.2513
      6  O4        28.3440   12.6570   24.0100 O.2   300  FMN300     -0.2057
      7  C4A       28.7210   12.1900   21.7230 C.2   300  FMN300      0.2700
      8  N5        29.8460   11.4700   21.8250 N.2   300  FMN300     -0.3878
      9  C5A       30.4320   10.8400   20.7820 C.2   300  FMN300      0.1320
     10  C6        31.5460    9.9900   20.9960 C.2   300  FMN300      0.0250
     11  C7        32.0940    9.2810   19.9710 C.2   300  FMN300     -0.0238
     12  C7M       33.2710    8.3620   20.2310 C.3   300  FMN300      0.0308
     13  C8        31.5720    9.3800   18.6110 C.2   300  FMN300     -0.0280
     14  C8M       32.1310    8.6300   17.4300 C.3   300  FMN300      0.0304
     15  C9        30.4950   10.2030   18.3440 C.2   300  FMN300     -0.0041
     16  C9A       29.8640   10.9700   19.3960 C.3   300  FMN300      0.1497
     17  N10       28.6810   11.7920   19.2920 N.pl3 300  FMN300     -0.2691
     18  C10       28.0710   12.3930   20.3420 C.2   300  FMN300      0.2416
     19  C1'       28.0280   11.9710   17.9130 C.3   300  FMN300      0.1294
     20  C2'       26.8700   10.8850   17.7280 C.3   300  FMN300      0.2044
     21  O2'       27.4250    9.5580   17.4480 O.3   300  FMN300     -0.2185
     22  C3'       25.8670   11.3390   16.7020 C.3   300  FMN300      0.2164
     23  O3'       26.5350   11.6810   15.4840 O.3   300  FMN300     -0.2175
     24  C4'       25.0580   12.5860   17.1550 C.3   300  FMN300      0.2147
     25  O4'       24.7400   12.6380   18.5600 O.3   300  FMN300     -0.2176
     26  C5'       23.7480   12.6410   16.3330 C.3   300  FMN300      0.1892
     27  O5'       22.9620   11.2900   16.5830 O.3   300  FMN300     -0.2674
     28  P         21.4010   11.1860   16.2820 P.3   300  FMN300      0.5327
     29  O1P       21.0460    9.6860   16.4470 O.3   300  FMN300     -0.1145
     30  O2P       20.6430   11.9880   17.2280 O.3   300  FMN300     -0.1145
     31  O3P       21.2860   11.7250   14.8610 O.2   300  FMN300     -0.2224
@<TRIPOS>BOND
     1    31    28    2
     2    23    22    1
     3    28    29    1
     4    28    27    1
     5    28    30    1
     6    26    27    1
     7    26    24    1
     8    22    24    1
     9    22    20    1
    10    24    25    1
    11    14    13    1
    12    21    20    1
    13    20    19    1
    14    19    17    1
    15    15    13    2
    16    15    16    1
    17    13    11    1
    18    17    16    1
    19    17    18    1
    20    16     9    1
    21    11    12    1
    22    11    10    2
    23     1    18    2
    24     1     2    2
    25    18     7    1
    26     9    10    1
    27     9     8    2
    28     3     2    2
    29     2     4    2
    30     7     8    2
    31     7     5    1
    32     4     5    2
    33     5     6    2
