@<TRIPOS>MOLECULE
1nrj_GTP_B_1.pdb
 32 34 0 0 0
SMALL
GASTEIGER

@<TRIPOS>ATOM
      1  PG        15.8330   46.8650   24.9670 P.3   1001  GTP1001     0.5373
      2  O1G       15.9560   47.9040   25.9810 O.3   1001  GTP1001    -0.1143
      3  O2G       15.8340   47.4000   23.5740 O.2   1001  GTP1001    -0.2221
      4  O3G       14.6400   45.9410   25.2460 O.3   1001  GTP1001    -0.1143
      5  O3B       17.3650   45.9980   25.1630 O.3   1001  GTP1001    -0.2258
      6  PB        17.9120   44.8820   24.2200 P.3   1001  GTP1001     0.2277
      7  O1B       17.6280   43.5390   24.7970 O.3   1001  GTP1001    -0.4368
      8  O2B       17.4700   45.0820   22.7660 O.2   1001  GTP1001    -0.5168
      9  O3A       19.5110   45.1730   24.4360 O.3   1001  GTP1001    -0.2700
     10  PA        20.6250   45.5490   23.3330 P.3   1001  GTP1001     0.2189
     11  O1A       20.6310   44.6800   22.1940 O.2   1001  GTP1001    -0.5170
     12  O2A       20.5160   46.9960   22.9930 O.3   1001  GTP1001    -0.4371
     13  O5'       21.9700   45.2330   24.1550 O.3   1001  GTP1001    -0.3112
     14  C5'       22.0970   45.8190   25.4180 C.3   1001  GTP1001     0.1813
     15  C4'       23.5430   46.0030   25.7560 C.3   1001  GTP1001     0.1799
     16  O4'       24.2090   44.7370   25.9230 O.3   1001  GTP1001    -0.3326
     17  C3'       24.3480   46.7770   24.7020 C.3   1001  GTP1001     0.2158
     18  O3'       25.2910   47.6920   25.3320 O.3   1001  GTP1001    -0.2175
     19  C2'       25.1040   45.6830   23.9970 C.3   1001  GTP1001     0.2310
     20  O2'       26.3270   46.1350   23.3380 O.3   1001  GTP1001    -0.2158
     21  C1'       25.3740   44.6700   25.1120 C.3   1001  GTP1001     0.2293
     22  N9        25.6460   43.3070   24.6610 N.pl3 1001  GTP1001    -0.2354
     23  C8        24.9250   42.6030   23.7030 C.3   1001  GTP1001     0.2246
     24  N7        25.4410   41.3860   23.5410 N.2   1001  GTP1001    -0.2322
     25  C5        26.5580   41.3070   24.4120 C.2   1001  GTP1001     0.2182
     26  C6        27.4880   40.3110   24.6770 C.1   1001  GTP1001     0.2372
     27  O6        27.6150   39.1930   24.1750 O.2   1001  GTP1001    -0.2069
     28  N1        28.4290   40.5810   25.6810 N.2   1001  GTP1001    -0.2485
     29  C2        28.5110   41.7930   26.3180 C.1   1001  GTP1001     0.2531
     30  N2        29.4710   41.9710   27.2840 N.pl3 1001  GTP1001    -0.0226
     31  N3        27.5920   42.7300   26.0780 N.2   1001  GTP1001    -0.3074
     32  C4        26.6420   42.4870   25.1260 C.2   1001  GTP1001     0.2300
@<TRIPOS>BOND
     1    11    10    2
     2     8     6    2
     3    12    10    1
     4    10    13    1
     5    10     9    1
     6    20    19    1
     7    24    23    1
     8    24    25    2
     9     3     1    2
    10    23    22    1
    11    19    17    1
    12    19    21    1
    13    13    14    1
    14    27    26    2
    15     6     9    1
    16     6     7    1
    17     6     5    1
    18    25    26    1
    19    25    32    1
    20    22    21    1
    21    22    32    1
    22    26    28    2
    23    17    18    1
    24    17    15    1
    25     1     5    1
    26     1     4    1
    27     1     2    1
    28    21    16    1
    29    32    31    2
    30    14    15    1
    31    28    29    2
    32    15    16    1
    33    31    29    2
    34    29    30    1
