@<TRIPOS>MOLECULE
1nrl_SRL_A_1.pdb
 33 33 0 0 0
SMALL
GASTEIGER

@<TRIPOS>ATOM
      1  C1        12.4020   33.7580   26.4000 C.ar    1  SRL1        0.0158
      2  C2        13.7910   33.3940   26.6330 C.ar    1  SRL1        0.1876
      3  C3        14.4550   32.1630   26.2100 C.ar    1  SRL1        0.0158
      4  C4        13.5680   31.2700   25.4970 C.ar    1  SRL1       -0.0011
      5  C5        12.2220   31.5570   25.2360 C.ar    1  SRL1        0.0001
      6  C6        11.6680   32.7720   25.6870 C.ar    1  SRL1       -0.0011
      7  C7        11.3970   30.6410   24.4970 C.2     1  SRL1        0.0149
      8  C8        10.5730   31.0880   23.5830 C.2     1  SRL1        0.1602
      9  P9         9.6910   29.7960   22.5590 P.3     1  SRL1        0.3731
     10  P10       10.3270   32.8320   23.1130 P.3     1  SRL1        0.3731
     11  O11       14.5390   34.2590   27.2850 O.3     1  SRL1       -0.2872
     12  C12       11.7090   35.0730   26.8510 C.3     1  SRL1        0.0220
     13  C13       15.9330   31.6630   26.4070 C.3     1  SRL1        0.0220
     14  C14       11.8440   35.2120   28.4010 C.3     1  SRL1        0.0045
     15  C15       10.2170   35.0670   26.4220 C.3     1  SRL1        0.0045
     16  C16       12.3550   36.4010   26.2660 C.3     1  SRL1        0.0045
     17  C17       16.1020   30.2570   25.7160 C.3     1  SRL1        0.0045
     18  C18       17.0700   32.5740   25.8030 C.3     1  SRL1        0.0045
     19  C19       16.2350   31.4990   27.9550 C.3     1  SRL1        0.0045
     20  O20        9.9510   28.4620   23.2360 O.2     1  SRL1       -0.2527
     21  O21       10.4300   29.6680   21.1490 O.3     1  SRL1       -0.2910
     22  C22       11.8440   29.8160   21.2190 C.3     1  SRL1        0.1517
     23  C23       12.4660   29.6670   19.8240 C.3     1  SRL1        0.0352
     24  O24        8.1340   29.8770   22.4900 O.3     1  SRL1       -0.2910
     25  C25        7.5170   29.0370   21.5520 C.3     1  SRL1        0.1517
     26  C26        6.0180   29.3160   21.5370 C.3     1  SRL1        0.0352
     27  O27        9.6350   33.7070   24.0270 O.2     1  SRL1       -0.2527
     28  O28       11.7710   33.4540   22.7870 O.3     1  SRL1       -0.2910
     29  C29       11.6530   34.8400   22.3820 C.3     1  SRL1        0.1517
     30  C30       12.9970   35.4390   22.0650 C.3     1  SRL1        0.0352
     31  O31        9.6490   32.8580   21.6580 O.3     1  SRL1       -0.2910
     32  C32        8.2680   32.7800   21.7230 C.3     1  SRL1        0.1517
     33  C33        7.7250   32.7990   20.3380 C.3     1  SRL1        0.0352
@<TRIPOS>BOND
     1    23    22    1
     2    33    32    1
     3    21    22    1
     4    21     9    1
     5    26    25    1
     6    25    24    1
     7    31    32    1
     8    31    10    1
     9    30    29    1
    10    29    28    1
    11    24     9    1
    12     9    20    2
    13     9     8    1
    14    28    10    1
    15    10     8    1
    16    10    27    2
    17     8     7    2
    18     7     5    1
    19     5     4   ar
    20     5     6   ar
    21     4     3   ar
    22     6     1   ar
    23    17    13    1
    24    18    13    1
    25     3    13    1
    26     3     2   ar
    27    16    12    1
    28     1     2   ar
    29     1    12    1
    30    13    19    1
    31    15    12    1
    32     2    11    1
    33    12    14    1
