@<TRIPOS>MOLECULE
1nro_III_R_1.pdb
 35 36 0 0 0
SMALL
GASTEIGER

@<TRIPOS>ATOM
      1  N         95.7430   39.2150   11.9160 N.3    38  LEU38      -0.1231
      2  CA        95.7930   38.9580   10.4410 C.3    38  LEU38       0.1693
      3  C         96.4380   37.5890   10.2590 C.2    38  LEU38       0.2592
      4  O         95.8490   36.5140   10.5230 O.2    38  LEU38      -0.2718
      5  CB        96.4250   40.2460    9.8940 C.3    38  LEU38       0.0284
      6  CG        95.8910   41.5410   10.5340 C.3    38  LEU38       0.0019
      7  CD1       96.5880   42.7990   10.0290 C.3    38  LEU38       0.0001
      8  CD2       94.3820   41.7020   10.2640 C.3    38  LEU38       0.0001
      9  N         97.6860   37.5870    9.8500 N.am   39  ASP39      -0.1960
     10  CA        98.4620   36.3370    9.6590 C.3    39  ASP39       0.1828
     11  C         99.7920   36.8690    9.0950 C.2    39  ASP39       0.2501
     12  O         99.8630   38.0760    8.7980 O.2    39  ASP39      -0.2727
     13  CB        97.7310   35.2660    8.8780 C.3    39  ASP39       0.1450
     14  CG        97.8760   33.8080    9.2780 C.2    39  ASP39       0.3671
     15  OD1       98.3380   33.5700   10.4200 O.co2  39  ASP39      -0.2456
     16  OD2       97.5770   32.8410    8.5420 O.co2  39  ASP39      -0.2456
     17  N        100.7560   35.9750    8.9840 N.am   40  PRO40      -0.2490
     18  CA       102.0700   36.3640    8.4870 C.3    40  PRO40       0.1619
     19  C        101.9470   36.7430    7.0080 C.2    40  PRO40       0.2605
     20  O        102.6930   37.5860    6.4910 O.2    40  PRO40      -0.2715
     21  CB       102.9330   35.1180    8.6470 C.3    40  PRO40       0.0570
     22  CG       102.0610   33.9870    9.1030 C.2    40  PRO40      -0.0077
     23  CD       100.6810   34.5490    9.3180 C.2    40  PRO40       0.0634
     24  N        101.0130   36.0610    6.3770 N.am   41  ARG41      -0.1964
     25  CA       100.6880   36.1230    4.9500 C.3    41  ARG41       0.1717
     26  C        100.9450   37.4530    4.2520 C.2    41  ARG41       0.2495
     27  O        101.8980   37.5460    3.4330 O.2    41  ARG41      -0.2727
     28  CB        99.2840   35.5350    4.8030 C.3    41  ARG41       0.0333
     29  N        100.1360   38.4690    4.5200 N.am   42  PRO42      -0.2504
     30  CA       100.2900   39.7850    3.8900 C.3    42  PRO42       0.1487
     31  C        101.6740   40.3820    4.1140 C.2    42  PRO42       0.2276
     32  O        102.3750   40.8910    3.2170 O.2    42  PRO42      -0.2865
     33  CB        99.1650   40.6510    4.4390 C.3    42  PRO42       0.0556
     34  CG        98.3660   39.7980    5.3720 C.2    42  PRO42      -0.0078
     35  CD        98.9820   38.4150    5.4280 C.2    42  PRO42       0.0634
@<TRIPOS>BOND
     1    32    31    2
     2    27    26    2
     3    30    31    1
     4    30    33    1
     5    30    29    1
     6    26    29   am
     7    26    25    1
     8    33    34    1
     9    29    35    1
    10    28    25    1
    11    25    24    1
    12    34    35    2
    13    24    19   am
    14    20    19    2
    15    19    18    1
    16    18    21    1
    17    18    17    1
    18    16    14   ar
    19    21    22    1
    20    12    11    2
    21    13    14    1
    22    13    10    1
    23    17    11   am
    24    17    23    1
    25    11    10    1
    26    22    23    2
    27    14    15   ar
    28    10     9    1
    29     9     3   am
    30     5     2    1
    31     5     6    1
    32     7     6    1
    33     3     2    1
    34     3     4    2
    35     8     6    1
    36     2     1    1
