@<TRIPOS>MOLECULE
1nrp_III_R_1.pdb
 35 35 0 0 0
SMALL
GASTEIGER

@<TRIPOS>ATOM
      1  N         95.8550   38.0760   12.0520 N.3    38  LEU38      -0.1231
      2  CA        95.9290   38.3740   10.5980 C.3    38  LEU38       0.1693
      3  C         96.9250   37.4020    9.9490 C.2    38  LEU38       0.2592
      4  O         97.3210   37.5680    8.7800 O.2    38  LEU38      -0.2718
      5  CB        96.2680   39.8600   10.4320 C.3    38  LEU38       0.0284
      6  CG        95.1220   40.8650   10.4010 C.3    38  LEU38       0.0019
      7  CD1       94.0210   40.5650   11.4160 C.3    38  LEU38       0.0001
      8  CD2       95.7380   42.2510   10.6800 C.3    38  LEU38       0.0001
      9  N         97.3090   36.4560   10.8140 N.am   39  ASP39      -0.1960
     10  CA        98.2760   35.4360   10.3180 C.3    39  ASP39       0.1828
     11  C         99.4770   36.2270    9.7670 C.2    39  ASP39       0.2501
     12  O         99.4140   37.4620    9.5860 O.2    39  ASP39      -0.2727
     13  CB        97.4990   34.5950    9.3350 C.3    39  ASP39       0.1450
     14  CG        97.6380   33.1200    9.1340 C.2    39  ASP39       0.3671
     15  OD1       98.7500   32.5670    8.9690 O.co2  39  ASP39      -0.2456
     16  OD2       96.6020   32.4260    9.0020 O.co2  39  ASP39      -0.2456
     17  N        100.5650   35.4940    9.5370 N.am   40  PRO40      -0.2490
     18  CA       101.7990   36.0370    8.9940 C.3    40  PRO40       0.1619
     19  C        101.6000   36.5970    7.5720 C.2    40  PRO40       0.2601
     20  O        101.9940   37.7770    7.4200 O.2    40  PRO40      -0.2715
     21  CB       102.7880   34.8820    8.9160 C.3    40  PRO40       0.0570
     22  CG       102.0660   33.6460    9.3500 C.2    40  PRO40      -0.0077
     23  CD       100.6800   34.0450    9.7680 C.2    40  PRO40       0.0634
     24  N        101.1640   35.7690    6.6490 N.am   41  ARG41      -0.2053
     25  CA       100.9350   35.9690    5.2270 C.3    41  ARG41       0.1045
     26  CB        99.4210   35.7740    4.9780 C.3    41  ARG41       0.0239
     27  C        100.2590   38.3260    4.4220 C.2    41  ARG41       0.2435
     28  O         99.4720   38.0860    3.4360 O.2    41  ARG41      -0.2733
     29  CH2      101.3560   37.2760    4.6260 C.3    41  ARG41       0.1084
     30  N        100.1820   39.3640    5.2610 N.am   42  SER42      -0.1964
     31  CA        99.1690   40.4280    5.1180 C.3    42  SER42       0.1923
     32  C         99.7600   41.8320    5.0360 C.2    42  SER42       0.2314
     33  O         99.0560   42.7860    4.5960 O.2    42  SER42      -0.2863
     34  CB        98.0630   40.2710    6.1490 C.3    42  SER42       0.2116
     35  OG        98.6580   39.7740    7.3440 O.3    42  SER42      -0.2180
@<TRIPOS>BOND
     1    28    27    2
     2    27    29    1
     3    27    30   am
     4    33    32    2
     5    29    25    1
     6    26    25    1
     7    32    31    1
     8    31    30    1
     9    31    34    1
    10    25    24    1
    11    34    35    1
    12    24    19   am
    13    20    19    2
    14    19    18    1
    15     4     3    2
    16    21    18    1
    17    21    22    1
    18    15    14   ar
    19    18    17    1
    20    16    14   ar
    21    14    13    1
    22    13    10    1
    23    22    23    2
    24    17    11   am
    25    17    23    1
    26    12    11    2
    27    11    10    1
    28     3     2    1
    29     3     9   am
    30    10     9    1
    31     6     5    1
    32     6     8    1
    33     6     7    1
    34     5     2    1
    35     2     1    1
