@<TRIPOS>MOLECULE
1nrq_III_R_1.pdb
 37 38 0 0 0
SMALL
GASTEIGER

@<TRIPOS>ATOM
      1  N         96.9680   39.7570    9.9310 N.3    39  DPN39      -0.1227
      2  CA        98.3700   39.8970   10.6950 C.3    39  DPN39       0.1725
      3  C         99.3110   38.8490   10.0910 C.2    39  DPN39       0.2475
      4  O        100.3260   39.2160    9.6270 O.2    39  DPN39      -0.2730
      5  CB        98.9370   41.2860   10.7790 C.3    39  DPN39       0.0547
      6  CG        97.8740   42.5320   10.7130 C.ar   39  DPN39      -0.0202
      7  CD1       97.0760   42.8510   11.7290 C.ar   39  DPN39      -0.0042
      8  CD2       97.6950   43.3670    9.6710 C.ar   39  DPN39      -0.0042
      9  CE1       96.0930   43.9930   11.6950 C.ar   39  DPN39      -0.0003
     10  CE2       96.7330   44.5330    9.6330 C.ar   39  DPN39      -0.0003
     11  CZ        95.9240   44.8270   10.6540 C.ar   39  DPN39      -0.0000
     12  N         98.8900   37.6080   10.0590 N.am   40  PRO40      -0.2492
     13  CA        99.7740   36.4520    9.7690 C.3    40  PRO40       0.1619
     14  C        100.3090   36.7100    8.2600 C.2    40  PRO40       0.2601
     15  O         99.6270   36.9070    7.2100 O.2    40  PRO40      -0.2715
     16  CB        99.0320   35.1760   10.0830 C.3    40  PRO40       0.0570
     17  CG        97.7270   35.6290   10.4390 C.2    40  PRO40      -0.0077
     18  CD        97.6250   37.1830   10.3880 C.2    40  PRO40       0.0634
     19  N        101.6570   36.7440    8.1290 N.am   41  ARG41      -0.2035
     20  CA       102.2910   35.8500    7.0490 C.3    41  ARG41       0.1248
     21  C        102.2950   36.5650    4.6470 C.2    41  ARG41       0.2436
     22  O        102.7050   35.8740    3.7200 O.2    41  ARG41      -0.2733
     23  CH2      101.4360   35.9500    5.7680 C.3    41  ARG41       0.1102
     24  N        102.6870   37.8400    4.7250 N.am   42  SER42      -0.1950
     25  CA       101.8010   38.9660    4.6510 C.3    42  SER42       0.2054
     26  C        102.1560   40.4540    4.2020 C.2    42  SER42       0.2644
     27  O        102.2310   40.7170    3.0070 O.2    42  SER42      -0.2714
     28  CB       101.1900   39.2390    6.0270 C.3    42  SER42       0.2130
     29  OG        99.9010   39.8170    5.8780 O.3    42  SER42      -0.2179
     30  N        102.2880   41.3080    5.3060 N.am   43  DPN43      -0.1939
     31  CA       102.1980   42.8500    5.4680 C.3    43  DPN43       0.2017
     32  C        103.4520   43.6640    5.1560 C.2    43  DPN43       0.2678
     33  O        104.4570   43.1400    4.7140 O.2    43  DPN43      -0.2710
     34  N        103.2590   45.0070    5.3440 N.am   44  LEU44      -0.1729
     35  CA       104.3430   45.9950    5.4190 C.2    44  LEU44       0.1340
     36  C        103.9070   47.4110    5.7550 C.2    44  LEU44       0.2521
     37  O        104.6510   48.3800    6.0460 O.2    44  LEU44      -0.2816
@<TRIPOS>BOND
     1    27    26    2
     2    22    21    2
     3    26    25    1
     4    26    30   am
     5    21    24   am
     6    21    23    1
     7    25    24    1
     8    25    28    1
     9    33    32    2
    10    32    34    1
    11    32    31    1
    12    30    31    1
    13    34    35    2
    14    35    36    1
    15    36    37    2
    16    23    20    1
    17    29    28    1
    18    20    19    1
    19    15    14    2
    20    19    14   am
    21    14    13    1
    22     4     3    2
    23    10     8   ar
    24    10    11   ar
    25     8     6   ar
    26    13    12    1
    27    13    16    1
    28     1     2    1
    29    12     3   am
    30    12    18    1
    31    16    17    1
    32     3     2    1
    33    18    17    2
    34    11     9   ar
    35     2     5    1
    36     6     5    1
    37     6     7   ar
    38     9     7   ar
