@<TRIPOS>MOLECULE
1nrr_III_R_1.pdb
 48 50 0 0 0
SMALL
GASTEIGER

@<TRIPOS>ATOM
      1  N          6.1080  -12.2660    1.1900 N.3    51  LYS51      -0.1231
      2  CA         5.0430  -11.5230    0.4850 C.3    51  LYS51       0.1693
      3  C          5.3880  -10.0380    0.3010 C.2    51  LYS51       0.2592
      4  O          4.4670   -9.2260    0.0470 O.2    51  LYS51      -0.2718
      5  CB         3.6930  -11.6010    1.1840 C.3    51  LYS51       0.0285
      6  CG         3.6030  -12.7430    2.1920 C.3    51  LYS51       0.0035
      7  CD         4.1100  -12.3250    3.5450 C.3    51  LYS51       0.0206
      8  CE         5.5610  -11.9290    3.6880 C.3    51  LYS51       0.1093
      9  NZ         6.3320  -12.7320    4.7020 N.3    51  LYS51      -0.1314
     10  N          6.6540   -9.6750    0.4560 N.am   52  TYR52      -0.1962
     11  CA         7.1630   -8.3250    0.3140 C.3    52  TYR52       0.1771
     12  C          7.0050   -7.7730   -1.0990 C.2    52  TYR52       0.2619
     13  O          7.6100   -8.2040   -2.0780 O.2    52  TYR52      -0.2715
     14  CB         8.6770   -8.1270    0.7020 C.3    52  TYR52       0.0574
     15  CG         8.8310   -8.3960    2.1820 C.ar   52  TYR52      -0.0198
     16  CD1        8.4120   -7.4470    3.1170 C.ar   52  TYR52      -0.0009
     17  CD2        9.2570   -9.6400    2.6330 C.ar   52  TYR52      -0.0009
     18  CE1        8.4550   -7.7290    4.4820 C.ar   52  TYR52       0.0417
     19  CE2        9.3100   -9.9200    3.9970 C.ar   52  TYR52       0.0417
     20  CZ         8.8980   -8.9650    4.9290 C.ar   52  TYR52       0.1957
     21  OH         8.9340   -9.2220    6.2670 O.3    52  TYR52      -0.2866
     22  N          6.2610   -6.6880   -1.1470 N.am   53  GLU53      -0.1964
     23  CA         6.0570   -5.8840   -2.3610 C.3    53  GLU53       0.1722
     24  C          7.3610   -5.1220   -2.5890 C.2    53  GLU53       0.2496
     25  O          7.9960   -4.4810   -1.7410 O.2    53  GLU53      -0.2727
     26  CB         4.9360   -4.9130   -2.2090 C.3    53  GLU53       0.0428
     27  CG         4.5120   -3.8150   -3.1520 C.3    53  GLU53       0.1163
     28  CD         3.1670   -3.2120   -2.7580 C.2    53  GLU53       0.3649
     29  OE1        2.4040   -3.6380   -1.9010 O.co2  53  GLU53      -0.2457
     30  OE2        2.9010   -2.1390   -3.3660 O.co2  53  GLU53      -0.2457
     31  N          7.8140   -5.2390   -3.8200 N.am   54  PRO54      -0.2490
     32  CA         9.0610   -4.5840   -4.2650 C.3    54  PRO54       0.1619
     33  C          8.9000   -3.0890   -4.0360 C.2    54  PRO54       0.2605
     34  O          7.7870   -2.5630   -3.8250 O.2    54  PRO54      -0.2715
     35  CB         9.1940   -4.9390   -5.7330 C.3    54  PRO54       0.0570
     36  CG         8.0070   -5.7800   -6.1260 C.2    54  PRO54      -0.0077
     37  CD         7.1380   -6.0080   -4.9050 C.2    54  PRO54       0.0634
     38  N         10.0070   -2.3750   -4.2140 N.am   55  PHE55      -0.1974
     39  CA         9.8610   -0.9150   -3.9300 C.3    55  PHE55       0.1639
     40  C          9.7320   -0.1440   -5.2380 C.2    55  PHE55       0.2290
     41  O         10.4890    0.8660   -5.4580 O.2    55  PHE55      -0.2864
     42  CB        11.0120   -0.4980   -3.0070 C.3    55  PHE55       0.0560
     43  CG        11.2380   -1.5600   -1.9490 C.ar   55  PHE55      -0.0200
     44  CD1       10.1330   -2.3130   -1.5310 C.ar   55  PHE55      -0.0042
     45  CD2       12.5080   -1.7360   -1.3950 C.ar   55  PHE55      -0.0042
     46  CE1       10.3020   -3.3220   -0.5940 C.ar   55  PHE55      -0.0003
     47  CE2       12.6960   -2.7240   -0.4200 C.ar   55  PHE55      -0.0003
     48  CZ        11.5840   -3.5040   -0.0470 C.ar   55  PHE55      -0.0000
@<TRIPOS>BOND
     1    36    35    1
     2    36    37    2
     3    35    32    1
     4    41    40    2
     5    40    39    1
     6    37    31    1
     7    32    33    1
     8    32    31    1
     9    38    33   am
    10    38    39    1
    11    33    34    2
    12    39    42    1
    13    31    24   am
    14    30    28   ar
    15    27    28    1
    16    27    26    1
    17    42    43    1
    18    28    29   ar
    19    24    23    1
    20    24    25    2
    21    23    26    1
    22    23    22    1
    23    13    12    2
    24    43    44   ar
    25    43    45   ar
    26    44    46   ar
    27    45    47   ar
    28    22    12   am
    29    12    11    1
    30    46    48   ar
    31    47    48   ar
    32     4     3    2
    33     3    10   am
    34     3     2    1
    35    11    10    1
    36    11    14    1
    37     2     5    1
    38     2     1    1
    39    14    15    1
    40     5     6    1
    41    15    17   ar
    42    15    16   ar
    43     6     7    1
    44    17    19   ar
    45    16    18   ar
    46     7     8    1
    47     8     9    1
    48    19    20   ar
    49    18    20   ar
    50    20    21    1
