@<TRIPOS>MOLECULE
1nrr_0G6_H_1.pdb
 30 31 0 0 0
SMALL
GASTEIGER

@<TRIPOS>ATOM
      1  N         16.3570  -16.6080   23.2600 N.3   301  0G6301     -0.1227
      2  CA        17.7440  -16.0390   23.3310 C.3   301  0G6301      0.1725
      3  C         17.6510  -14.6180   22.7580 C.2   301  0G6301      0.2475
      4  O         16.6560  -13.9410   23.0520 O.2   301  0G6301     -0.2730
      5  CB        18.2850  -16.1200   24.7650 C.3   301  0G6301      0.0547
      6  CG        19.6510  -15.5120   24.9850 C.ar  301  0G6301     -0.0202
      7  CD1       20.8030  -16.1640   24.4390 C.ar  301  0G6301     -0.0042
      8  CD2       19.8070  -14.3130   25.6650 C.ar  301  0G6301     -0.0042
      9  CE1       22.0740  -15.6270   24.6900 C.ar  301  0G6301     -0.0003
     10  CE2       21.1080  -13.8340   25.9300 C.ar  301  0G6301     -0.0003
     11  CZ        22.2650  -14.4690   25.4560 C.ar  301  0G6301     -0.0000
     12  N1        18.5690  -14.2400   21.9260 N.am  301  0G6301     -0.2492
     13  CA1       18.5180  -12.8970   21.3330 C.3   301  0G6301      0.1619
     14  C1        17.2260  -12.7310   20.4950 C.2   301  0G6301      0.2605
     15  O1        16.8280  -13.6440   19.7770 O.2   301  0G6301     -0.2715
     16  CB1       19.7710  -12.7890   20.4500 C.3   301  0G6301      0.0570
     17  CG1       20.4740  -14.1300   20.5510 C.2   301  0G6301     -0.0077
     18  CD        19.6900  -15.0510   21.4460 C.2   301  0G6301      0.0634
     19  N2        16.6740  -11.5080   20.5880 N.am  301  0G6301     -0.1982
     20  CA2       15.4580  -11.2080   19.8110 C.3   301  0G6301      0.1524
     21  C2        15.6820  -10.4400   18.5200 C.2   301  0G6301      0.1707
     22  O2        14.6470  -10.1590   17.8810 O.2   301  0G6301     -0.2943
     23  CB2       14.3470  -10.6130   20.7000 C.3   301  0G6301      0.0329
     24  CG2       13.7790  -11.6910   21.6270 C.3   301  0G6301      0.0491
     25  CD3       12.9120  -11.0460   22.6360 C.3   301  0G6301      0.2205
     26  NE        12.1370  -12.0430   23.3010 N.pl3 301  0G6301     -0.0865
     27  CZ1       11.2900  -11.8180   24.3190 C.cat 301  0G6301      0.5346
     28  NH1       11.0720  -10.6000   24.8250 N.pl3 301  0G6301      0.1354
     29  NH2       10.6540  -12.9210   24.7420 N.pl3 301  0G6301      0.1354
     30  C3        16.7980  -10.1300   18.0720 C.3   301  0G6301      0.0741
@<TRIPOS>BOND
     1    22    21    2
     2    30    21    1
     3    21    20    1
     4    15    14    2
     5    20    19    1
     6    20    23    1
     7    16    17    1
     8    16    13    1
     9    14    19   am
    10    14    13    1
    11    17    18    2
    12    23    24    1
    13    13    12    1
    14    18    12    1
    15    24    25    1
    16    12     3   am
    17    25    26    1
    18     3     4    2
    19     3     2    1
    20     1     2    1
    21    26    27    2
    22     2     5    1
    23    27    29    1
    24    27    28    1
    25     7     9   ar
    26     7     6   ar
    27     9    11   ar
    28     5     6    1
    29     6     8   ar
    30    11    10   ar
    31     8    10   ar
