@<TRIPOS>MOLECULE
1nrs_III_R_1.pdb
 34 34 0 0 0
SMALL
GASTEIGER

@<TRIPOS>ATOM
      1  N         18.2970  -17.9490   26.7180 N.3    38  LEU38      -0.1231
      2  CA        18.3780  -16.7540   25.8750 C.3    38  LEU38       0.1693
      3  C         17.8630  -17.1010   24.4570 C.2    38  LEU38       0.2592
      4  O         18.2730  -18.0680   23.7690 O.2    38  LEU38      -0.2718
      5  CB        19.8350  -16.1920   26.0070 C.3    38  LEU38       0.0284
      6  CG        20.0840  -14.7190   25.6940 C.3    38  LEU38       0.0019
      7  CD1       21.4070  -14.1600   26.2570 C.3    38  LEU38       0.0001
      8  CD2       20.0040  -14.5160   24.1580 C.3    38  LEU38       0.0001
      9  N         17.0660  -16.2230   23.9650 N.am   39  ASP39      -0.1960
     10  CA        16.4740  -16.2350   22.6500 C.3    39  ASP39       0.1828
     11  C         16.6000  -14.7990   22.1370 C.2    39  ASP39       0.2501
     12  O         15.6160  -14.0240   22.4410 O.2    39  ASP39      -0.2727
     13  CB        14.9950  -16.7250   22.7240 C.3    39  ASP39       0.1450
     14  CG        14.8680  -18.2340   22.9290 C.2    39  ASP39       0.3671
     15  OD1       15.9320  -18.8130   22.4810 O.co2  39  ASP39      -0.2456
     16  OD2       13.9210  -18.8220   23.4940 O.co2  39  ASP39      -0.2456
     17  N         17.6390  -14.5480   21.3970 N.am   40  PRO40      -0.2490
     18  CA        17.7950  -13.1260   20.8530 C.3    40  PRO40       0.1619
     19  C         16.5390  -12.8750   20.0370 C.2    40  PRO40       0.2601
     20  O         16.2020  -13.6990   19.1040 O.2    40  PRO40      -0.2715
     21  CB        19.1740  -13.0920   20.2530 C.3    40  PRO40       0.0570
     22  CG        19.7830  -14.4630   20.4010 C.2    40  PRO40      -0.0077
     23  CD        18.7760  -15.4050   21.0650 C.2    40  PRO40       0.0634
     24  N         15.7190  -11.8600   20.3210 N.am   41  ARG41      -0.2031
     25  CA        14.4320  -11.5370   19.6390 C.3    41  ARG41       0.1283
     26  C         14.4800  -10.5710   18.4230 C.3    41  ARG41       0.2036
     27  O         15.5080  -10.5790   17.6020 O.3    41  ARG41      -0.2185
     28  CB        13.4120  -10.9520   20.6670 C.3    41  ARG41       0.0281
     29  CG        13.1580  -12.0510   21.7500 C.3    41  ARG41       0.0488
     30  CD        12.1840  -11.5630   22.7100 C.3    41  ARG41       0.2205
     31  NE        11.2910  -12.5470   23.4470 N.pl3  41  ARG41      -0.0865
     32  CZ        10.5160  -12.1640   24.5290 C.cat  41  ARG41       0.5346
     33  NH1       10.4240  -10.8740   24.9940 N.pl3  41  ARG41       0.1354
     34  NH2        9.9380  -13.1680   25.2950 N.pl3  41  ARG41       0.1354
@<TRIPOS>BOND
     1    27    26    1
     2    26    25    1
     3    20    19    2
     4    25    24    1
     5    25    28    1
     6    19    24   am
     7    19    18    1
     8    21    22    1
     9    21    18    1
    10    22    23    2
    11    28    29    1
    12    18    17    1
    13    23    17    1
    14    17    11   am
    15    29    30    1
    16    11    12    2
    17    11    10    1
    18    15    14   ar
    19    10    13    1
    20    10     9    1
    21    30    31    1
    22    13    14    1
    23    14    16   ar
    24    31    32    2
    25     4     3    2
    26     9     3   am
    27     8     6    1
    28     3     2    1
    29    32    33    1
    30    32    34    1
    31     6     5    1
    32     6     7    1
    33     2     5    1
    34     2     1    1
