@<TRIPOS>MOLECULE
1nrx_NAD_A_1.pdb
 44 48 0 0 0
SMALL
GASTEIGER

@<TRIPOS>ATOM
      1  PA        69.9360   59.7920   58.3090 P.3   400  NAD400      0.2189
      2  O1A       68.8890   60.5880   57.6590 O.2   400  NAD400     -0.5170
      3  O2A       70.1220   58.3820   57.8940 O.3   400  NAD400     -0.4371
      4  O5B       69.6300   59.9020   59.9100 O.3   400  NAD400     -0.3112
      5  C5B       70.1650   58.8660   60.8360 C.3   400  NAD400      0.1813
      6  C4B       69.0050   58.2680   61.6410 C.3   400  NAD400      0.1821
      7  O4B       68.3430   59.2370   62.5040 O.3   400  NAD400     -0.3135
      8  C3B       67.8480   57.6450   60.8470 C.3   400  NAD400      0.2184
      9  O3B       67.5960   56.2580   61.2030 O.3   400  NAD400     -0.2174
     10  C2B       66.5770   58.4950   61.1520 C.3   400  NAD400      0.2570
     11  O2B       65.3800   57.7160   61.1640 O.3   400  NAD400     -0.2130
     12  C1B       66.8900   59.0880   62.4880 C.3   400  NAD400      0.3186
     13  N9A       66.4710   60.4750   62.8180 N.pl3 400  NAD400     -0.1439
     14  C8A       66.5560   61.5720   61.9550 C.3   400  NAD400      0.3377
     15  N7A       66.5720   62.6930   62.6600 N.2   400  NAD400     -0.2095
     16  C5A       66.0640   62.3350   63.8990 C.2   400  NAD400      0.2526
     17  C6A       65.6590   63.0870   65.0260 C.2   400  NAD400      0.4393
     18  N6A       66.0590   64.3200   65.3010 N.pl3 400  NAD400      0.2180
     19  N1A       64.7800   62.4440   65.9090 N.2   400  NAD400      0.0021
     20  C2A       64.7890   61.0620   65.9130 C.3   400  NAD400      0.5254
     21  N3A       65.4040   60.2150   65.0610 N.2   400  NAD400     -0.0055
     22  C4A       65.9500   60.9610   63.9900 C.2   400  NAD400      0.3518
     23  O3        71.3990   60.4730   58.1920 O.3   400  NAD400     -0.2703
     24  PN        71.9910   61.8500   57.6440 P.3   400  NAD400      0.2189
     25  O1N       71.0640   62.9360   57.9370 O.2   400  NAD400     -0.5170
     26  O2N       73.4150   61.8070   58.1640 O.3   400  NAD400     -0.4371
     27  O5D       71.9420   61.5040   56.0690 O.3   400  NAD400     -0.3112
     28  C5D       72.9830   60.8790   55.3430 C.3   400  NAD400      0.1813
     29  C4D       72.6950   61.0920   53.8570 C.3   400  NAD400      0.1799
     30  O4D       72.8880   62.4950   53.5420 O.3   400  NAD400     -0.3327
     31  C3D       73.6280   60.3020   52.9100 C.3   400  NAD400      0.2158
     32  O3D       72.8340   59.3310   52.2430 O.3   400  NAD400     -0.2175
     33  C2D       74.2430   61.3520   51.9760 C.3   400  NAD400      0.2309
     34  O2D       74.3100   60.9420   50.5890 O.3   400  NAD400     -0.2158
     35  C1D       73.3880   62.5880   52.1770 C.3   400  NAD400      0.2263
     36  N1N       74.1060   63.8570   52.1540 N.pl3 400  NAD400     -0.2787
     37  C2N       73.6710   64.6860   51.1220 C.3   400  NAD400      0.1244
     38  C3N       74.3640   65.8690   50.8680 C.2   400  NAD400      0.0544
     39  C7N       73.9080   66.8860   49.7940 C.2   400  NAD400      0.2818
     40  O7N       74.7060   67.7090   49.3440 O.2   400  NAD400     -0.2670
     41  N7N       72.6180   66.8370   49.3750 N.am  400  NAD400     -0.0839
     42  C4N       75.5620   66.2490   51.5960 C.2   400  NAD400      0.0033
     43  C5N       75.8320   65.4040   52.7330 C.2   400  NAD400      0.0157
     44  C6N       75.1570   64.2470   53.0780 C.2   400  NAD400      0.0633
@<TRIPOS>BOND
     1    40    39    2
     2    41    39   am
     3    39    38    1
     4    34    33    1
     5    38    37    1
     6    38    42    2
     7    37    36    1
     8    42    43    1
     9    33    35    1
    10    33    31    1
    11    36    35    1
    12    36    44    1
    13    35    30    1
    14    32    31    1
    15    43    44    2
    16    31    29    1
    17    30    29    1
    18    29    28    1
    19    28    27    1
    20    27    24    1
    21    24    25    2
    22    24    26    1
    23    24    23    1
    24     2     1    2
    25     3     1    1
    26    23     1    1
    27     1     4    1
    28     4     5    1
    29     5     6    1
    30     8    10    1
    31     8     9    1
    32     8     6    1
    33    10    11    1
    34    10    12    1
    35     6     7    1
    36    14    15    1
    37    14    13    1
    38    12     7    1
    39    12    13    1
    40    15    16    2
    41    13    22    1
    42    16    22    1
    43    16    17    1
    44    22    21    2
    45    17    18    1
    46    17    19    2
    47    21    20    1
    48    19    20    1
