@<TRIPOS>MOLECULE
1ns0_GLA_A_1.pdb
 12 12 0 0 0
SMALL
GASTEIGER

@<TRIPOS>ATOM
      1  C1         7.4800   37.6850    9.3510 C.3   1400  GLA1400     0.3024
      2  C2         6.5340   37.4390    8.1710 C.3   1400  GLA1400     0.2434
      3  C3         5.2390   38.2080    8.3680 C.3   1400  GLA1400     0.2199
      4  C4         4.5920   37.7300    9.6650 C.3   1400  GLA1400     0.2144
      5  C5         5.5880   37.8340   10.8440 C.3   1400  GLA1400     0.1836
      6  C6         5.1380   37.1600   12.1540 C.3   1400  GLA1400     0.2142
      7  O1         7.9980   39.0040    9.4790 O.3   1400  GLA1400    -0.1869
      8  O2         7.0160   37.7490    6.8760 O.3   1400  GLA1400    -0.2148
      9  O3         4.3740   37.8500    7.2870 O.3   1400  GLA1400    -0.2174
     10  O4         4.1390   36.3940    9.4960 O.3   1400  GLA1400    -0.2176
     11  O5         6.8480   37.1950   10.5290 O.3   1400  GLA1400    -0.3236
     12  O6         4.3740   38.0530   12.9360 O.3   1400  GLA1400    -0.2176
@<TRIPOS>BOND
     1     8     2    1
     2     9     3    1
     3     2     3    1
     4     2     1    1
     5     3     4    1
     6     1     7    1
     7     1    11    1
     8    10     4    1
     9     4     5    1
    10    11     5    1
    11     5     6    1
    12     6    12    1
