@<TRIPOS>MOLECULE
1ns2_GAL_A_1.pdb
 12 12 0 0 0
SMALL
GASTEIGER

@<TRIPOS>ATOM
      1  C1         7.4890   37.7090    9.3490 C.3   1400  GAL1400     0.3024
      2  C2         6.5110   37.5070    8.1770 C.3   1400  GAL1400     0.2434
      3  C3         5.2010   38.2590    8.3670 C.3   1400  GAL1400     0.2199
      4  C4         4.5990   37.8100    9.6770 C.3   1400  GAL1400     0.2144
      5  C5         5.5870   38.0430   10.8290 C.3   1400  GAL1400     0.1836
      6  C6         5.0640   37.4040   12.1060 C.3   1400  GAL1400     0.2142
      7  O1         8.0610   39.0140    9.4220 O.3   1400  GAL1400    -0.1869
      8  O2         7.0100   37.9260    6.9110 O.3   1400  GAL1400    -0.2148
      9  O3         4.3110   37.8600    7.3100 O.3   1400  GAL1400    -0.2174
     10  O4         4.2590   36.4140    9.5950 O.3   1400  GAL1400    -0.2176
     11  O5         6.8850   37.4030   10.6170 O.3   1400  GAL1400    -0.3236
     12  O6         4.9160   38.4600   12.9930 O.3   1400  GAL1400    -0.2176
@<TRIPOS>BOND
     1     8     2    1
     2     9     3    1
     3     2     3    1
     4     2     1    1
     5     3     4    1
     6     1     7    1
     7     1    11    1
     8    10     4    1
     9     4     5    1
    10    11     5    1
    11     5     6    1
    12     6    12    1
