@<TRIPOS>MOLECULE
1ns4_BGC_A_1.pdb
 12 12 0 0 0
SMALL
GASTEIGER

@<TRIPOS>ATOM
      1  C2         6.4040   37.5850    8.2360 C.3   1400  BGC1400     0.2434
      2  C3         4.9760   38.0640    8.1440 C.3   1400  BGC1400     0.2199
      3  C4         4.1860   37.4570    9.2890 C.3   1400  BGC1400     0.2144
      4  C5         4.8940   37.8210   10.5890 C.3   1400  BGC1400     0.1836
      5  C6         4.2750   37.1810   11.8030 C.3   1400  BGC1400     0.2142
      6  C1         6.9830   38.0690    9.5550 C.3   1400  BGC1400     0.3024
      7  O1         8.3660   37.7770    9.6730 O.3   1400  BGC1400    -0.1869
      8  O2         7.0940   38.1280    7.1190 O.3   1400  BGC1400    -0.2148
      9  O3         4.4150   37.5890    6.9420 O.3   1400  BGC1400    -0.2174
     10  O4         2.8420   37.9190    9.3080 O.3   1400  BGC1400    -0.2176
     11  O5         6.2860   37.3870   10.5870 O.3   1400  BGC1400    -0.3236
     12  O6         4.9970   37.7010   12.9040 O.3   1400  BGC1400    -0.2176
@<TRIPOS>BOND
     1     9     2    1
     2     8     1    1
     3     2     1    1
     4     2     3    1
     5     1     6    1
     6     3    10    1
     7     3     4    1
     8     6     7    1
     9     6    11    1
    10    11     4    1
    11     4     5    1
    12     5    12    1
