@<TRIPOS>MOLECULE
1ns6_HEM_A_1.pdb
 43 50 0 0 0
SMALL
GASTEIGER

@<TRIPOS>ATOM
      1 FE         -5.5050   -9.2280  -17.9450 Fe    142  HEM142      0.0000
      2  CHA       -4.8420  -10.2820  -21.1030 C.2   142  HEM142      0.0000
      3  CHB       -7.0680  -12.1940  -17.3150 C.2   142  HEM142      0.0000
      4  CHC       -6.1840   -8.2390  -14.7540 C.2   142  HEM142      0.0000
      5  CHD       -3.8930   -6.2970  -18.4730 C.2   142  HEM142      0.0000
      6  NA        -5.8840  -10.9310  -19.0060 N.2   142  HEM142      0.0000
      7  C1A       -5.5530  -11.1460  -20.3110 C.2   142  HEM142      0.0000
      8  C2A       -6.0490  -12.4530  -20.7110 C.2   142  HEM142      0.0000
      9  C3A       -6.6690  -12.9810  -19.6510 C.2   142  HEM142      0.0000
     10  C4A       -6.5530  -12.0350  -18.5620 C.2   142  HEM142      0.0000
     11  CMA       -7.3730  -14.3490  -19.5290 C.3   142  HEM142      0.0000
     12  CAA       -5.9010  -13.0300  -22.1420 C.3   142  HEM142      0.0000
     13  CBA       -4.8520  -14.1220  -22.3110 C.3   142  HEM142      0.0000
     14  CGA       -4.8600  -14.5320  -23.7750 C.2   142  HEM142      0.0000
     15  O1A       -4.0000  -14.0240  -24.5480 O.co2 142  HEM142      0.0000
     16  O2A       -5.7400  -15.3450  -24.1830 O.co2 142  HEM142      0.0000
     17  NB        -6.4810  -10.0220  -16.3950 N.ar  142  HEM142      0.0000
     18  C1B       -7.0010  -11.2890  -16.3080 C.ar  142  HEM142      0.0000
     19  C2B       -7.4610  -11.5410  -14.9650 C.ar  142  HEM142      0.0000
     20  C3B       -7.2090  -10.4600  -14.2410 C.ar  142  HEM142      0.0000
     21  C4B       -6.5890   -9.4890  -15.1300 C.ar  142  HEM142      0.0000
     22  CMB       -8.0730  -12.8790  -14.5110 C.3   142  HEM142      0.0000
     23  CAB       -7.4910  -10.1930  -12.7540 C.2   142  HEM142      0.0000
     24  CBB       -8.3760  -10.8890  -12.0440 C.2   142  HEM142      0.0000
     25  NC        -5.1120   -7.5770  -16.8130 N.2   142  HEM142      0.0000
     26  C1C       -5.4910   -7.3470  -15.5260 C.2   142  HEM142      0.0000
     27  C2C       -4.9910   -6.0420  -15.1110 C.2   142  HEM142      0.0000
     28  C3C       -4.4380   -5.4780  -16.1810 C.2   142  HEM142      0.0000
     29  C4C       -4.4490   -6.4610  -17.2360 C.2   142  HEM142      0.0000
     30  CMC       -5.2970   -5.4070  -13.7570 C.3   142  HEM142      0.0000
     31  CAC       -3.7740   -4.1160  -16.3280 C.2   142  HEM142      0.0000
     32  CBC       -4.2400   -3.0320  -15.7130 C.2   142  HEM142      0.0000
     33  ND        -4.5220   -8.4450  -19.4940 N.ar  142  HEM142      0.0000
     34  C1D       -3.9380   -7.1860  -19.5100 C.ar  142  HEM142      0.0000
     35  C2D       -3.3910   -6.9150  -20.8160 C.ar  142  HEM142      0.0000
     36  C3D       -3.6720   -8.1500  -21.6480 C.ar  142  HEM142      0.0000
     37  C4D       -4.3790   -9.0420  -20.7520 C.ar  142  HEM142      0.0000
     38  CMD       -2.6490   -5.6450  -21.2720 C.3   142  HEM142      0.0000
     39  CAD       -3.2680   -8.3650  -23.1270 C.3   142  HEM142      0.0000
     40  CBD       -4.4740   -8.0840  -24.0230 C.3   142  HEM142      0.0000
     41  CGD       -4.2510   -8.5550  -25.4470 C.2   142  HEM142      0.0000
     42  O1D       -5.2490   -8.5220  -26.2220 O.co2 142  HEM142      0.0000
     43  O2D       -3.1040   -8.9720  -25.8090 O.co2 142  HEM142      0.0000
@<TRIPOS>BOND
     1    42    41   ar
     2    43    41   ar
     3    41    40    1
     4    15    14   ar
     5    16    14   ar
     6    40    39    1
     7    14    13    1
     8    39    36    1
     9    13    12    1
    10    12     8    1
    11    36    35   ar
    12    36    37   ar
    13    38    35    1
    14     2    37    2
    15     2     7    1
    16    35    34   ar
    17    37    33   ar
    18     8     7    1
    19     8     9    2
    20     7     6    2
    21     9    11    1
    22     9    10    1
    23    34    33   ar
    24    34     5    2
    25    33     1    1
    26     6    10    1
    27     6     1    1
    28    10     3    2
    29     5    29    1
    30     1    25    1
    31     1    17    1
    32     3    18    1
    33    29    25    2
    34    29    28    1
    35    25    26    1
    36    17    18   ar
    37    17    21   ar
    38    31    28    1
    39    31    32    2
    40    18    19   ar
    41    28    27    2
    42    26    27    1
    43    26     4    2
    44    21     4    1
    45    21    20   ar
    46    27    30    1
    47    19    22    1
    48    19    20   ar
    49    20    23    1
    50    23    24    2
