@<TRIPOS>MOLECULE
1ns7_BGC_A_1.pdb
 12 12 0 0 0
SMALL
GASTEIGER

@<TRIPOS>ATOM
      1  C2         6.2960   37.5560    8.3950 C.3   1400  BGC1400     0.2434
      2  C3         4.8540   38.0880    8.3990 C.3   1400  BGC1400     0.2199
      3  C4         4.1360   37.5440    9.6190 C.3   1400  BGC1400     0.2144
      4  C5         4.9340   37.9440   10.8570 C.3   1400  BGC1400     0.1836
      5  C6         4.3420   37.4800   12.1900 C.3   1400  BGC1400     0.2142
      6  C1         7.0000   37.9820    9.6980 C.3   1400  BGC1400     0.3024
      7  O1         8.3640   37.5770    9.7940 O.3   1400  BGC1400    -0.1869
      8  O2         6.9560   38.0140    7.1940 O.3   1400  BGC1400    -0.2148
      9  O3         4.1180   37.7350    7.2170 O.3   1400  BGC1400    -0.2174
     10  O4         2.7990   37.9900    9.6970 O.3   1400  BGC1400    -0.2176
     11  O5         6.2960   37.4180   10.7950 O.3   1400  BGC1400    -0.3236
     12  O6         5.2670   37.8450   13.2160 O.3   1400  BGC1400    -0.2176
@<TRIPOS>BOND
     1     8     1    1
     2     9     2    1
     3     1     2    1
     4     1     6    1
     5     2     3    1
     6     3    10    1
     7     3     4    1
     8     6     7    1
     9     6    11    1
    10    11     4    1
    11     4     5    1
    12     5    12    1
