@<TRIPOS>MOLECULE
1ns8_GLA_A_1.pdb
 12 12 0 0 0
SMALL
GASTEIGER

@<TRIPOS>ATOM
      1  C1         7.7800   37.7700    9.0980 C.3   1400  GLA1400     0.3024
      2  C2         6.6470   37.5230    8.0830 C.3   1400  GLA1400     0.2434
      3  C3         5.3680   38.2060    8.4560 C.3   1400  GLA1400     0.2199
      4  C4         4.9730   37.8570    9.8860 C.3   1400  GLA1400     0.2144
      5  C5         6.1520   38.0920   10.8530 C.3   1400  GLA1400     0.1836
      6  C6         5.9060   37.6050   12.2770 C.3   1400  GLA1400     0.2142
      7  O1         8.1390   39.1530    9.1430 O.3   1400  GLA1400    -0.1869
      8  O2         6.9380   37.8730    6.7280 O.3   1400  GLA1400    -0.2148
      9  O3         4.3490   37.7150    7.5670 O.3   1400  GLA1400    -0.2174
     10  O4         4.4540   36.5400   10.0030 O.3   1400  GLA1400    -0.2176
     11  O5         7.3260   37.4000   10.4240 O.3   1400  GLA1400    -0.3236
     12  O6         4.5720   37.9220   12.6650 O.3   1400  GLA1400    -0.2176
@<TRIPOS>BOND
     1     8     2    1
     2     9     3    1
     3     2     3    1
     4     2     1    1
     5     3     4    1
     6     1     7    1
     7     1    11    1
     8     4    10    1
     9     4     5    1
    10    11     5    1
    11     5     6    1
    12     6    12    1
