@<TRIPOS>MOLECULE
1ns9_HEM_A_1.pdb
 43 50 0 0 0
SMALL
GASTEIGER

@<TRIPOS>ATOM
      1 FE         -5.4440   -9.8960  -16.9490 Fe    142  HEM142      0.0000
      2  CHA       -4.8580  -11.0320  -20.1020 C.2   142  HEM142      0.0000
      3  CHB       -7.4240  -12.5390  -16.2890 C.2   142  HEM142      0.0000
      4  CHC       -6.0150   -8.6960  -13.7380 C.2   142  HEM142      0.0000
      5  CHD       -3.8840   -6.9290  -17.7010 C.2   142  HEM142      0.0000
      6  NA        -6.0290  -11.4690  -17.9890 N.2   142  HEM142      0.0000
      7  C1A       -5.6780  -11.7710  -19.2880 C.2   142  HEM142      0.0000
      8  C2A       -6.3190  -13.0280  -19.6400 C.2   142  HEM142      0.0000
      9  C3A       -7.0330  -13.4370  -18.5890 C.2   142  HEM142      0.0000
     10  C4A       -6.8630  -12.4610  -17.5330 C.2   142  HEM142      0.0000
     11  CMA       -7.8950  -14.7190  -18.4770 C.3   142  HEM142      0.0000
     12  CAA       -6.1730  -13.7540  -21.0020 C.3   142  HEM142      0.0000
     13  CBA       -6.9480  -13.0640  -22.0960 C.3   142  HEM142      0.0000
     14  CGA       -6.7560  -13.8120  -23.3970 C.2   142  HEM142      0.0000
     15  O1A       -7.0940  -13.2260  -24.4590 O.co2 142  HEM142      0.0000
     16  O2A       -6.2710  -14.9800  -23.3760 O.co2 142  HEM142      0.0000
     17  NB        -6.5350  -10.4770  -15.3330 N.ar  142  HEM142      0.0000
     18  C1B       -7.2150  -11.6650  -15.2580 C.ar  142  HEM142      0.0000
     19  C2B       -7.6620  -11.8680  -13.8990 C.ar  142  HEM142      0.0000
     20  C3B       -7.3110  -10.7890  -13.1970 C.ar  142  HEM142      0.0000
     21  C4B       -6.5610   -9.9170  -14.0730 C.ar  142  HEM142      0.0000
     22  CMB       -8.4980  -13.0830  -13.4350 C.3   142  HEM142      0.0000
     23  CAB       -7.5500  -10.5080  -11.7040 C.2   142  HEM142      0.0000
     24  CBB       -8.6870  -10.8410  -11.1080 C.2   142  HEM142      0.0000
     25  NC        -5.0190   -8.1470  -15.9160 N.2   142  HEM142      0.0000
     26  C1C       -5.3220   -7.8840  -14.5980 C.2   142  HEM142      0.0000
     27  C2C       -4.7930   -6.5820  -14.2920 C.2   142  HEM142      0.0000
     28  C3C       -4.2040   -6.1020  -15.3910 C.2   142  HEM142      0.0000
     29  C4C       -4.3530   -7.0710  -16.4380 C.2   142  HEM142      0.0000
     30  CMC       -4.9190   -5.9210  -12.9000 C.3   142  HEM142      0.0000
     31  CAC       -3.4940   -4.7530  -15.5610 C.2   142  HEM142      0.0000
     32  CBC       -4.0880   -3.6510  -15.1160 C.2   142  HEM142      0.0000
     33  ND        -4.5080   -9.1200  -18.6150 N.ar  142  HEM142      0.0000
     34  C1D       -3.9600   -7.8510  -18.7050 C.ar  142  HEM142      0.0000
     35  C2D       -3.4550   -7.6190  -20.0460 C.ar  142  HEM142      0.0000
     36  C3D       -3.7390   -8.8980  -20.7900 C.ar  142  HEM142      0.0000
     37  C4D       -4.4050   -9.7670  -19.8400 C.ar  142  HEM142      0.0000
     38  CMD       -2.7500   -6.3730  -20.6130 C.3   142  HEM142      0.0000
     39  CAD       -3.4150   -9.1740  -22.2730 C.3   142  HEM142      0.0000
     40  CBD       -4.6170   -8.6980  -23.0780 C.3   142  HEM142      0.0000
     41  CGD       -4.3590   -8.7460  -24.5730 C.2   142  HEM142      0.0000
     42  O1D       -5.3230   -9.0460  -25.3140 O.co2 142  HEM142      0.0000
     43  O2D       -3.2200   -8.4590  -25.0220 O.co2 142  HEM142      0.0000
@<TRIPOS>BOND
     1    42    41   ar
     2    43    41   ar
     3    41    40    1
     4    15    14   ar
     5    14    16   ar
     6    14    13    1
     7    40    39    1
     8    39    36    1
     9    13    12    1
    10    12     8    1
    11    36    35   ar
    12    36    37   ar
    13    38    35    1
    14     2    37    2
    15     2     7    1
    16    35    34   ar
    17    37    33   ar
    18     8     7    1
    19     8     9    2
    20     7     6    2
    21    34    33   ar
    22    34     5    2
    23    33     1    1
    24     9    11    1
    25     9    10    1
    26     6    10    1
    27     6     1    1
    28     5    29    1
    29    10     3    2
    30     1    25    1
    31     1    17    1
    32    29    25    2
    33    29    28    1
    34     3    18    1
    35    25    26    1
    36    31    28    1
    37    31    32    2
    38    28    27    2
    39    17    18   ar
    40    17    21   ar
    41    18    19   ar
    42    26    27    1
    43    26     4    2
    44    27    30    1
    45    21     4    1
    46    21    20   ar
    47    19    22    1
    48    19    20   ar
    49    20    23    1
    50    23    24    2
