@<TRIPOS>MOLECULE
1nsc_SIA_A_1.pdb
 39 39 0 0 0
SMALL
GASTEIGER

@<TRIPOS>ATOM
      1  C1        -2.1960   58.8720   -5.9810 C.2   467  SIA467      0.4143
      2  C2        -1.8700   58.0210   -7.2110 C.3   467  SIA467      0.2748
      3  C3        -0.8440   56.8990   -7.3060 C.3   467  SIA467      0.0405
      4  C4        -1.1570   55.9040   -8.4130 C.3   467  SIA467      0.0815
      5  C5        -2.0150   56.5160   -9.5170 C.3   467  SIA467      0.0779
      6  C6        -3.3520   56.9560   -8.9120 C.3   467  SIA467      0.1114
      7  C7        -4.2240   57.6980   -9.9420 C.3   467  SIA467      0.1111
      8  C8        -5.5710   58.1310   -9.3600 C.3   467  SIA467      0.1065
      9  C9        -6.6010   58.6740  -10.3810 C.3   467  SIA467      0.0727
     10  C10       -1.8970   55.3740  -11.7590 C.2   467  SIA467      0.2103
     11  C11       -2.2000   54.0570  -12.4540 C.3   467  SIA467      0.0122
     12  N5        -2.2020   55.4440  -10.4780 N.am  467  SIA467     -0.3076
     13  O1A       -1.2890   58.8150   -5.1300 O.co2 467  SIA467     -0.2403
     14  O1B       -3.2100   59.5040   -5.6310 O.co2 467  SIA467     -0.2403
     15  O2        -1.7680   59.2140   -7.9920 O.3   467  SIA467     -0.3560
     16  O4         0.0720   55.5230   -8.9860 O.3   467  SIA467     -0.3897
     17  O6        -3.1490   57.9080   -7.8470 O.3   467  SIA467     -0.3320
     18  O7        -3.5940   58.8830  -10.4020 O.3   467  SIA467     -0.3865
     19  O8        -6.1190   56.9460   -8.8280 O.3   467  SIA467     -0.3869
     20  O9        -6.9310   57.6870  -11.3460 O.3   467  SIA467     -0.3924
     21  O10       -1.4230   56.3570  -12.3310 O.2   467  SIA467     -0.2761
     22  H31       -0.7020   56.4840   -6.3000 H     467  SIA467      0.0349
     23  H32        0.1200   57.4080   -7.1820 H     467  SIA467      0.0349
     24  H4        -1.6510   55.0600   -7.8970 H     467  SIA467      0.0614
     25  H5        -1.5060   57.3750   -9.9790 H     467  SIA467      0.0550
     26  H6        -3.8500   56.0750   -8.4920 H     467  SIA467      0.0643
     27  H7        -4.3390   57.1760  -10.9070 H     467  SIA467      0.0646
     28  H8        -5.4730   58.8710   -8.5530 H     467  SIA467      0.0643
     29  H91       -6.0540   59.4590  -10.9250 H     467  SIA467      0.0584
     30  H92       -7.5870   59.0290  -10.0550 H     467  SIA467      0.0584
     31 H111       -3.2150   53.7280  -12.2070 H     467  SIA467      0.0322
     32 H112       -1.5500   53.2790  -12.0330 H     467  SIA467      0.0322
     33 H113       -2.0050   54.0410  -13.5310 H     467  SIA467      0.0322
     34  HN5       -2.5660   54.6580  -10.0030 H     467  SIA467      0.1491
     35  HO2       -0.9050   59.1130   -8.4380 H     467  SIA467      0.2133
     36  HO4        0.4270   54.8010   -8.4300 H     467  SIA467      0.2099
     37  HO7       -3.1090   58.8840   -9.5480 H     467  SIA467      0.2100
     38  HO8       -7.0710   57.0510   -8.9620 H     467  SIA467      0.2100
     39  HO9       -6.7830   56.8850  -10.8080 H     467  SIA467      0.2095
@<TRIPOS>BOND
     1    33    11    1
     2    11    31    1
     3    11    32    1
     4    11    10    1
     5    21    10    2
     6    10    12   am
     7    20    39    1
     8    20     9    1
     9    29     9    1
    10    27     7    1
    11    12    34    1
    12    12     5    1
    13    18     7    1
    14    18    37    1
    15     9    30    1
    16     9     8    1
    17    25     5    1
    18     7     8    1
    19     7     6    1
    20     5     6    1
    21     5     4    1
    22     8    19    1
    23     8    28    1
    24    16    36    1
    25    16     4    1
    26    38    19    1
    27     6    26    1
    28     6    17    1
    29    35    15    1
    30     4    24    1
    31     4     3    1
    32    15     2    1
    33    17     2    1
    34     3     2    1
    35     3    23    1
    36     3    22    1
    37     2     1    1
    38     1    14   ar
    39     1    13   ar
