@<TRIPOS>MOLECULE
1nsc_NAG_A_1.pdb
 28 28 0 0 0
SMALL
GASTEIGER

@<TRIPOS>ATOM
      1  C1       -16.0130   28.3000    2.8500 C.3   466  NAG466      0.1078
      2  C2       -16.0420   28.2370    4.3750 C.3   466  NAG466      0.0801
      3  C3       -14.9680   27.2320    4.8480 C.3   466  NAG466      0.1043
      4  C4       -15.2310   25.8560    4.1940 C.3   466  NAG466      0.1110
      5  C5       -15.1790   26.0030    2.6620 C.3   466  NAG466      0.1104
      6  C6       -15.4720   24.7000    1.8840 C.3   466  NAG466      0.0729
      7  C7       -16.6310   30.3840    5.4840 C.2   466  NAG466      0.2103
      8  C8       -16.2770   31.8060    5.8900 C.3   466  NAG466      0.0122
      9  N2       -15.7630   29.5870    4.8660 N.am  466  NAG466     -0.3075
     10  O3       -14.9580   27.0770    6.2620 O.3   466  NAG466     -0.3872
     11  O4       -14.2800   24.9100    4.6680 O.3   466  NAG466     -0.3865
     12  O5       -16.1450   26.9970    2.2580 O.3   466  NAG466     -0.3639
     13  O6       -15.9840   25.0150    0.6000 O.3   466  NAG466     -0.3924
     14  O7       -17.7400   29.9320    5.7530 O.2   466  NAG466     -0.2761
     15  H1       -15.0360   28.7040    2.5180 H     466  NAG466      0.0642
     16  H2       -17.0300   27.8700    4.6990 H     466  NAG466      0.0551
     17  H3       -13.9730   27.5950    4.5300 H     466  NAG466      0.0639
     18  H4       -16.2390   25.5090    4.4750 H     466  NAG466      0.0646
     19  H5       -14.1860   26.3720    2.3550 H     466  NAG466      0.0646
     20  H61      -16.1660   24.0470    2.4350 H     466  NAG466      0.0584
     21  H62      -14.5350   24.1290    1.7730 H     466  NAG466      0.0584
     22  H81      -15.8670   31.8140    6.9080 H     466  NAG466      0.0322
     23  H82      -17.1720   32.4450    5.8790 H     466  NAG466      0.0322
     24  H83      -15.5430   32.2300    5.1910 H     466  NAG466      0.0322
     25  HN2      -14.8610   29.9220    4.7360 H     466  NAG466      0.1491
     26  HO3      -15.8490   26.8210    6.5320 H     466  NAG466      0.2100
     27  HO4      -13.9850   25.2240    5.5350 H     466  NAG466      0.2100
     28  HO6      -16.3730   25.8960    0.6370 H     466  NAG466      0.2095
@<TRIPOS>BOND
     1    13    28    1
     2    13     6    1
     3    21     6    1
     4     6    20    1
     5     6     5    1
     6    12     5    1
     7    12     1    1
     8    19     5    1
     9    15     1    1
    10     5     4    1
    11     1     2    1
    12     4    18    1
    13     4    11    1
    14     4     3    1
    15     2    16    1
    16     2     3    1
    17     2     9    1
    18    17     3    1
    19    11    27    1
    20    25     9    1
    21     3    10    1
    22     9     7   am
    23    24     8    1
    24     7    14    2
    25     7     8    1
    26    23     8    1
    27     8    22    1
    28    10    26    1
