@<TRIPOS>MOLECULE
1nsd_NAG_A_1.pdb
 28 28 0 0 0
SMALL
GASTEIGER

@<TRIPOS>ATOM
      1  C1       -15.9510   28.4040    2.9130 C.3   466  NAG466      0.1078
      2  C2       -16.0450   28.2830    4.4390 C.3   466  NAG466      0.0801
      3  C3       -15.0140   27.2400    4.9160 C.3   466  NAG466      0.1043
      4  C4       -15.2610   25.8930    4.2100 C.3   466  NAG466      0.1110
      5  C5       -15.1100   26.0980    2.6900 C.3   466  NAG466      0.1104
      6  C6       -15.3700   24.8220    1.8400 C.3   466  NAG466      0.0729
      7  C7       -16.6490   30.4120    5.5730 C.2   466  NAG466      0.2103
      8  C8       -16.2560   31.8060    6.0190 C.3   466  NAG466      0.0122
      9  N2       -15.7560   29.5960    5.0070 N.am  466  NAG466     -0.3075
     10  O3       -15.0460   27.0210    6.3210 O.3   466  NAG466     -0.3872
     11  O4       -14.3530   24.9280    4.7230 O.3   466  NAG466     -0.3865
     12  O5       -16.0470   27.1220    2.2760 O.3   466  NAG466     -0.3639
     13  O6       -15.6340   25.1850    0.4930 O.3   466  NAG466     -0.3924
     14  O7       -17.7990   30.0200    5.7540 O.2   466  NAG466     -0.2761
     15  H1       -14.9720   28.8360    2.6290 H     466  NAG466      0.0642
     16  H2       -17.0550   27.9300    4.7070 H     466  NAG466      0.0551
     17  H3       -14.0070   27.6020    4.6440 H     466  NAG466      0.0639
     18  H4       -16.2900   25.5540    4.4160 H     466  NAG466      0.0646
     19  H5       -14.0950   26.4570    2.4600 H     466  NAG466      0.0646
     20  H61      -16.2000   24.2280    2.2540 H     466  NAG466      0.0584
     21  H62      -14.4770   24.1760    1.8790 H     466  NAG466      0.0584
     22  H81      -15.8610   31.7780    7.0400 H     466  NAG466      0.0322
     23  H82      -17.1320   32.4730    6.0090 H     466  NAG466      0.0322
     24  H83      -15.5070   32.2250    5.3320 H     466  NAG466      0.0322
     25  HN2      -14.8250   29.8810    4.9970 H     466  NAG466      0.1491
     26  HO3      -15.9580   26.8060    6.5560 H     466  NAG466      0.2100
     27  HO4      -14.0030   25.2910    5.5480 H     466  NAG466      0.2100
     28  HO6      -16.1900   25.9740    0.5020 H     466  NAG466      0.2095
@<TRIPOS>BOND
     1    13    28    1
     2    13     6    1
     3     6    21    1
     4     6    20    1
     5     6     5    1
     6    12     5    1
     7    12     1    1
     8    19     5    1
     9    15     1    1
    10     5     4    1
    11     1     2    1
    12     4    18    1
    13     4    11    1
    14     4     3    1
    15     2    16    1
    16     2     3    1
    17     2     9    1
    18    17     3    1
    19    11    27    1
    20     3    10    1
    21    25     9    1
    22     9     7   am
    23    24     8    1
    24     7    14    2
    25     7     8    1
    26    23     8    1
    27     8    22    1
    28    10    26    1
