@<TRIPOS>MOLECULE
1nsd_DAN_A_1.pdb
 36 36 0 0 0
SMALL
GASTEIGER

@<TRIPOS>ATOM
      1  C1        -2.0010   58.9090   -5.9860 C.2   467  DAN467      0.3911
      2  C2        -1.9810   57.9840   -7.1700 C.3   467  DAN467      0.2153
      3  C3        -0.8730   57.0230   -7.3980 C.3   467  DAN467      0.0384
      4  C4        -1.0240   55.9770   -8.4830 C.3   467  DAN467      0.0825
      5  C5        -1.9130   56.5450   -9.6100 C.3   467  DAN467      0.0780
      6  C6        -3.2760   57.0620   -9.0440 C.3   467  DAN467      0.1092
      7  C7        -4.2100   57.7410  -10.0970 C.3   467  DAN467      0.1111
      8  C8        -5.5200   58.1780   -9.4540 C.3   467  DAN467      0.1065
      9  C9        -6.5500   58.7350  -10.4840 C.3   467  DAN467      0.0727
     10  C10       -1.9370   55.4270  -11.8300 C.2   467  DAN467      0.2103
     11  C11       -2.2920   54.1460  -12.5610 C.3   467  DAN467      0.0122
     12  N5        -2.1650   55.4230  -10.5180 N.am  467  DAN467     -0.3076
     13  O1A       -1.0900   58.8930   -5.1520 O.co2 467  DAN467     -0.2430
     14  O1B       -3.0410   59.5440   -5.7270 O.co2 467  DAN467     -0.2430
     15  O4         0.2520   55.6740   -8.9930 O.3   467  DAN467     -0.3895
     16  O6        -3.0820   58.0890   -8.0620 O.3   467  DAN467     -0.3506
     17  O7        -3.5600   58.8920  -10.5760 O.3   467  DAN467     -0.3865
     18  O8        -6.0280   57.0550   -8.8030 O.3   467  DAN467     -0.3869
     19  O9        -6.9550   57.7510  -11.4040 O.3   467  DAN467     -0.3924
     20  O10       -1.4680   56.4060  -12.4250 O.2   467  DAN467     -0.2761
     21  H3         0.1110   57.2620   -7.0300 H     467  DAN467      0.0366
     22  H4        -1.4890   55.0760   -8.0460 H     467  DAN467      0.0616
     23  H5        -1.3860   57.3770  -10.1120 H     467  DAN467      0.0550
     24  H6        -3.7880   56.2110   -8.5670 H     467  DAN467      0.0643
     25  H7        -4.4110   57.0490  -10.9330 H     467  DAN467      0.0646
     26  H8        -5.3280   58.9690   -8.7130 H     467  DAN467      0.0643
     27  H91       -6.0920   59.5880  -11.0040 H     467  DAN467      0.0584
     28  H92       -7.4400   59.1070   -9.9570 H     467  DAN467      0.0584
     29 H111       -3.1580   53.6610  -12.0890 H     467  DAN467      0.0322
     30 H112       -1.4390   53.4570  -12.5340 H     467  DAN467      0.0322
     31 H113       -2.5370   54.3540  -13.6060 H     467  DAN467      0.0322
     32  HN5       -2.4760   54.5780  -10.1220 H     467  DAN467      0.1491
     33  HO4        0.1710   55.2690   -9.8660 H     467  DAN467      0.2099
     34  HO7       -2.9900   59.2170   -9.8640 H     467  DAN467      0.2100
     35  HO8       -6.9910   57.0450   -8.8710 H     467  DAN467      0.2100
     36  HO9       -7.1300   56.9540  -10.8750 H     467  DAN467      0.2095
@<TRIPOS>BOND
     1    31    11    1
     2    11    30    1
     3    11    29    1
     4    11    10    1
     5    20    10    2
     6    10    12   am
     7    19    36    1
     8    19     9    1
     9    27     9    1
    10    25     7    1
    11    17     7    1
    12    17    34    1
    13    12    32    1
    14    12     5    1
    15     9    28    1
    16     9     8    1
    17    23     5    1
    18     7     8    1
    19     7     6    1
    20    33    15    1
    21     5     6    1
    22     5     4    1
    23     8    18    1
    24     8    26    1
    25     6    24    1
    26     6    16    1
    27    15     4    1
    28    35    18    1
    29     4    22    1
    30     4     3    1
    31    16     2    1
    32     3     2    1
    33     3    21    1
    34     2     1    1
    35     1    14   ar
    36     1    13   ar
