@<TRIPOS>MOLECULE
1nse_H4B_A_1.pdb
 17 18 0 0 0
SMALL
GASTEIGER

@<TRIPOS>ATOM
      1  N1         8.2990   11.8460   42.5910 N.2   600  H4B600     -0.2683
      2  C2         8.2350   12.1770   41.2860 C.1   600  H4B600      0.2608
      3  N2         7.3960   11.5990   40.4470 N.pl3 600  H4B600     -0.0220
      4  N3         9.0740   13.1230   40.8380 N.2   600  H4B600     -0.2474
      5  C4        10.0300   13.7860   41.6160 C.1   600  H4B600      0.2441
      6  O4        10.7270   14.6680   41.0950 O.2   600  H4B600     -0.2063
      7  C4A       10.0470   13.3760   42.9600 C.2   600  H4B600      0.2463
      8  C8A        9.2010   12.4190   43.4510 C.1   600  H4B600      0.1270
      9  N5        10.9630   14.0760   43.8370 N.2   600  H4B600     -0.2460
     10  N8         9.1930   12.0420   44.7240 N.2   600  H4B600     -0.2054
     11  C6        11.3440   13.2500   45.0450 C.3   600  H4B600      0.1627
     12  C7        10.0960   12.6770   45.6800 C.3   600  H4B600      0.1643
     13  C9        12.1710   14.1740   45.9490 C.3   600  H4B600      0.2063
     14  O9        11.4740   15.3610   46.2980 O.3   600  H4B600     -0.2183
     15  C10       12.5680   13.4830   47.2540 C.3   600  H4B600      0.1842
     16  C11       13.4880   14.3180   48.0630 C.3   600  H4B600      0.0383
     17  O10       13.1660   12.2530   46.8450 O.3   600  H4B600     -0.2204
@<TRIPOS>BOND
     1     3     2    1
     2     4     2    2
     3     4     5    2
     4     6     5    2
     5     2     1    2
     6     5     7    1
     7     1     8    2
     8     7     8    1
     9     7     9    2
    10     8    10    2
    11     9    11    1
    12    10    12    1
    13    11    12    1
    14    11    13    1
    15    13    14    1
    16    13    15    1
    17    17    15    1
    18    15    16    1
