@<TRIPOS>MOLECULE
1nse_HEM_A_1.pdb
 43 50 0 0 0
SMALL
GASTEIGER

@<TRIPOS>ATOM
      1  CHA        9.2470    9.1560   34.7880 C.2   500  HEM500      0.0000
      2  CHB        4.5900    9.0920   33.4380 C.2   500  HEM500      0.0000
      3  CHC        6.0410    7.2820   29.2010 C.2   500  HEM500      0.0000
      4  CHD       10.5150    6.6370   30.8660 C.2   500  HEM500      0.0000
      5  C1A        7.8800    9.3790   34.6980 C.2   500  HEM500      0.0000
      6  C2A        7.1550   10.1390   35.6870 C.2   500  HEM500      0.0000
      7  C3A        5.8530   10.0980   35.3380 C.2   500  HEM500      0.0000
      8  C4A        5.7880    9.3190   34.1210 C.2   500  HEM500      0.0000
      9  CMA        4.6810   10.8220   35.9860 C.3   500  HEM500      0.0000
     10  CAA        7.7450   11.1190   36.6930 C.3   500  HEM500      0.0000
     11  CBA        8.3240   12.3930   36.0880 C.3   500  HEM500      0.0000
     12  CGA        8.8230   13.3560   37.1490 C.2   500  HEM500      0.0000
     13  O1A        8.3040   13.3420   38.2900 O.co2 500  HEM500      0.0000
     14  O2A        9.7440   14.1320   36.8300 O.co2 500  HEM500      0.0000
     15  C1B        4.6100    8.5140   32.1690 C.ar  500  HEM500      0.0000
     16  C2B        3.4220    8.3370   31.3930 C.ar  500  HEM500      0.0000
     17  C3B        3.8270    7.8910   30.1730 C.ar  500  HEM500      0.0000
     18  C4B        5.2460    7.6860   30.2740 C.ar  500  HEM500      0.0000
     19  CMB        2.0350    8.8680   31.7420 C.3   500  HEM500      0.0000
     20  CAB        3.0950    7.9040   28.9880 C.2   500  HEM500      0.0000
     21  CBB        3.0210    7.1020   27.8870 C.2   500  HEM500      0.0000
     22  C1C        7.4300    7.2020   29.2580 C.2   500  HEM500      0.0000
     23  C2C        8.1750    6.6020   28.1760 C.2   500  HEM500      0.0000
     24  C3C        9.4310    6.4020   28.6330 C.2   500  HEM500      0.0000
     25  C4C        9.4230    6.8340   30.0150 C.2   500  HEM500      0.0000
     26  CMC        7.6920    6.4910   26.7360 C.3   500  HEM500      0.0000
     27  CAC       10.5500    5.8730   28.0010 C.2   500  HEM500      0.0000
     28  CBC       10.6640    5.0890   26.8810 C.2   500  HEM500      0.0000
     29  C1D       10.5220    7.2150   32.1430 C.ar  500  HEM500      0.0000
     30  C2D       11.7170    7.3860   32.9230 C.ar  500  HEM500      0.0000
     31  C3D       11.3700    8.0820   34.0310 C.ar  500  HEM500      0.0000
     32  C4D        9.9570    8.3300   33.9220 C.ar  500  HEM500      0.0000
     33  CMD       13.0530    6.7100   32.6300 C.3   500  HEM500      0.0000
     34  CAD       12.3540    8.6290   35.0630 C.2   500  HEM500      0.0000
     35  CBD       13.0990    9.9080   34.7610 C.2   500  HEM500      0.0000
     36  CGD       13.7730   10.6080   35.9200 C.2   500  HEM500      0.0000
     37  O1D       14.3970    9.9670   36.7980 O.co2 500  HEM500      0.0000
     38  O2D       13.6970   11.8640   35.9840 O.co2 500  HEM500      0.0000
     39  NA         7.0350    8.8660   33.7270 N.2   500  HEM500      0.0000
     40  NB         5.7050    7.9070   31.5700 N.ar  500  HEM500      0.0000
     41  NC         8.1350    7.0840   30.4450 N.2   500  HEM500      0.0000
     42  ND         9.4110    7.7610   32.7610 N.ar  500  HEM500      0.0000
     43 FE          7.5110    7.5920   32.2720 Fe    500  HEM500      0.0000
@<TRIPOS>BOND
     1    26    23    1
     2    28    27    2
     3    21    20    2
     4    27    24    1
     5    23    24    2
     6    23    22    1
     7    24    25    1
     8    20    17    1
     9     3    22    2
    10     3    18    1
    11    22    41    1
    12    25    41    2
    13    25     4    1
    14    17    18   ar
    15    17    16   ar
    16    18    40   ar
    17    41    43    1
    18     4    29    2
    19    16    19    1
    20    16    15   ar
    21    40    15   ar
    22    40    43    1
    23    29    42   ar
    24    29    30   ar
    25    15     2    1
    26    43    42    1
    27    43    39    1
    28    33    30    1
    29    42    32   ar
    30    30    31   ar
    31     2     8    2
    32    39     8    1
    33    39     5    2
    34    32    31   ar
    35    32     1    2
    36    31    34    1
    37     8     7    1
    38     5     1    1
    39     5     6    1
    40    35    34    2
    41    35    36    1
    42     7     6    2
    43     7     9    1
    44     6    10    1
    45    36    38   ar
    46    36    37   ar
    47    11    10    1
    48    11    12    1
    49    14    12   ar
    50    12    13   ar
