@<TRIPOS>MOLECULE
1nsf_ATP_A_1.pdb
 31 33 0 0 0
SMALL
GASTEIGER

@<TRIPOS>ATOM
      1  PG        12.6440   27.6500   11.5680 P.3   858  ATP858      0.5373
      2  O1G       11.4780   27.4460   12.4210 O.3   858  ATP858     -0.1143
      3  O2G       13.8520   26.9450   11.9980 O.3   858  ATP858     -0.1143
      4  O3G       12.2840   27.3960   10.1310 O.2   858  ATP858     -0.2221
      5  PB        12.2350   30.5690   11.6050 P.3   858  ATP858      0.2277
      6  O1B       11.2180   30.5990   12.6870 O.3   858  ATP858     -0.4368
      7  O2B       11.7690   30.7580   10.2160 O.2   858  ATP858     -0.5168
      8  O3B       13.0860   29.1900   11.7260 O.3   858  ATP858     -0.2258
      9  PA        13.7060   32.2380   13.4600 P.3   858  ATP858      0.2189
     10  O1A       12.7090   33.2660   13.7620 O.2   858  ATP858     -0.5170
     11  O2A       13.9870   31.1880   14.4630 O.3   858  ATP858     -0.4371
     12  O3A       13.2930   31.6000   12.0610 O.3   858  ATP858     -0.2700
     13  O5'       15.0500   32.9100   13.0510 O.3   858  ATP858     -0.3112
     14  C5'       15.1570   34.2750   12.6350 C.3   858  ATP858      0.1813
     15  C4'       16.4270   34.8580   13.1920 C.3   858  ATP858      0.1821
     16  O4'       16.7580   35.9930   12.3550 O.3   858  ATP858     -0.3135
     17  C3'       16.3250   35.3880   14.6060 C.3   858  ATP858      0.2184
     18  O3'       17.6620   35.3610   15.1370 O.3   858  ATP858     -0.2174
     19  C2'       15.8520   36.7960   14.3420 C.3   858  ATP858      0.2570
     20  O2'       16.1630   37.6910   15.3960 O.3   858  ATP858     -0.2130
     21  C1'       16.6920   37.2130   13.1110 C.3   858  ATP858      0.3186
     22  N9        16.0650   38.2680   12.2720 N.pl3 858  ATP858     -0.1439
     23  C8        16.6190   39.4530   11.8380 C.3   858  ATP858      0.3377
     24  N7        15.8370   40.1890   11.0980 N.2   858  ATP858     -0.2095
     25  C5        14.6770   39.4370   11.0360 C.2   858  ATP858      0.2526
     26  C6        13.4220   39.6480   10.3950 C.2   858  ATP858      0.4393
     27  N6        13.1930   40.7400    9.6840 N.pl3 858  ATP858      0.2180
     28  N1        12.4480   38.7020   10.5250 N.2   858  ATP858      0.0021
     29  C2        12.6870   37.6050   11.2440 C.3   858  ATP858      0.5254
     30  N3        13.8190   37.2770   11.8980 N.2   858  ATP858     -0.0055
     31  C4        14.7940   38.2590   11.7490 C.2   858  ATP858      0.3518
@<TRIPOS>BOND
     1    27    26    1
     2     4     1    2
     3     7     5    2
     4    26    28    2
     5    26    25    1
     6    28    29    1
     7    25    24    2
     8    25    31    1
     9    24    23    1
    10    29    30    1
    11     1     8    1
    12     1     3    1
    13     1     2    1
    14     5     8    1
    15     5    12    1
    16     5     6    1
    17    31    30    2
    18    31    22    1
    19    23    22    1
    20    12     9    1
    21    22    21    1
    22    16    21    1
    23    16    15    1
    24    14    13    1
    25    14    15    1
    26    13     9    1
    27    21    19    1
    28    15    17    1
    29     9    10    2
    30     9    11    1
    31    19    17    1
    32    19    20    1
    33    17    18    1
