@<TRIPOS>MOLECULE
1nsi_ARG_A_1.pdb
 12 11 0 0 0
SMALL
GASTEIGER

@<TRIPOS>ATOM
      1  N         12.6570   65.6180   17.4450 N.3   700  ARG700     -0.1208
      2  CA        12.5890   65.5790   15.9480 C.3   700  ARG700      0.1944
      3  C         12.3700   66.9750   15.3620 C.2   700  ARG700      0.3819
      4  O         12.1420   67.9060   16.1540 O.co2 700  ARG700     -0.2441
      5  CB        11.4750   64.6270   15.4900 C.3   700  ARG700      0.0343
      6  CG        11.6640   63.1880   15.9550 C.3   700  ARG700      0.0490
      7  CD        10.4460   62.3280   15.6680 C.3   700  ARG700      0.2205
      8  NE         9.2790   62.7390   16.4480 N.pl3 700  ARG700     -0.0865
      9  CZ         8.0450   62.2740   16.2620 C.cat 700  ARG700      0.5346
     10  NH1        7.7910   61.3690   15.3180 N.pl3 700  ARG700      0.1354
     11  NH2        7.0590   62.7240   17.0230 N.pl3 700  ARG700      0.1354
     12  OXT       12.4450   67.1340   14.1270 O.co2 700  ARG700     -0.2441
@<TRIPOS>BOND
     1    12     3   ar
     2    10     9    1
     3     3     2    1
     4     3     4   ar
     5     5     2    1
     6     5     6    1
     7     7     6    1
     8     7     8    1
     9     2     1    1
    10     9     8    2
    11     9    11    1
