@<TRIPOS>MOLECULE
1nsi_H4B_A_1.pdb
 17 18 0 0 0
SMALL
GASTEIGER

@<TRIPOS>ATOM
      1  N1        15.2090   63.9360   25.4900 N.2   600  H4B600     -0.2683
      2  C2        14.7020   63.9360   24.2430 C.1   600  H4B600      0.2608
      3  N2        13.4550   63.5830   23.9930 N.pl3 600  H4B600     -0.0220
      4  N3        15.5100   64.2980   23.2210 N.2   600  H4B600     -0.2474
      5  C4        16.8480   64.6970   23.3470 C.1   600  H4B600      0.2441
      6  O4        17.4800   65.0030   22.3210 O.2   600  H4B600     -0.2063
      7  C4A       17.3120   64.6650   24.6860 C.2   600  H4B600      0.2463
      8  C8A       16.5010   64.3120   25.7530 C.1   600  H4B600      0.1270
      9  N5        18.6830   65.0600   24.9310 N.2   600  H4B600     -0.2460
     10  N8        16.9290   64.2800   27.0150 N.2   600  H4B600     -0.2054
     11  C6        19.2300   64.3850   26.1710 C.3   600  H4B600      0.1627
     12  C7        18.2990   64.6590   27.3270 C.3   600  H4B600      0.1643
     13  C9        20.6710   64.8900   26.3390 C.3   600  H4B600      0.2063
     14  O9        20.7260   66.3020   26.4670 O.3   600  H4B600     -0.2183
     15  C10       21.3380   64.2890   27.5800 C.3   600  H4B600      0.1842
     16  C11       22.7410   64.7730   27.7110 C.3   600  H4B600      0.0383
     17  O10       21.2660   62.8720   27.3990 O.3   600  H4B600     -0.2204
@<TRIPOS>BOND
     1     6     5    2
     2     4     5    2
     3     4     2    2
     4     5     7    1
     5     3     2    1
     6     2     1    2
     7     7     9    2
     8     7     8    1
     9     9    11    1
    10     1     8    2
    11     8    10    2
    12    11    13    1
    13    11    12    1
    14    13    14    1
    15    13    15    1
    16    10    12    1
    17    17    15    1
    18    15    16    1
