@<TRIPOS>MOLECULE
1nsi_HEM_A_1.pdb
 43 50 0 0 0
SMALL
GASTEIGER

@<TRIPOS>ATOM
      1  CHA       11.1390   59.2960   19.8590 C.2   550  HEM550      0.0000
      2  CHB        6.7170   61.1690   19.8780 C.2   550  HEM550      0.0000
      3  CHC        5.5410   58.1470   16.4190 C.2   550  HEM550      0.0000
      4  CHD        9.6260   55.7110   17.1290 C.2   550  HEM550      0.0000
      5  C1A       10.0800   60.1330   20.0530 C.2   550  HEM550      0.0000
      6  C2A       10.2090   61.4140   20.6990 C.2   550  HEM550      0.0000
      7  C3A        8.9390   61.8900   20.8190 C.2   550  HEM550      0.0000
      8  C4A        8.0590   60.9390   20.1560 C.2   550  HEM550      0.0000
      9  CMA        8.5210   63.1790   21.5270 C.3   550  HEM550      0.0000
     10  CAA       11.4930   62.1830   21.0010 C.3   550  HEM550      0.0000
     11  CBA       12.2870   62.6030   19.7590 C.3   550  HEM550      0.0000
     12  CGA       13.3750   63.6290   20.0630 C.2   550  HEM550      0.0000
     13  O1A       13.3880   64.1660   21.1900 O.co2 550  HEM550      0.0000
     14  O2A       14.2140   63.9040   19.1760 O.co2 550  HEM550      0.0000
     15  C1B        5.9300   60.4220   19.0160 C.ar  550  HEM550      0.0000
     16  C2B        4.5990   60.7980   18.5560 C.ar  550  HEM550      0.0000
     17  C3B        4.2890   59.9610   17.5600 C.ar  550  HEM550      0.0000
     18  C4B        5.4190   59.0700   17.4020 C.ar  550  HEM550      0.0000
     19  CMB        3.6980   61.8770   19.1040 C.3   550  HEM550      0.0000
     20  CAB        3.1390   60.0190   16.8240 C.2   550  HEM550      0.0000
     21  CBB        2.2140   59.0290   16.8100 C.2   550  HEM550      0.0000
     22  C1C        6.5840   57.2600   16.2940 C.2   550  HEM550      0.0000
     23  C2C        6.6060   56.1870   15.3150 C.2   550  HEM550      0.0000
     24  C3C        7.7350   55.4720   15.5560 C.2   550  HEM550      0.0000
     25  C4C        8.3880   56.1080   16.6730 C.2   550  HEM550      0.0000
     26  CMC        5.5240   55.9210   14.2870 C.3   550  HEM550      0.0000
     27  CAC        8.2620   54.3560   14.9320 C.2   550  HEM550      0.0000
     28  CBC        7.6180   53.4290   14.1800 C.2   550  HEM550      0.0000
     29  C1D       10.3640   56.4200   18.0350 C.ar  550  HEM550      0.0000
     30  C2D       11.7790   56.1960   18.2670 C.ar  550  HEM550      0.0000
     31  C3D       12.2220   57.2860   18.8920 C.ar  550  HEM550      0.0000
     32  C4D       11.0790   58.1300   19.1540 C.ar  550  HEM550      0.0000
     33  CMD       12.6030   54.9600   17.9650 C.3   550  HEM550      0.0000
     34  CAD       13.6680   57.6110   19.1450 C.3   550  HEM550      0.0000
     35  CBD       14.2420   58.6570   18.1960 C.3   550  HEM550      0.0000
     36  CGD       15.6780   59.0060   18.5230 C.2   550  HEM550      0.0000
     37  O1D       16.2950   58.2680   19.3130 O.co2 550  HEM550      0.0000
     38  O2D       16.1940   60.0170   18.0020 O.co2 550  HEM550      0.0000
     39  NA         8.7720   59.8670   19.6800 N.2   550  HEM550      0.0000
     40  NB         6.4050   59.3180   18.3290 N.ar  550  HEM550      0.0000
     41  NC         7.6680   57.2050   17.1420 N.2   550  HEM550      0.0000
     42  ND         9.9130   57.6020   18.6200 N.ar  550  HEM550      0.0000
     43 FE          8.0950   58.4000   18.5360 Fe    550  HEM550      0.0000
@<TRIPOS>BOND
     1    28    27    2
     2    26    23    1
     3    27    24    1
     4    23    24    2
     5    23    22    1
     6    24    25    1
     7    22     3    2
     8    22    41    1
     9     3    18    1
    10    25     4    1
    11    25    41    2
    12    21    20    2
    13    20    17    1
    14     4    29    2
    15    41    43    1
    16    18    17   ar
    17    18    40   ar
    18    17    16   ar
    19    33    30    1
    20    38    36   ar
    21    29    30   ar
    22    29    42   ar
    23    35    36    1
    24    35    34    1
    25    30    31   ar
    26    40    43    1
    27    40    15   ar
    28    36    37   ar
    29    43    42    1
    30    43    39    1
    31    16    15   ar
    32    16    19    1
    33    42    32   ar
    34    31    34    1
    35    31    32   ar
    36    15     2    1
    37    32     1    2
    38    14    12   ar
    39    39     5    2
    40    39     8    1
    41    11    12    1
    42    11    10    1
    43     1     5    1
    44     2     8    2
    45     5     6    1
    46    12    13   ar
    47     8     7    1
    48     6     7    2
    49     6    10    1
    50     7     9    1
