@<TRIPOS>MOLECULE
1nsm_GLA_B_1.pdb
 12 12 0 0 0
SMALL
GASTEIGER

@<TRIPOS>ATOM
      1  C1        20.8460    5.5850   35.9410 C.3   2400  GLA2400     0.3024
      2  C2        19.3920    5.3850   36.3540 C.3   2400  GLA2400     0.2434
      3  C3        19.2210    4.4590   37.5770 C.3   2400  GLA2400     0.2199
      4  C4        19.8570    3.0980   37.3290 C.3   2400  GLA2400     0.2144
      5  C5        21.2910    3.3440   36.8680 C.3   2400  GLA2400     0.1836
      6  C6        22.0130    2.1190   36.3680 C.3   2400  GLA2400     0.2142
      7  O1        21.5280    6.3770   36.9050 O.3   2400  GLA2400    -0.1869
      8  O2        18.8160    6.6660   36.5820 O.3   2400  GLA2400    -0.2148
      9  O3        17.8650    4.1660   37.8760 O.3   2400  GLA2400    -0.2174
     10  O4        19.1350    2.2450   36.4490 O.3   2400  GLA2400    -0.2176
     11  O5        21.4460    4.2880   35.7760 O.3   2400  GLA2400    -0.3236
     12  O6        23.3430    2.5880   36.1160 O.3   2400  GLA2400    -0.2176
@<TRIPOS>BOND
     1    11     1    1
     2    11     5    1
     3     1     2    1
     4     1     7    1
     5    12     6    1
     6     2     8    1
     7     2     3    1
     8     6     5    1
     9    10     4    1
    10     5     4    1
    11     4     3    1
    12     3     9    1
