@<TRIPOS>MOLECULE
1nsm_GAL_A_1.pdb
 12 12 0 0 0
SMALL
GASTEIGER

@<TRIPOS>ATOM
      1  C1         5.9990   37.5410    9.9080 C.3   1400  GAL1400     0.3024
      2  C2         7.3130   37.5210    9.2280 C.3   1400  GAL1400     0.2434
      3  C3         7.3530   38.7010    8.2800 C.3   1400  GAL1400     0.2199
      4  C4         6.2520   38.6800    7.2210 C.3   1400  GAL1400     0.2144
      5  C5         4.9160   38.4630    7.9220 C.3   1400  GAL1400     0.1836
      6  C6         3.7330   38.3370    6.9870 C.3   1400  GAL1400     0.2142
      7  O1         5.9320   36.5060   10.8720 O.3   1400  GAL1400    -0.1869
      8  O2         8.4140   37.6040   10.1080 O.3   1400  GAL1400    -0.2148
      9  O3         8.6420   38.7630    7.6700 O.3   1400  GAL1400    -0.2174
     10  O4         6.4750   37.7480    6.1750 O.3   1400  GAL1400    -0.2176
     11  O5         4.8750   37.4570    8.9850 O.3   1400  GAL1400    -0.3236
     12  O6         2.5760   38.4030    7.8270 O.3   1400  GAL1400    -0.2176
@<TRIPOS>BOND
     1    10     4    1
     2     6    12    1
     3     6     5    1
     4     4     5    1
     5     4     3    1
     6     9     3    1
     7     5    11    1
     8     3     2    1
     9    11     1    1
    10     2     1    1
    11     2     8    1
    12     1     7    1
