@<TRIPOS>MOLECULE
1nsr_BGC_B_1.pdb
 12 12 0 0 0
SMALL
GASTEIGER

@<TRIPOS>ATOM
      1  C2        22.3820    4.1200   35.9780 C.3   2400  BGC2400     0.2434
      2  C3        21.3850    5.1110   35.4550 C.3   2400  BGC2400     0.2199
      3  C4        21.5860    6.3800   36.2190 C.3   2400  BGC2400     0.2144
      4  C5        22.9460    6.8840   35.7730 C.3   2400  BGC2400     0.1836
      5  C6        23.3000    8.2080   36.4190 C.3   2400  BGC2400     0.2142
      6  C1        23.7410    4.5870   35.5120 C.3   2400  BGC2400     0.3024
      7  O1        24.7190    3.5980   35.8790 O.3   2400  BGC2400    -0.1869
      8  O2        22.0430    2.8230   35.5220 O.3   2400  BGC2400    -0.2148
      9  O3        20.0700    4.6840   35.7310 O.3   2400  BGC2400    -0.2174
     10  O4        20.5600    7.3250   35.9600 O.3   2400  BGC2400    -0.2176
     11  O5        23.9720    5.8980   36.1030 O.3   2400  BGC2400    -0.3236
     12  O6        24.2830    8.8600   35.5790 O.3   2400  BGC2400    -0.2176
@<TRIPOS>BOND
     1     2     9    1
     2     2     1    1
     3     2     3    1
     4     6     7    1
     5     6     1    1
     6     6    11    1
     7     8     1    1
     8    12     5    1
     9     4    11    1
    10     4     3    1
    11     4     5    1
    12    10     3    1
