@<TRIPOS>MOLECULE
1nss_BGC_A_1.pdb
 12 12 0 0 0
SMALL
GASTEIGER

@<TRIPOS>ATOM
      1  C2         2.7220   37.9340    9.1740 C.3   1400  BGC1400     0.2434
      2  C3         2.6650   38.2420   10.6920 C.3   1400  BGC1400     0.2199
      3  C4         3.6950   37.4130   11.4650 C.3   1400  BGC1400     0.2144
      4  C5         5.0340   37.7270   10.8450 C.3   1400  BGC1400     0.1836
      5  C6         6.1660   36.9980   11.5500 C.3   1400  BGC1400     0.2142
      6  C1         4.1350   38.1800    8.6590 C.3   1400  BGC1400     0.3024
      7  O1         4.2670   38.0170    7.2320 O.3   1400  BGC1400    -0.1869
      8  O2         1.7690   38.7230    8.4550 O.3   1400  BGC1400    -0.2148
      9  O3         1.3710   38.0150   11.2680 O.3   1400  BGC1400    -0.2174
     10  O4         3.7570   37.6930   12.8750 O.3   1400  BGC1400    -0.2176
     11  O5         5.0300   37.3650    9.4360 O.3   1400  BGC1400    -0.3236
     12  O6         7.3470   37.1580   10.7740 O.3   1400  BGC1400    -0.2176
@<TRIPOS>BOND
     1     7     6    1
     2     8     1    1
     3     6     1    1
     4     6    11    1
     5     1     2    1
     6    11     4    1
     7     2     9    1
     8     2     3    1
     9    12     5    1
    10     4     3    1
    11     4     5    1
    12     3    10    1
