@<TRIPOS>MOLECULE
1nst_A3P_A_1.pdb
 27 29 0 0 0
SMALL
GASTEIGER

@<TRIPOS>ATOM
      1  P1       -36.7020   -5.6760   53.2800 P.3   301  A3P301      0.5327
      2  O1P      -36.4580   -4.9120   54.5810 O.3   301  A3P301     -0.1145
      3  O2P      -38.2220   -6.0370   53.0300 O.3   301  A3P301     -0.1145
      4  O3P      -36.1900   -4.8380   52.0770 O.2   301  A3P301     -0.2224
      5  P2       -33.7200  -11.6500   50.7270 P.3   301  A3P301      0.5327
      6  O4P      -34.0750  -13.0530   51.1050 O.3   301  A3P301     -0.1145
      7  O5P      -32.3220  -11.4820   50.3620 O.3   301  A3P301     -0.1145
      8  O6P      -34.6510  -11.2540   49.5490 O.2   301  A3P301     -0.2224
      9  O5'      -33.9910  -10.7410   51.9600 O.3   301  A3P301     -0.2675
     10  C5'      -34.0440   -9.3590   51.9560 C.3   301  A3P301      0.1859
     11  C4'      -34.4200   -8.8570   53.3320 C.3   301  A3P301      0.1796
     12  O4'      -33.3940   -9.2200   54.3080 O.3   301  A3P301     -0.3136
     13  C3'      -34.5860   -7.4060   53.5270 C.3   301  A3P301      0.1928
     14  O3'      -35.6850   -6.8390   52.9190 O.3   301  A3P301     -0.2673
     15  C2'      -34.1770   -7.0090   55.0550 C.3   301  A3P301      0.2543
     16  O2'      -35.1830   -6.7670   56.0260 O.3   301  A3P301     -0.2131
     17  C1'      -33.2620   -8.2460   55.3870 C.3   301  A3P301      0.3185
     18  N9       -31.8370   -7.9780   55.7560 N.pl3 301  A3P301     -0.1439
     19  C8       -31.2870   -8.7610   56.7260 C.3   301  A3P301      0.3377
     20  N7       -30.0730   -8.4870   57.0190 N.2   301  A3P301     -0.2095
     21  C5       -29.7650   -7.4480   56.1990 C.2   301  A3P301      0.2526
     22  C6       -28.5770   -6.6660   56.0260 C.2   301  A3P301      0.4393
     23  N6       -27.4770   -6.8610   56.7230 N.pl3 301  A3P301      0.2180
     24  N1       -28.6160   -5.6740   55.0850 N.2   301  A3P301      0.0021
     25  C2       -29.7430   -5.4400   54.3400 C.3   301  A3P301      0.5254
     26  N3       -30.8910   -6.1020   54.4240 N.2   301  A3P301     -0.0055
     27  C4       -30.8520   -7.1070   55.3840 C.2   301  A3P301      0.3518
@<TRIPOS>BOND
     1     8     5    2
     2     7     5    1
     3     5     6    1
     4     5     9    1
     5    10     9    1
     6    10    11    1
     7     4     1    2
     8    14     1    1
     9    14    13    1
    10     3     1    1
    11     1     2    1
    12    11    13    1
    13    11    12    1
    14    13    15    1
    15    12    17    1
    16    25    26    1
    17    25    24    1
    18    26    27    2
    19    15    17    1
    20    15    16    1
    21    24    22    2
    22    27    18    1
    23    27    21    1
    24    17    18    1
    25    18    19    1
    26    22    21    1
    27    22    23    1
    28    21    20    2
    29    19    20    1
