@<TRIPOS>MOLECULE
1nsu_GLA_A_1.pdb
 12 12 0 0 0
SMALL
GASTEIGER

@<TRIPOS>ATOM
      1  C1         7.7270   37.3720    9.1290 C.3   1400  GLA1400     0.3024
      2  C2         6.6650   37.2720    8.0680 C.3   1400  GLA1400     0.2434
      3  C3         5.5340   38.2070    8.3580 C.3   1400  GLA1400     0.2199
      4  C4         4.9680   37.8100    9.6910 C.3   1400  GLA1400     0.2144
      5  C5         6.0280   37.8460   10.8010 C.3   1400  GLA1400     0.1836
      6  C6         5.4910   37.1750   12.0480 C.3   1400  GLA1400     0.2142
      7  O1         8.1900   38.7200    9.0660 O.3   1400  GLA1400    -0.1869
      8  O2         7.1530   37.6410    6.7650 O.3   1400  GLA1400    -0.2148
      9  O3         4.5010   37.9650    7.3830 O.3   1400  GLA1400    -0.2174
     10  O4         4.4100   36.5220    9.6350 O.3   1400  GLA1400    -0.2176
     11  O5         7.1920   37.0740   10.4720 O.3   1400  GLA1400    -0.3236
     12  O6         4.4440   37.9700   12.6030 O.3   1400  GLA1400    -0.2176
@<TRIPOS>BOND
     1     8     2    1
     2     9     3    1
     3     2     3    1
     4     2     1    1
     5     3     4    1
     6     7     1    1
     7     1    11    1
     8    10     4    1
     9     4     5    1
    10    11     5    1
    11     5     6    1
    12     6    12    1
