@<TRIPOS>MOLECULE
1nsv_BGC_A_1.pdb
 12 12 0 0 0
SMALL
GASTEIGER

@<TRIPOS>ATOM
      1  C2         4.1110   37.7000    8.2660 C.3   1400  BGC1400     0.2434
      2  C3         3.7890   38.1700    9.7040 C.3   1400  BGC1400     0.2199
      3  C4         4.6710   37.4920   10.7410 C.3   1400  BGC1400     0.2144
      4  C5         6.1090   37.7770   10.2970 C.3   1400  BGC1400     0.1836
      5  C6         7.0950   36.9430   11.0510 C.3   1400  BGC1400     0.2142
      6  C1         5.5540   37.9750    7.9170 C.3   1400  BGC1400     0.3024
      7  O1         5.8600   37.4050    6.6420 O.3   1400  BGC1400    -0.1869
      8  O2         3.2360   38.3590    7.3460 O.3   1400  BGC1400    -0.2148
      9  O3         2.4090   37.9790   10.0520 O.3   1400  BGC1400    -0.2174
     10  O4         4.4070   37.8650   12.1280 O.3   1400  BGC1400    -0.2176
     11  O5         6.3900   37.3880    8.9270 O.3   1400  BGC1400    -0.3236
     12  O6         7.1340   35.6310   10.5050 O.3   1400  BGC1400    -0.2176
@<TRIPOS>BOND
     1     7     6    1
     2     8     1    1
     3     6     1    1
     4     6    11    1
     5     1     2    1
     6    11     4    1
     7     2     9    1
     8     2     3    1
     9     4     3    1
    10     4     5    1
    11    12     5    1
    12     3    10    1
