@<TRIPOS>MOLECULE
1nsx_GAL_A_1.pdb
 12 12 0 0 0
SMALL
GASTEIGER

@<TRIPOS>ATOM
      1  C1         7.7970   38.1200    9.0290 C.3   1400  GAL1400     0.3024
      2  C2         6.7540   37.5380    8.0570 C.3   1400  GAL1400     0.2434
      3  C3         5.4560   38.2810    8.3010 C.3   1400  GAL1400     0.2199
      4  C4         5.0030   37.9690    9.7240 C.3   1400  GAL1400     0.2144
      5  C5         6.0910   38.3710   10.7100 C.3   1400  GAL1400     0.1836
      6  C6         5.8000   37.9060   12.1240 C.3   1400  GAL1400     0.2142
      7  O1         9.0160   37.4060    8.8490 O.3   1400  GAL1400    -0.1869
      8  O2         7.0970   37.6310    6.6570 O.3   1400  GAL1400    -0.2148
      9  O3         4.4330   37.8560    7.4030 O.3   1400  GAL1400    -0.2174
     10  O4         4.7000   36.5870    9.8880 O.3   1400  GAL1400    -0.2176
     11  O5         7.3560   37.7830   10.3620 O.3   1400  GAL1400    -0.3236
     12  O6         7.0270   38.1530   12.7910 O.3   1400  GAL1400    -0.2176
@<TRIPOS>BOND
     1     8     2    1
     2     9     3    1
     3     2     3    1
     4     2     1    1
     5     3     4    1
     6     7     1    1
     7     1    11    1
     8     4    10    1
     9     4     5    1
    10    11     5    1
    11     5     6    1
    12     6    12    1
