@<TRIPOS>MOLECULE
1nsy_ATP_A_1.pdb
 31 33 0 0 0
SMALL
GASTEIGER

@<TRIPOS>ATOM
      1  PG        21.6870   56.1290   36.4590 P.3   3000  ATP3000     0.5373
      2  O1G       22.3720   57.1640   37.3060 O.3   3000  ATP3000    -0.1143
      3  O2G       22.4430   54.8260   36.3610 O.3   3000  ATP3000    -0.1143
      4  O3G       21.0670   56.6450   35.1640 O.2   3000  ATP3000    -0.2221
      5  PB        19.0380   55.1710   36.6860 P.3   3000  ATP3000     0.2277
      6  O1B       19.5160   54.1490   35.6920 O.2   3000  ATP3000    -0.5168
      7  O2B       18.1620   54.9100   37.8900 O.3   3000  ATP3000    -0.4368
      8  O3B       20.3670   55.8220   37.3430 O.3   3000  ATP3000    -0.2258
      9  PA        16.9420   56.4770   35.0470 P.3   3000  ATP3000     0.2189
     10  O1A       16.1480   55.2200   34.7880 O.2   3000  ATP3000    -0.5170
     11  O2A       16.2470   57.5050   35.8510 O.3   3000  ATP3000    -0.4371
     12  O3A       18.3970   56.3540   35.7710 O.3   3000  ATP3000    -0.2700
     13  O5'       17.4710   56.8850   33.6880 O.3   3000  ATP3000    -0.3112
     14  C5'       18.0250   55.9250   32.7440 C.3   3000  ATP3000     0.1813
     15  C4'       17.2370   55.7720   31.4320 C.3   3000  ATP3000     0.1821
     16  O4'       17.5270   56.9210   30.6030 O.3   3000  ATP3000    -0.3135
     17  C3'       17.6100   54.5910   30.5190 C.3   3000  ATP3000     0.2184
     18  O3'       16.7450   53.5210   30.7570 O.3   3000  ATP3000    -0.2174
     19  C2'       17.3140   55.0570   29.0920 C.3   3000  ATP3000     0.2570
     20  O2'       15.9670   54.8010   28.6460 O.3   3000  ATP3000    -0.2130
     21  C1'       17.5720   56.5470   29.2240 C.3   3000  ATP3000     0.3186
     22  N9        18.7970   57.0740   28.6450 N.pl3 3000  ATP3000    -0.1439
     23  C8        20.0820   56.7160   28.9730 C.3   3000  ATP3000     0.3377
     24  N7        20.9910   57.4370   28.3280 N.2   3000  ATP3000    -0.2095
     25  C5        20.2480   58.3270   27.5520 C.2   3000  ATP3000     0.2526
     26  C6        20.5990   59.3750   26.6960 C.2   3000  ATP3000     0.4393
     27  N6        21.8830   59.7160   26.4590 N.pl3 3000  ATP3000     0.2180
     28  N1        19.6090   60.0300   26.0430 N.2   3000  ATP3000     0.0021
     29  C2        18.3450   59.7350   26.3300 C.3   3000  ATP3000     0.5254
     30  N3        17.8980   58.8140   27.1680 N.2   3000  ATP3000    -0.0055
     31  C4        18.8950   58.1160   27.7270 C.2   3000  ATP3000     0.3518
@<TRIPOS>BOND
     1    28    29    1
     2    28    26    2
     3    29    30    1
     4    27    26    1
     5    26    25    1
     6    30    31    2
     7    25    31    1
     8    25    24    2
     9    31    22    1
    10    24    23    1
    11    22    23    1
    12    22    21    1
    13    20    19    1
    14    19    21    1
    15    19    17    1
    16    21    16    1
    17    17    18    1
    18    17    15    1
    19    16    15    1
    20    15    14    1
    21    14    13    1
    22    13     9    1
    23    10     9    2
    24     9    12    1
    25     9    11    1
    26     4     1    2
    27     6     5    2
    28    12     5    1
    29     3     1    1
    30     1     2    1
    31     1     8    1
    32     5     8    1
    33     5     7    1
