@<TRIPOS>MOLECULE
1nsy_AMP_A_1.pdb
 23 25 0 0 0
SMALL
GASTEIGER

@<TRIPOS>ATOM
      1  P         15.3220   60.2550   47.3370 P.3   4000  AMP4000     0.5327
      2  O1P       16.0020   61.5510   47.1310 O.3   4000  AMP4000    -0.1145
      3  O2P       15.7250   59.3660   46.1990 O.2   4000  AMP4000    -0.2224
      4  O3P       15.5110   59.5370   48.8180 O.3   4000  AMP4000    -0.1145
      5  O5'       13.8510   60.5060   47.3310 O.3   4000  AMP4000    -0.2675
      6  C5'       13.2020   61.2820   46.2860 C.3   4000  AMP4000     0.1860
      7  C4'       11.8270   61.7780   46.6600 C.3   4000  AMP4000     0.1823
      8  O4'       10.9320   60.6450   46.5190 O.3   4000  AMP4000    -0.3135
      9  C3'       11.6990   62.1440   48.1390 C.3   4000  AMP4000     0.2184
     10  O3'       12.1630   63.4630   48.3660 O.3   4000  AMP4000    -0.2174
     11  C2'       10.2260   61.9120   48.3910 C.3   4000  AMP4000     0.2570
     12  O2'        9.4670   63.0300   48.0110 O.3   4000  AMP4000    -0.2130
     13  C1'        9.9140   60.6830   47.5170 C.3   4000  AMP4000     0.3186
     14  N9         9.9860   59.4230   48.2640 N.pl3 4000  AMP4000    -0.1439
     15  C8        11.0250   58.5130   48.1600 C.3   4000  AMP4000     0.3377
     16  N7        10.8730   57.5020   48.9750 N.2   4000  AMP4000    -0.2095
     17  C5         9.6190   57.7000   49.5790 C.2   4000  AMP4000     0.2526
     18  C6         8.8790   56.9960   50.5600 C.2   4000  AMP4000     0.4393
     19  N6         9.2560   55.8250   51.1400 N.pl3 4000  AMP4000     0.2180
     20  N1         7.7260   57.5200   50.9770 N.2   4000  AMP4000     0.0021
     21  C2         7.3510   58.6990   50.4920 C.3   4000  AMP4000     0.5254
     22  N3         7.9560   59.4550   49.5920 N.2   4000  AMP4000    -0.0055
     23  C4         9.1190   58.9240   49.2010 C.2   4000  AMP4000     0.3518
@<TRIPOS>BOND
     1     3     1    2
     2     6     7    1
     3     6     5    1
     4     8     7    1
     5     8    13    1
     6     7     9    1
     7     2     1    1
     8     5     1    1
     9     1     4    1
    10    13    14    1
    11    13    11    1
    12    12    11    1
    13     9    10    1
    14     9    11    1
    15    15    14    1
    16    15    16    1
    17    14    23    1
    18    16    17    2
    19    23    17    1
    20    23    22    2
    21    17    18    1
    22    22    21    1
    23    21    20    1
    24    18    20    2
    25    18    19    1
