@<TRIPOS>MOLECULE
1nsz_GLC_A_1.pdb
 12 12 0 0 0
SMALL
GASTEIGER

@<TRIPOS>ATOM
      1  C1         4.4620   38.0930    9.4480 C.3   1400  GLC1400     0.3024
      2  C2         5.2030   38.4320    8.1510 C.3   1400  GLC1400     0.2434
      3  C3         6.5440   37.7570    8.1270 C.3   1400  GLC1400     0.2199
      4  C4         7.3320   38.2510    9.3480 C.3   1400  GLC1400     0.2144
      5  C5         6.5790   37.7430   10.5780 C.3   1400  GLC1400     0.1836
      6  C6         7.1460   38.1960   11.9180 C.3   1400  GLC1400     0.2142
      7  O1         4.1150   36.7140    9.4130 O.3   1400  GLC1400    -0.1869
      8  O2         4.4660   37.9310    7.0640 O.3   1400  GLC1400    -0.2148
      9  O3         7.1730   38.0760    6.8850 O.3   1400  GLC1400    -0.2174
     10  O4         8.6820   37.8320    9.4140 O.3   1400  GLC1400    -0.2176
     11  O5         5.2640   38.3290   10.6040 O.3   1400  GLC1400    -0.3236
     12  O6         7.7860   39.4530   11.7060 O.3   1400  GLC1400    -0.2176
@<TRIPOS>BOND
     1     9     3    1
     2     8     2    1
     3     3     2    1
     4     3     4    1
     5     2     1    1
     6     4    10    1
     7     4     5    1
     8     7     1    1
     9     1    11    1
    10     5    11    1
    11     5     6    1
    12    12     6    1
