@<TRIPOS>MOLECULE
1nt1_T76_A_1.pdb
 35 38 0 0 0
SMALL
GASTEIGER

@<TRIPOS>ATOM
      1  C1        13.3050  -11.3460   21.9390 C.ar  247  T76247      0.0378
      2  C2        12.6100  -12.4750   22.3290 C.ar  247  T76247      0.1381
      3  C3        11.6610  -12.4160   23.3870 C.ar  247  T76247      0.0376
      4  C4        11.4900  -11.2300   24.1020 C.ar  247  T76247      0.0145
      5  C5        12.2810  -10.1200   23.7820 C.ar  247  T76247      0.0576
      6  C6        13.1730  -10.1610   22.6800 C.ar  247  T76247      0.0121
      7  C7        14.1440  -11.3850   20.6840 C.3   247  T76247      0.1670
      8  N8        15.5830  -11.5230   20.9480 N.2   247  T76247     -0.2000
      9  C9        16.1920  -12.7050   20.6640 C.1   247  T76247      0.1444
     10  C10       17.6880  -12.7240   20.8980 C.3   247  T76247      0.1823
     11  O11       15.6200  -13.7450   20.3220 O.2   247  T76247     -0.2254
     12  O12       12.9140  -13.6870   21.7050 O.3   247  T76247     -0.4586
     13  C18       18.4400  -12.8770   19.5630 C.3   247  T76247      0.0388
     14  C19       19.7640  -13.5550   19.9390 C.3   247  T76247      0.0244
     15  C20       19.2630  -14.5920   20.9510 C.3   247  T76247      0.0945
     16  N21       18.1110  -13.9590   21.5710 N.am  247  T76247     -0.2658
     17  C29       17.4450  -14.3920   22.6690 C.2   247  T76247      0.2495
     18  C30       17.9410  -15.7110   23.2370 C.3   247  T76247      0.1902
     19  N31       16.8250  -16.6570   23.2880 N.2   247  T76247     -0.1989
     20  C32       16.6220  -17.3810   22.1570 C.1   247  T76247      0.1285
     21  O33       17.4440  -17.4820   21.2250 O.2   247  T76247     -0.2269
     22  C34       15.2330  -17.9950   22.0630 C.3   247  T76247      0.1487
     23  C35       14.4690  -17.3110   20.9130 C.3   247  T76247      0.1553
     24  N38       13.9290  -15.9920   21.3100 N.2   247  T76247     -0.2020
     25  C41       12.7000  -16.0430   21.8690 C.1   247  T76247      0.1718
     26  O42       12.0520  -17.0770   22.0300 O.2   247  T76247     -0.2232
     27  C43       12.1630  -14.7150   22.3090 C.3   247  T76247      0.3256
     28  O44       16.4310  -13.8520   23.1320 O.2   247  T76247     -0.2727
     29  C45       18.5290  -15.4530   24.6390 C.3   247  T76247      0.0322
     30  C47       18.7960  -16.7530   25.4060 C.3   247  T76247      0.0025
     31  C48       19.4010  -16.4530   26.7880 C.3   247  T76247      0.0001
     32  C49       20.6980  -15.6420   26.6280 C.3   247  T76247      0.0000
     33  C50       20.4210  -14.3300   25.8830 C.3   247  T76247      0.0001
     34  C51       19.8080  -14.6210   24.5140 C.3   247  T76247      0.0025
     35 CL68       12.1860   -8.7050   24.7850 Cl    247  T76247     -0.0823
@<TRIPOS>BOND
     1    13    14    1
     2    13    10    1
     3    14    15    1
     4    11     9    2
     5     9    10    1
     6     9     8    2
     7     7     8    1
     8     7     1    1
     9    10    16    1
    10    23    24    1
    11    23    22    1
    12    15    16    1
    13    21    20    2
    14    24    25    2
    15    16    17   am
    16    12    27    1
    17    12     2    1
    18    25    26    2
    19    25    27    1
    20     1     2   ar
    21     1     6   ar
    22    22    20    1
    23    20    19    2
    24     2     3   ar
    25    17    28    2
    26    17    18    1
    27     6     5   ar
    28    18    19    1
    29    18    29    1
    30     3     4   ar
    31     5     4   ar
    32     5    35    1
    33    34    29    1
    34    34    33    1
    35    29    30    1
    36    30    31    1
    37    33    32    1
    38    32    31    1
