@<TRIPOS>MOLECULE
1nt2_SAM_A_1.pdb
 27 29 0 0 0
SMALL
GASTEIGER

@<TRIPOS>ATOM
      1  N         33.3430   32.3040   33.4770 N.3   301  SAM301     -0.1208
      2  CA        34.7620   32.0910   33.8590 C.3   301  SAM301      0.1952
      3  C         34.9140   30.8190   34.6830 C.2   301  SAM301      0.3819
      4  O         33.9050   30.1610   34.9210 O.co2 301  SAM301     -0.2441
      5  OXT       36.1000   30.5300   35.0670 O.co2 301  SAM301     -0.2441
      6  CB        35.2900   33.3330   34.6320 C.3   301  SAM301      0.0414
      7  CG        35.9750   34.2840   33.6580 C.3   301  SAM301      0.0503
      8  SD        36.7510   35.8490   34.2620 S.3   301  SAM301     -0.1761
      9  CE        35.4410   36.9600   34.8010 C.3   301  SAM301      0.0590
     10  C5'       37.4300   36.6380   32.8590 C.3   301  SAM301      0.0806
     11  C4'       38.5500   35.9060   32.1560 C.3   301  SAM301      0.1622
     12  O4'       38.9260   36.7270   31.0480 O.3   301  SAM301     -0.3153
     13  C3'       39.8280   35.7580   32.9820 C.3   301  SAM301      0.2168
     14  O3'       39.9470   34.3240   33.1780 O.3   301  SAM301     -0.2175
     15  C2'       40.9820   36.2240   32.1060 C.3   301  SAM301      0.2569
     16  O2'       42.1830   35.4830   32.0000 O.3   301  SAM301     -0.2130
     17  C1'       40.2860   36.5500   30.7700 C.3   301  SAM301      0.3185
     18  N9        40.7710   37.7570   30.1240 N.pl3 301  SAM301     -0.1439
     19  C8        40.7310   39.0550   30.5630 C.3   301  SAM301      0.3377
     20  N7        41.2440   39.9100   29.7300 N.2   301  SAM301     -0.2095
     21  C5        41.6550   39.1290   28.6620 C.2   301  SAM301      0.2526
     22  C6        42.2850   39.4400   27.4200 C.2   301  SAM301      0.4393
     23  N6        42.6070   40.7010   27.0750 N.pl3 301  SAM301      0.2180
     24  N1        42.5780   38.4130   26.5400 N.2   301  SAM301      0.0021
     25  C2        42.2460   37.1400   26.9000 C.3   301  SAM301      0.5254
     26  N3        41.6450   36.7340   28.0440 N.2   301  SAM301     -0.0055
     27  C4        41.3740   37.7910   28.8920 C.2   301  SAM301      0.3518
@<TRIPOS>BOND
     1    24    25    1
     2    24    22    2
     3    25    26    1
     4    23    22    1
     5    22    21    1
     6    26    27    2
     7    21    27    1
     8    21    20    2
     9    27    18    1
    10    20    19    1
    11    18    19    1
    12    18    17    1
    13    17    12    1
    14    17    15    1
    15    12    11    1
    16    16    15    1
    17    15    13    1
    18    11    10    1
    19    11    13    1
    20    10     8    1
    21    13    14    1
    22     1     2    1
    23     7     8    1
    24     7     6    1
    25     2     6    1
    26     2     3    1
    27     8     9    1
    28     3     4   ar
    29     3     5   ar
