@<TRIPOS>MOLECULE
1nt4_G1P_A_1.pdb
 16 16 0 0 0
SMALL
GASTEIGER

@<TRIPOS>ATOM
      1  C1       148.7820  117.5830   72.4300 C.3   2000  G1P2000     0.2781
      2  C2       147.6390  118.3540   73.1320 C.3   2000  G1P2000     0.2410
      3  C3       147.1340  117.5560   74.3530 C.3   2000  G1P2000     0.2198
      4  C4       146.7720  116.0820   73.9470 C.3   2000  G1P2000     0.2144
      5  C5       148.0070  115.4200   73.2490 C.3   2000  G1P2000     0.1835
      6  C6       147.6550  113.9900   72.7620 C.3   2000  G1P2000     0.2142
      7  O1       149.0450  118.2820   71.2110 O.3   2000  G1P2000    -0.2416
      8  O2       148.0730  119.6650   73.5690 O.3   2000  G1P2000    -0.2149
      9  O3       145.9640  118.2010   74.8860 O.3   2000  G1P2000    -0.2174
     10  O4       146.4260  115.3100   75.1130 O.3   2000  G1P2000    -0.2176
     11  O5       148.3520  116.2390   72.0880 O.3   2000  G1P2000    -0.3253
     12  O6       148.8310  113.3900   72.1880 O.3   2000  G1P2000    -0.2176
     13  P        150.0060  117.7330   70.0860 P.3   2000  G1P2000     0.5346
     14  O1P      150.0980  118.7370   68.9970 O.2   2000  G1P2000    -0.2223
     15  O2P      149.4350  116.3840   69.5120 O.3   2000  G1P2000    -0.1145
     16  O3P      151.4440  117.4790   70.7150 O.3   2000  G1P2000    -0.1145
@<TRIPOS>BOND
     1    14    13    2
     2    15    13    1
     3    13    16    1
     4    13     7    1
     5     7     1    1
     6    11     1    1
     7    11     5    1
     8    12     6    1
     9     1     2    1
    10     6     5    1
    11     2     8    1
    12     2     3    1
    13     5     4    1
    14     4     3    1
    15     4    10    1
    16     3     9    1
