@<TRIPOS>MOLECULE
1ntf_HEM_A_1.pdb
 43 50 0 0 0
SMALL
GASTEIGER

@<TRIPOS>ATOM
      1 FE         10.1440   18.5930    4.1940 Fe    300  HEM300      0.0000
      2  CHA        7.7030   20.7010    3.2730 C.2   300  HEM300      0.0000
      3  CHB        7.7980   16.5910    5.8600 C.2   300  HEM300      0.0000
      4  CHC       12.5890   16.6250    5.4310 C.2   300  HEM300      0.0000
      5  CHD       12.5740   21.0300    3.5220 C.2   300  HEM300      0.0000
      6  NA         8.0950   18.6620    4.5440 N.2   300  HEM300      0.0000
      7  C1A        7.2860   19.5880    3.9590 C.2   300  HEM300      0.0000
      8  C2A        5.9240   19.1580    4.1700 C.2   300  HEM300      0.0000
      9  C3A        5.9360   18.0100    4.9020 C.2   300  HEM300      0.0000
     10  C4A        7.3190   17.7010    5.1640 C.2   300  HEM300      0.0000
     11  CMA        4.7820   17.1610    5.4500 C.3   300  HEM300      0.0000
     12  CAA        4.7080   19.9090    3.5820 C.3   300  HEM300      0.0000
     13  CBA        4.3650   19.1900    2.2500 C.3   300  HEM300      0.0000
     14  CGA        3.0930   19.7240    1.5890 C.2   300  HEM300      0.0000
     15  O1A        3.2150   20.8040    0.9930 O.co2 300  HEM300      0.0000
     16  O2A        2.0140   19.0620    1.6370 O.co2 300  HEM300      0.0000
     17  NB        10.1750   16.9020    5.4690 N.ar  300  HEM300      0.0000
     18  C1B        9.1010   16.1770    5.9170 C.ar  300  HEM300      0.0000
     19  C2B        9.6280   14.9690    6.5550 C.ar  300  HEM300      0.0000
     20  C3B       10.9830   15.0450    6.4320 C.ar  300  HEM300      0.0000
     21  C4B       11.3310   16.2440    5.7340 C.ar  300  HEM300      0.0000
     22  CMB        8.7500   13.8980    7.2360 C.3   300  HEM300      0.0000
     23  CAB       12.0860   14.1000    6.8790 C.2   300  HEM300      0.0000
     24  CBB       11.8340   12.7860    6.8520 C.2   300  HEM300      0.0000
     25  NC        12.2330   18.7820    4.4750 N.2   300  HEM300      0.0000
     26  C1C       13.0460   17.8260    4.9480 C.2   300  HEM300      0.0000
     27  C2C       14.4260   18.2730    4.8240 C.2   300  HEM300      0.0000
     28  C3C       14.3920   19.5050    4.2890 C.2   300  HEM300      0.0000
     29  C4C       13.0170   19.8420    4.0620 C.2   300  HEM300      0.0000
     30  CMC       15.7020   17.4660    5.1870 C.3   300  HEM300      0.0000
     31  CAC       15.5130   20.4850    3.8920 C.2   300  HEM300      0.0000
     32  CBC       16.7610   20.3950    4.3700 C.2   300  HEM300      0.0000
     33  ND        10.1580   20.6000    3.5230 N.ar  300  HEM300      0.0000
     34  C1D       11.2700   21.3850    3.2800 C.ar  300  HEM300      0.0000
     35  C2D       10.8390   22.6420    2.7310 C.ar  300  HEM300      0.0000
     36  C3D        9.3240   22.5240    2.6470 C.ar  300  HEM300      0.0000
     37  C4D        8.9810   21.2230    3.1670 C.ar  300  HEM300      0.0000
     38  CMD       11.7170   23.8330    2.3310 C.3   300  HEM300      0.0000
     39  CAD        8.3920   23.6470    2.1660 C.3   300  HEM300      0.0000
     40  CBD        8.4550   23.7300    0.6740 C.3   300  HEM300      0.0000
     41  CGD        7.5740   24.8520    0.1600 C.2   300  HEM300      0.0000
     42  O1D        7.8080   25.2190   -1.0330 O.co2 300  HEM300      0.0000
     43  O2D        6.6650   25.3360    0.9160 O.co2 300  HEM300      0.0000
@<TRIPOS>BOND
     1    42    41   ar
     2    41    40    1
     3    41    43   ar
     4    40    39    1
     5    15    14   ar
     6    14    16   ar
     7    14    13    1
     8    39    36    1
     9    13    12    1
    10    38    35    1
    11    36    35   ar
    12    36    37   ar
    13    35    34   ar
    14    37     2    2
    15    37    33   ar
    16     2     7    1
    17    34     5    2
    18    34    33   ar
    19     5    29    1
    20    33     1    1
    21    12     8    1
    22    31    28    1
    23    31    32    2
    24     7     8    1
    25     7     6    2
    26    29    28    1
    27    29    25    2
    28     8     9    2
    29     1    25    1
    30     1     6    1
    31     1    17    1
    32    28    27    2
    33    25    26    1
    34     6    10    1
    35    27    26    1
    36    27    30    1
    37     9    10    1
    38     9    11    1
    39    26     4    2
    40    10     3    2
    41     4    21    1
    42    17    21   ar
    43    17    18   ar
    44    21    20   ar
    45     3    18    1
    46    18    19   ar
    47    20    19   ar
    48    20    23    1
    49    19    22    1
    50    24    23    2
