@<TRIPOS>MOLECULE
1ntk_AY1_C_1.pdb
 38 39 0 0 0
SMALL
GASTEIGER

@<TRIPOS>ATOM
      1  C1        56.7790   67.7760  141.0210 C.2   383  AY1383      0.3247
      2  C2        59.1030   68.6200  141.0450 C.2   383  AY1383      0.1088
      3  C3        59.6250   67.9830  139.9210 C.2   383  AY1383     -0.0016
      4  C5        61.8200   69.0310  140.2770 C.2   383  AY1383     -0.0136
      5  O5        66.3670   73.8050  143.0130 O.2   383  AY1383     -0.2500
      6  C6        61.3330   69.6870  141.3860 C.2   383  AY1383      0.0913
      7  C7        59.9560   69.4780  141.7840 C.2   383  AY1383      0.2146
      8  C8        62.0890   70.6050  142.2640 C.2   383  AY1383      0.2682
      9  C9        64.1650   71.9330  142.7510 C.3   383  AY1383      0.2333
     10  O9        68.6450   73.2180  146.6380 O.2   383  AY1383     -0.2501
     11  C11       62.0560   73.5710  142.6060 C.3   383  AY1383      0.0498
     12  C12       65.4880   74.1040  143.7880 C.2   383  AY1383      0.3201
     13  C13       65.5800   74.3110  145.2600 C.3   383  AY1383      0.1426
     14  C14       66.2800   73.0770  145.9100 C.3   383  AY1383      0.2189
     15  C4        60.9660   68.1820  139.5580 C.3   383  AY1383      0.0537
     16  N1        57.8480   68.5510  141.5600 N.am  383  AY1383     -0.1686
     17  N2        63.3630   70.9060  142.0660 N.am  383  AY1383     -0.1881
     18  O1        56.9790   67.1230  140.0400 O.2   383  AY1383     -0.2629
     19  O2        59.4680   70.0210  142.7640 O.2   383  AY1383     -0.2850
     20  O3        61.4510   71.0620  143.1960 O.2   383  AY1383     -0.2683
     21  C10       63.5600   73.3640  142.4150 C.3   383  AY1383      0.1996
     22  O4        64.1790   74.3210  143.3750 O.3   383  AY1383     -0.4498
     23  O6        65.1080   71.4050  144.8300 O.3   383  AY1383     -0.4472
     24  C15       65.1890   71.9250  146.2560 C.3   383  AY1383      0.2092
     25  C16       65.7860   70.8390  147.1440 C.3   383  AY1383      0.0513
     26  C17       63.9270   71.6550  144.2260 C.2   383  AY1383      0.3407
     27  C18       66.5370   75.5310  145.5050 C.3   383  AY1383      0.0149
     28  C19       66.0660   76.7850  144.7520 C.3   383  AY1383      0.0007
     29  C20       64.6430   77.1810  145.2010 C.3   383  AY1383      0.0000
     30  O7        62.8850   71.7440  144.8350 O.2   383  AY1383     -0.2481
     31  O8        66.4950   73.5990  147.2880 O.3   383  AY1383     -0.4479
     32  C21       64.5680   78.5550  145.8830 C.3   383  AY1383      0.0000
     33  C22       64.2750   78.4350  147.3830 C.3   383  AY1383      0.0000
     34  C23       65.4420   78.9440  148.2390 C.3   383  AY1383      0.0000
     35  C24       67.9040   73.5640  147.5470 C.2   383  AY1383      0.3164
     36  C25       68.4230   73.9620  148.8870 C.3   383  AY1383      0.0991
     37  C26       69.8960   73.5670  148.9350 C.3   383  AY1383      0.0116
     38  C27       68.1940   75.4740  149.0480 C.3   383  AY1383      0.0116
@<TRIPOS>BOND
     1    15     3    1
     2    15     4    1
     3     3     2    2
     4    18     1    2
     5     4     6    2
     6     1    16   am
     7     2    16    1
     8     2     7    1
     9     6     7    1
    10     6     8    1
    11     7    19    2
    12    17     8   am
    13    17     9    1
    14     8    20    2
    15    21    11    1
    16    21     9    1
    17    21    22    1
    18     9    26    1
    19     5    12    2
    20    22    12    1
    21    12    13    1
    22    26    23    1
    23    26    30    2
    24    28    29    1
    25    28    27    1
    26    23    24    1
    27    29    32    1
    28    13    27    1
    29    13    14    1
    30    32    33    1
    31    14    24    1
    32    14    31    1
    33    24    25    1
    34    10    35    2
    35    31    35    1
    36    33    34    1
    37    35    36    1
    38    36    37    1
    39    36    38    1
