@<TRIPOS>MOLECULE
1ntk_HEM_C_1.pdb
 43 50 0 0 0
SMALL
GASTEIGER

@<TRIPOS>ATOM
      1  CHA       67.5910   69.7660  168.3560 C.2   381  HEM381      0.0000
      2  CHB       70.3290   73.5650  166.2500 C.2   381  HEM381      0.0000
      3  CHC       69.3940   71.6330  161.6090 C.2   381  HEM381      0.0000
      4  CHD       67.1020   67.6340  163.8000 C.2   381  HEM381      0.0000
      5  C1A       68.4220   70.9740  168.1170 C.2   381  HEM381      0.0000
      6  C2A       68.8410   71.8580  169.2420 C.2   381  HEM381      0.0000
      7  C3A       69.6160   72.9460  168.6270 C.2   381  HEM381      0.0000
      8  C4A       69.6100   72.6560  167.1660 C.2   381  HEM381      0.0000
      9  CMA       70.2790   74.1110  169.3040 C.3   381  HEM381      0.0000
     10  CAA       68.5390   71.6770  170.7040 C.3   381  HEM381      0.0000
     11  CBA       67.2290   72.3800  171.0220 C.3   381  HEM381      0.0000
     12  CGA       66.1230   71.3610  170.9350 C.2   381  HEM381      0.0000
     13  O1A       66.3590   70.1740  171.1660 O.co2 381  HEM381      0.0000
     14  O2A       64.9910   71.7150  170.6240 O.co2 381  HEM381      0.0000
     15  C1B       70.1260   73.2820  164.8310 C.ar  381  HEM381      0.0000
     16  C2B       70.4750   74.1890  163.9070 C.ar  381  HEM381      0.0000
     17  C3B       70.2260   73.6820  162.7160 C.ar  381  HEM381      0.0000
     18  C4B       69.7370   72.4430  162.8220 C.ar  381  HEM381      0.0000
     19  CMB       71.0320   75.5910  164.1630 C.3   381  HEM381      0.0000
     20  CAB       70.4720   74.4080  161.4370 C.3   381  HEM381      0.0000
     21  CBB       71.9430   74.2210  161.0960 C.3   381  HEM381      0.0000
     22  C1C       68.7950   70.3230  161.9760 C.2   381  HEM381      0.0000
     23  C2C       68.6980   69.3250  161.1020 C.2   381  HEM381      0.0000
     24  C3C       68.1020   68.3060  161.6910 C.2   381  HEM381      0.0000
     25  C4C       67.7990   68.6090  162.9330 C.2   381  HEM381      0.0000
     26  CMC       69.1950   69.3390  159.6750 C.3   381  HEM381      0.0000
     27  CAC       67.7900   66.9650  161.0770 C.3   381  HEM381      0.0000
     28  CBC       66.3230   66.9460  160.6330 C.3   381  HEM381      0.0000
     29  C1D       67.2190   67.9710  165.2370 C.ar  381  HEM381      0.0000
     30  C2D       66.9760   67.0630  166.1800 C.ar  381  HEM381      0.0000
     31  C3D       67.0980   67.6300  167.3520 C.ar  381  HEM381      0.0000
     32  C4D       67.4230   68.8900  167.1820 C.ar  381  HEM381      0.0000
     33  CMD       66.6430   65.6070  165.9140 C.3   381  HEM381      0.0000
     34  CAD       66.9160   66.9880  168.7010 C.3   381  HEM381      0.0000
     35  CBD       65.5030   66.4050  168.8030 C.3   381  HEM381      0.0000
     36  CGD       64.6320   67.1140  169.8230 C.2   381  HEM381      0.0000
     37  O1D       64.0620   66.4470  170.6690 O.co2 381  HEM381      0.0000
     38  O2D       64.4710   68.3340  169.8040 O.co2 381  HEM381      0.0000
     39  NA        68.9180   71.5000  166.9630 N.2   381  HEM381      0.0000
     40  NB        69.7140   72.0540  164.2190 N.ar  381  HEM381      0.0000
     41  NC        68.1460   69.9550  163.2180 N.2   381  HEM381      0.0000
     42  ND        67.4330   69.2470  165.8090 N.ar  381  HEM381      0.0000
     43 FE         68.5820   70.6360  165.0400 Fe    381  HEM381      0.0000
@<TRIPOS>BOND
     1    26    23    1
     2    28    27    1
     3    27    24    1
     4    21    20    1
     5    23    24    2
     6    23    22    1
     7    20    17    1
     8     3    22    2
     9     3    18    1
    10    24    25    1
    11    22    41    1
    12    17    18   ar
    13    17    16   ar
    14    18    40   ar
    15    25    41    2
    16    25     4    1
    17    41    43    1
    18     4    29    2
    19    16    19    1
    20    16    15   ar
    21    40    15   ar
    22    40    43    1
    23    15     2    1
    24    43    42    1
    25    43    39    1
    26    29    42   ar
    27    29    30   ar
    28    42    32   ar
    29    33    30    1
    30    30    31   ar
    31     2     8    2
    32    39     8    1
    33    39     5    2
    34     8     7    1
    35    32    31   ar
    36    32     1    2
    37    31    34    1
    38     5     1    1
    39     5     6    1
    40     7     6    2
    41     7     9    1
    42    34    35    1
    43    35    36    1
    44     6    10    1
    45    38    36   ar
    46    36    37   ar
    47    14    12   ar
    48    10    11    1
    49    12    11    1
    50    12    13   ar
