@<TRIPOS>MOLECULE
1ntm_HEM_C_1.pdb
 43 50 0 0 0
SMALL
GASTEIGER

@<TRIPOS>ATOM
      1  CHA       67.7980   70.0770  168.3040 C.2   381  HEM381      0.0000
      2  CHB       70.6340   73.7990  166.2380 C.2   381  HEM381      0.0000
      3  CHC       69.6600   71.9210  161.5810 C.2   381  HEM381      0.0000
      4  CHD       67.2230   67.9950  163.7280 C.2   381  HEM381      0.0000
      5  C1A       68.6810   71.2510  168.0880 C.2   381  HEM381      0.0000
      6  C2A       69.1420   72.1090  169.2270 C.2   381  HEM381      0.0000
      7  C3A       69.9340   73.1670  168.5990 C.2   381  HEM381      0.0000
      8  C4A       69.8880   72.9010  167.1450 C.2   381  HEM381      0.0000
      9  CMA       70.6180   74.3030  169.2720 C.3   381  HEM381      0.0000
     10  CAA       68.8920   71.9460  170.7100 C.3   381  HEM381      0.0000
     11  CBA       67.6830   72.7650  171.1210 C.3   381  HEM381      0.0000
     12  CGA       66.4330   71.9280  170.9990 C.2   381  HEM381      0.0000
     13  O1A       66.4760   70.7020  171.1110 O.co2 381  HEM381      0.0000
     14  O2A       65.3640   72.4760  170.7880 O.co2 381  HEM381      0.0000
     15  C1B       70.4180   73.5210  164.8020 C.ar  381  HEM381      0.0000
     16  C2B       70.7780   74.4360  163.8880 C.ar  381  HEM381      0.0000
     17  C3B       70.5240   73.9320  162.7000 C.ar  381  HEM381      0.0000
     18  C4B       70.0060   72.7070  162.8110 C.ar  381  HEM381      0.0000
     19  CMB       71.3610   75.8270  164.1390 C.3   381  HEM381      0.0000
     20  CAB       70.7590   74.6620  161.4140 C.3   381  HEM381      0.0000
     21  CBB       72.2350   74.5530  161.0730 C.3   381  HEM381      0.0000
     22  C1C       69.0230   70.6320  161.9280 C.2   381  HEM381      0.0000
     23  C2C       68.9030   69.6650  161.0330 C.2   381  HEM381      0.0000
     24  C3C       68.2750   68.6620  161.5890 C.2   381  HEM381      0.0000
     25  C4C       67.9740   68.9520  162.8530 C.2   381  HEM381      0.0000
     26  CMC       69.4200   69.6660  159.6210 C.3   381  HEM381      0.0000
     27  CAC       67.9780   67.3510  160.9160 C.3   381  HEM381      0.0000
     28  CBC       66.5320   67.3510  160.4480 C.3   381  HEM381      0.0000
     29  C1D       67.3770   68.3000  165.1730 C.ar  381  HEM381      0.0000
     30  C2D       67.1760   67.3700  166.1140 C.ar  381  HEM381      0.0000
     31  C3D       67.3140   67.9520  167.2910 C.ar  381  HEM381      0.0000
     32  C4D       67.6190   69.2180  167.1080 C.ar  381  HEM381      0.0000
     33  CMD       66.8740   65.8990  165.8780 C.3   381  HEM381      0.0000
     34  CAD       67.1530   67.3550  168.6770 C.3   381  HEM381      0.0000
     35  CBD       65.7010   66.9710  169.0320 C.3   381  HEM381      0.0000
     36  CGD       64.8820   68.0530  169.7410 C.2   381  HEM381      0.0000
     37  O1D       64.6590   68.0010  170.9580 O.co2 381  HEM381      0.0000
     38  O2D       64.3950   68.9700  169.0850 O.co2 381  HEM381      0.0000
     39  NA        69.1690   71.7690  166.9330 N.2   381  HEM381      0.0000
     40  NB        69.9930   72.3010  164.1870 N.ar  381  HEM381      0.0000
     41  NC        68.3430   70.2940  163.1500 N.2   381  HEM381      0.0000
     42  ND        67.5630   69.5920  165.7420 N.ar  381  HEM381      0.0000
     43 FE         68.7750   70.9480  164.9880 Fe    381  HEM381      0.0000
@<TRIPOS>BOND
     1    26    23    1
     2    28    27    1
     3    27    24    1
     4    23    24    2
     5    23    22    1
     6    21    20    1
     7    20    17    1
     8     3    22    2
     9     3    18    1
    10    24    25    1
    11    22    41    1
    12    17    18   ar
    13    17    16   ar
    14    18    40   ar
    15    25    41    2
    16    25     4    1
    17    41    43    1
    18     4    29    2
    19    16    19    1
    20    16    15   ar
    21    40    15   ar
    22    40    43    1
    23    15     2    1
    24    43    42    1
    25    43    39    1
    26    29    42   ar
    27    29    30   ar
    28    42    32   ar
    29    33    30    1
    30    30    31   ar
    31     2     8    2
    32    39     8    1
    33    39     5    2
    34    32    31   ar
    35    32     1    2
    36     8     7    1
    37    31    34    1
    38     5     1    1
    39     5     6    1
    40     7     6    2
    41     7     9    1
    42    34    35    1
    43    35    36    1
    44    38    36   ar
    45     6    10    1
    46    36    37   ar
    47    10    11    1
    48    14    12   ar
    49    12    13   ar
    50    12    11    1
