@<TRIPOS>MOLECULE
1ntp_ISP_A_1.pdb
 14 13 0 0 0
SMALL
GASTEIGER

@<TRIPOS>ATOM
      1  C1        28.5220   15.3090   19.3030 C.3     1  ISP1       -0.0385
      2  C2        28.5720   13.8670   19.2630 C.3     1  ISP1        0.0619
      3  C3        29.7950   13.3220   18.6820 C.3     1  ISP1       -0.0385
      4  P         27.9520   13.5210   21.9410 P.3     1  ISP1        0.3937
      5  O1P       28.4560   13.1290   20.5310 O.3     1  ISP1       -0.3059
      6  O3P       27.3820   12.2030   22.4740 O.3     1  ISP1       -0.1425
      7  O4P       29.0710   13.9900   22.6560 O.3     1  ISP1       -0.1425
      8  H11       28.9880   15.7600   18.4260 H       1  ISP1        0.0255
      9  H12       27.4750   15.6310   19.3170 H       1  ISP1        0.0255
     10  H13       29.0540   15.7600   20.1470 H       1  ISP1        0.0255
     11  H2        27.7650   13.5620   18.5410 H       1  ISP1        0.0595
     12  H31       30.6940   13.9080   18.8650 H       1  ISP1        0.0255
     13  H32       29.9480   12.2960   19.0870 H       1  ISP1        0.0255
     14  H33       29.6570   13.2750   17.6100 H       1  ISP1        0.0255
@<TRIPOS>BOND
     1    14     3    1
     2     8     1    1
     3    11     2    1
     4     3    12    1
     5     3    13    1
     6     3     2    1
     7     2     1    1
     8     2     5    1
     9     1     9    1
    10     1    10    1
    11     5     4    1
    12     4     6    1
    13     4     7    1
