@<TRIPOS>MOLECULE
1ntz_HEM_C_1.pdb
 43 50 0 0 0
SMALL
GASTEIGER

@<TRIPOS>ATOM
      1  CHA       67.8890   69.7200  168.9090 C.2   381  HEM381      0.0000
      2  CHB       70.3490   73.6340  166.6200 C.2   381  HEM381      0.0000
      3  CHC       69.3270   71.5600  162.0610 C.2   381  HEM381      0.0000
      4  CHD       67.2140   67.5400  164.3700 C.2   381  HEM381      0.0000
      5  C1A       68.6530   70.9780  168.6020 C.2   381  HEM381      0.0000
      6  C2A       69.0930   71.9160  169.6900 C.2   381  HEM381      0.0000
      7  C3A       69.7550   73.0150  169.0250 C.2   381  HEM381      0.0000
      8  C4A       69.7020   72.7090  167.5770 C.2   381  HEM381      0.0000
      9  CMA       70.3750   74.2120  169.6780 C.3   381  HEM381      0.0000
     10  CAA       68.9020   71.7900  171.1840 C.3   381  HEM381      0.0000
     11  CBA       67.6050   72.4680  171.5530 C.3   381  HEM381      0.0000
     12  CGA       66.4750   71.4550  171.5660 C.2   381  HEM381      0.0000
     13  O1A       66.6860   70.2780  171.9130 O.co2 381  HEM381      0.0000
     14  O2A       65.3460   71.8150  171.2290 O.co2 381  HEM381      0.0000
     15  C1B       70.1770   73.3030  165.2060 C.ar  381  HEM381      0.0000
     16  C2B       70.6150   74.1400  164.2500 C.ar  381  HEM381      0.0000
     17  C3B       70.3510   73.5960  163.0680 C.ar  381  HEM381      0.0000
     18  C4B       69.7380   72.4070  163.2270 C.ar  381  HEM381      0.0000
     19  CMB       71.3020   75.5060  164.4800 C.3   381  HEM381      0.0000
     20  CAB       70.6630   74.2360  161.7400 C.3   381  HEM381      0.0000
     21  CBB       72.1640   74.2850  161.5190 C.3   381  HEM381      0.0000
     22  C1C       68.7990   70.2430  162.4610 C.2   381  HEM381      0.0000
     23  C2C       68.6950   69.2340  161.6000 C.2   381  HEM381      0.0000
     24  C3C       68.1470   68.2190  162.2020 C.2   381  HEM381      0.0000
     25  C4C       67.8750   68.5190  163.4600 C.2   381  HEM381      0.0000
     26  CMC       69.1420   69.2260  160.1580 C.3   381  HEM381      0.0000
     27  CAC       67.9010   66.8830  161.5750 C.3   381  HEM381      0.0000
     28  CBC       66.4500   66.7860  161.1260 C.3   381  HEM381      0.0000
     29  C1D       67.3200   67.8730  165.8000 C.ar  381  HEM381      0.0000
     30  C2D       66.8980   67.0250  166.7770 C.ar  381  HEM381      0.0000
     31  C3D       67.0550   67.6070  167.9680 C.ar  381  HEM381      0.0000
     32  C4D       67.6060   68.8180  167.7720 C.ar  381  HEM381      0.0000
     33  CMD       66.3440   65.6260  166.5430 C.3   381  HEM381      0.0000
     34  CAD       66.7260   67.0080  169.3440 C.3   381  HEM381      0.0000
     35  CBD       65.2160   66.8120  169.6380 C.3   381  HEM381      0.0000
     36  CGD       64.6020   68.0130  170.3540 C.2   381  HEM381      0.0000
     37  O1D       64.5640   68.0770  171.5900 O.co2 381  HEM381      0.0000
     38  O2D       64.1290   68.9320  169.6870 O.co2 381  HEM381      0.0000
     39  NA        69.0690   71.5150  167.4250 N.2   381  HEM381      0.0000
     40  NB        69.6690   72.1100  164.6190 N.ar  381  HEM381      0.0000
     41  NC        68.1810   69.8930  163.7030 N.2   381  HEM381      0.0000
     42  ND        67.6970   69.1020  166.3720 N.ar  381  HEM381      0.0000
     43 FE         68.6800   70.6140  165.5040 Fe    381  HEM381      0.0000
@<TRIPOS>BOND
     1    26    23    1
     2    28    27    1
     3    21    20    1
     4    27    24    1
     5    23    24    2
     6    23    22    1
     7    20    17    1
     8     3    22    2
     9     3    18    1
    10    24    25    1
    11    22    41    1
    12    17    18   ar
    13    17    16   ar
    14    18    40   ar
    15    25    41    2
    16    25     4    1
    17    41    43    1
    18    16    19    1
    19    16    15   ar
    20     4    29    2
    21    40    15   ar
    22    40    43    1
    23    15     2    1
    24    43    42    1
    25    43    39    1
    26    29    42   ar
    27    29    30   ar
    28    42    32   ar
    29    33    30    1
    30     2     8    2
    31    30    31   ar
    32    39     8    1
    33    39     5    2
    34     8     7    1
    35    32    31   ar
    36    32     1    2
    37    31    34    1
    38     5     1    1
    39     5     6    1
    40     7     9    1
    41     7     6    2
    42    34    35    1
    43    35    36    1
    44    38    36   ar
    45     6    10    1
    46    36    37   ar
    47    10    11    1
    48    14    12   ar
    49    11    12    1
    50    12    13   ar
