@<TRIPOS>MOLECULE
1ntz_UQ2_C_1.pdb
 23 23 0 0 0
SMALL
GASTEIGER

@<TRIPOS>ATOM
      1  C1        70.2250   55.2730  167.0660 C.2   383  UQ2383      0.2285
      2  C2        69.8270   55.3880  168.5240 C.2   383  UQ2383      0.2140
      3  C3        69.8570   54.1680  169.4030 C.2   383  UQ2383      0.2140
      4  C4        70.2940   52.8510  168.8280 C.2   383  UQ2383      0.2282
      5  C5        70.7140   52.7490  167.3750 C.2   383  UQ2383      0.0198
      6  C6        70.6960   53.9460  166.4810 C.2   383  UQ2383      0.0235
      7  CM2       70.3740   57.3510  169.7250 C.3   383  UQ2383      0.2528
      8  CM3       70.5260   54.1820  171.5950 C.3   383  UQ2383      0.2528
      9  CM5       71.2030   51.4500  166.8230 C.3   383  UQ2383      0.0343
     10  C7        71.1690   53.7770  165.0180 C.3   383  UQ2383      0.0548
     11  C8        72.0090   54.9820  164.5610 C.2   383  UQ2383     -0.0298
     12  C9        72.8240   55.0220  163.4300 C.2   383  UQ2383     -0.0475
     13  C10       73.5550   56.3180  163.1220 C.3   383  UQ2383      0.0260
     14  C11       73.0050   53.7890  162.5540 C.3   383  UQ2383      0.0264
     15  C12       73.6970   54.1240  161.2220 C.3   383  UQ2383      0.0297
     16  C13       75.1690   53.6560  161.1630 C.2   383  UQ2383     -0.0342
     17  C14       75.8910   53.7820  159.9590 C.2   383  UQ2383     -0.0478
     18  C15       75.2180   54.3530  158.7570 C.3   383  UQ2383      0.0260
     19  C16       77.3330   53.3480  159.8370 C.3   383  UQ2383      0.0260
     20  O1        70.1780   56.3120  166.3680 O.2   383  UQ2383     -0.2835
     21  O2        69.3600   56.6100  169.0300 O.2   383  UQ2383     -0.4652
     22  O3        69.4320   54.2500  170.7060 O.2   383  UQ2383     -0.4652
     23  O4        70.3490   51.8460  169.5660 O.2   383  UQ2383     -0.2836
@<TRIPOS>BOND
     1    18    17    1
     2    19    17    1
     3    17    16    2
     4    16    15    1
     5    15    14    1
     6    14    12    1
     7    13    12    1
     8    12    11    2
     9    11    10    1
    10    10     6    1
    11    20     1    2
    12     6     1    1
    13     6     5    2
    14     9     5    1
    15     1     2    1
    16     5     4    1
    17     2    21    1
    18     2     3    2
    19     4     3    1
    20     4    23    2
    21    21     7    1
    22     3    22    1
    23    22     8    1
