@<TRIPOS>MOLECULE
1nu1_HEM_C_1.pdb
 43 50 0 0 0
SMALL
GASTEIGER

@<TRIPOS>ATOM
      1  CHA       68.0630   69.6400  167.9710 C.2   381  HEM381      0.0000
      2  CHB       70.3260   73.7240  165.8180 C.2   381  HEM381      0.0000
      3  CHC       69.4080   71.7070  161.1790 C.2   381  HEM381      0.0000
      4  CHD       67.1070   67.7310  163.4070 C.2   381  HEM381      0.0000
      5  C1A       68.7670   70.9160  167.6890 C.2   381  HEM381      0.0000
      6  C2A       69.1980   71.7640  168.8330 C.2   381  HEM381      0.0000
      7  C3A       69.8310   72.9420  168.2230 C.2   381  HEM381      0.0000
      8  C4A       69.7470   72.7090  166.7440 C.2   381  HEM381      0.0000
      9  CMA       70.4190   74.1340  168.9160 C.3   381  HEM381      0.0000
     10  CAA       68.9870   71.4670  170.2930 C.3   381  HEM381      0.0000
     11  CBA       67.7800   72.2880  170.7210 C.3   381  HEM381      0.0000
     12  CGA       66.4690   71.6160  170.3670 C.2   381  HEM381      0.0000
     13  O1A       66.3710   70.3940  170.3440 O.co2 381  HEM381      0.0000
     14  O2A       65.4840   72.3040  170.1350 O.co2 381  HEM381      0.0000
     15  C1B       70.1500   73.4320  164.3810 C.ar  381  HEM381      0.0000
     16  C2B       70.5680   74.3110  163.4330 C.ar  381  HEM381      0.0000
     17  C3B       70.3060   73.7680  162.2480 C.ar  381  HEM381      0.0000
     18  C4B       69.7680   72.5420  162.3850 C.ar  381  HEM381      0.0000
     19  CMB       71.1980   75.7000  163.6240 C.3   381  HEM381      0.0000
     20  CAB       70.6100   74.4310  160.9420 C.3   381  HEM381      0.0000
     21  CBB       72.0740   74.1370  160.6940 C.3   381  HEM381      0.0000
     22  C1C       68.8000   70.3930  161.5480 C.2   381  HEM381      0.0000
     23  C2C       68.6380   69.4070  160.6540 C.2   381  HEM381      0.0000
     24  C3C       68.0330   68.4030  161.2470 C.2   381  HEM381      0.0000
     25  C4C       67.8070   68.7020  162.5230 C.2   381  HEM381      0.0000
     26  CMC       69.0680   69.3800  159.2110 C.3   381  HEM381      0.0000
     27  CAC       67.7150   67.0660  160.6110 C.3   381  HEM381      0.0000
     28  CBC       66.2490   66.9280  160.2340 C.3   381  HEM381      0.0000
     29  C1D       67.3370   67.9850  164.8440 C.ar  381  HEM381      0.0000
     30  C2D       67.0000   67.0870  165.7850 C.ar  381  HEM381      0.0000
     31  C3D       67.2270   67.6030  166.9650 C.ar  381  HEM381      0.0000
     32  C4D       67.7330   68.8200  166.7920 C.ar  381  HEM381      0.0000
     33  CMD       66.4810   65.6910  165.5520 C.3   381  HEM381      0.0000
     34  CAD       66.9890   66.9490  168.3250 C.3   381  HEM381      0.0000
     35  CBD       65.5160   66.5890  168.6410 C.3   381  HEM381      0.0000
     36  CGD       64.8190   67.6250  169.5190 C.2   381  HEM381      0.0000
     37  O1D       64.6770   67.4280  170.7190 O.co2 381  HEM381      0.0000
     38  O2D       64.3690   68.6620  169.0290 O.co2 381  HEM381      0.0000
     39  NA        69.1310   71.5150  166.5320 N.2   381  HEM381      0.0000
     40  NB        69.7020   72.2060  163.7810 N.ar  381  HEM381      0.0000
     41  NC        68.1820   70.0470  162.8030 N.2   381  HEM381      0.0000
     42  ND        67.7180   69.2030  165.4350 N.ar  381  HEM381      0.0000
     43 FE         68.7020   70.7060  164.6150 Fe    381  HEM381      0.0000
@<TRIPOS>BOND
     1    26    23    1
     2    28    27    1
     3    27    24    1
     4    23    24    2
     5    23    22    1
     6    21    20    1
     7    20    17    1
     8     3    22    2
     9     3    18    1
    10    24    25    1
    11    22    41    1
    12    17    18   ar
    13    17    16   ar
    14    18    40   ar
    15    25    41    2
    16    25     4    1
    17    41    43    1
    18     4    29    2
    19    16    19    1
    20    16    15   ar
    21    40    15   ar
    22    40    43    1
    23    15     2    1
    24    43    42    1
    25    43    39    1
    26    29    42   ar
    27    29    30   ar
    28    42    32   ar
    29    33    30    1
    30    30    31   ar
    31     2     8    2
    32    39     8    1
    33    39     5    2
    34     8     7    1
    35    32    31   ar
    36    32     1    2
    37    31    34    1
    38     5     1    1
    39     5     6    1
    40     7     6    2
    41     7     9    1
    42    34    35    1
    43    35    36    1
    44     6    10    1
    45    38    36   ar
    46    36    37   ar
    47    14    12   ar
    48    10    11    1
    49    13    12   ar
    50    12    11    1
