@<TRIPOS>MOLECULE
1nu1_QNO_C_1.pdb
 21 22 0 0 0
SMALL
GASTEIGER

@<TRIPOS>ATOM
      1  C29       59.3110   76.4610  147.5170 C.3   383  QNO383      0.0000
      2  C28       60.7620   75.9820  147.4500 C.3   383  QNO383      0.0000
      3  C27       60.9560   75.0150  146.2820 C.3   383  QNO383      0.0000
      4  C26       61.7620   73.7850  146.7150 C.3   383  QNO383      0.0000
      5  C25       62.6170   73.1830  145.5940 C.3   383  QNO383      0.0000
      6  C24       62.4270   73.9180  144.2630 C.3   383  QNO383      0.0000
      7  C23       61.9460   72.9500  143.1910 C.3   383  QNO383      0.0006
      8  C22       63.0900   72.4960  142.2890 C.3   383  QNO383      0.0111
      9  C21       63.3510   70.9970  142.3460 C.3   383  QNO383      0.0974
     10  C2        62.6930   70.2290  141.2150 C.2   383  QNO383      0.2078
     11  C3        63.4970   69.5480  140.3230 C.2   383  QNO383      0.1070
     12  C4        62.9570   68.8460  139.2760 C.2   383  QNO383      0.2070
     13  O41       63.6820   68.2710  138.4360 O.2   383  QNO383     -0.2862
     14  C5        61.5070   68.7850  139.1730 C.ar  383  QNO383      0.1030
     15  C51       60.8770   68.0780  138.1700 C.ar  383  QNO383      0.0092
     16  C52       59.5000   68.0810  138.1220 C.ar  383  QNO383      0.0005
     17  C62       58.7590   68.7380  139.0880 C.ar  383  QNO383      0.0061
     18  C61       59.3650   69.4230  140.1260 C.ar  383  QNO383      0.0699
     19  C6        60.7380   69.4790  140.1900 C.ar  383  QNO383      0.2307
     20  N1        61.3560   70.1790  141.1370 N.4   383  QNO383     -0.2146
     21  OH        60.6740   70.7700  141.9890 O.co2 383  QNO383     -0.5495
@<TRIPOS>UNITY_ATOM_ATTR
20 1
charge 1
21 1
charge -1
@<TRIPOS>BOND
     1    16    15   ar
     2    16    17   ar
     3    15    14   ar
     4    13    12    2
     5    17    18   ar
     6    14    12    1
     7    14    19   ar
     8    12    11    1
     9    18    19   ar
    10    19    20    1
    11    11    10    2
    12    20    10    1
    13    20    21    1
    14    10     9    1
    15     8     9    1
    16     8     7    1
    17     7     6    1
    18     6     5    1
    19     5     4    1
    20     3     4    1
    21     3     2    1
    22     2     1    1
