@<TRIPOS>MOLECULE
1nu2_I3P_A_1.pdb
 24 24 0 0 0
SMALL
GASTEIGER

@<TRIPOS>ATOM
      1  C1         5.4770   24.8690   14.3640 C.3   200  I3P200      0.1918
      2  C2         4.2340   24.2090   15.0200 C.3   200  I3P200      0.2147
      3  C3         3.5380   23.2660   14.0270 C.3   200  I3P200      0.2146
      4  C4         4.5410   22.1640   13.5900 C.3   200  I3P200      0.1892
      5  C5         5.7730   22.8410   12.9200 C.3   200  I3P200      0.1891
      6  C6         6.4820   23.7940   13.9080 C.3   200  I3P200      0.2120
      7  O1         6.2390   25.7590   15.2810 O.3   200  I3P200     -0.2673
      8  O2         4.6180   23.4680   16.1780 O.3   200  I3P200     -0.2176
      9  O3         2.4140   22.6770   14.6500 O.3   200  I3P200     -0.2176
     10  O4         3.8370   21.2390   12.6520 O.3   200  I3P200     -0.2674
     11  O5         6.7350   21.8140   12.5110 O.3   200  I3P200     -0.2674
     12  O6         7.6030   24.4270   13.2980 O.3   200  I3P200     -0.2177
     13  P1         6.1050   27.3460   15.3050 P.3   200  I3P200      0.5327
     14  O11        4.6480   27.6430   15.2290 O.3   200  I3P200     -0.1145
     15  O12        6.8990   27.7890   14.1250 O.2   200  I3P200     -0.2224
     16  O13        6.7820   27.6200   16.5700 O.3   200  I3P200     -0.1145
     17  P4         3.2160   19.7920   13.0180 P.3   200  I3P200      0.5327
     18  O41        4.4490   19.1360   13.5440 O.3   200  I3P200     -0.1145
     19  O42        2.2180   20.0920   14.0490 O.3   200  I3P200     -0.1145
     20  O43        2.6070   19.1880   11.8040 O.2   200  I3P200     -0.2224
     21  P5         7.6450   21.7950   11.1810 P.3   200  I3P200      0.5327
     22  O51        8.3690   20.5090   11.3650 O.3   200  I3P200     -0.1145
     23  O52        6.6380   21.8550   10.0760 O.2   200  I3P200     -0.2224
     24  O53        8.4710   23.0030   11.3560 O.3   200  I3P200     -0.1145
@<TRIPOS>BOND
     1    23    21    2
     2    21    24    1
     3    21    22    1
     4    21    11    1
     5    20    17    2
     6    11     5    1
     7    10    17    1
     8    10     4    1
     9     5     4    1
    10     5     6    1
    11    17    18    1
    12    17    19    1
    13    12     6    1
    14     4     3    1
    15     6     1    1
    16     3     9    1
    17     3     2    1
    18    15    13    2
    19     1     2    1
    20     1     7    1
    21     2     8    1
    22    14    13    1
    23     7    13    1
    24    13    16    1
