@<TRIPOS>MOLECULE
1nu3_VPR_A_1.pdb
 10 9 0 0 0
SMALL
GASTEIGER

@<TRIPOS>ATOM
      1  C5        15.7670   21.0810    5.8720 C.3   4001  VPR4001     0.0000
      2  C4        16.5030   21.7220    6.9990 C.3   4001  VPR4001     0.0005
      3  C3        15.7100   21.9580    8.2650 C.3   4001  VPR4001     0.0092
      4  C2        16.0740   23.2290    9.0290 C.3   4001  VPR4001     0.0799
      5  C3A       17.5730   23.4160    9.1660 C.3   4001  VPR4001     0.0092
      6  C4A       17.8810   24.6710    9.9690 C.3   4001  VPR4001     0.0005
      7  C5A       19.2900   25.2080    9.8090 C.3   4001  VPR4001     0.0000
      8  C1        15.3560   23.3260   10.3780 C.2   4001  VPR4001     0.2603
      9  N         15.7980   22.7500   11.5260 N.am  4001  VPR4001    -0.0878
     10  O         14.3600   24.0210   10.4190 O.2   4001  VPR4001    -0.2717
@<TRIPOS>BOND
     1     1     2    1
     2     2     3    1
     3     3     4    1
     4     4     5    1
     5     4     8    1
     6     5     6    1
     7     7     6    1
     8     8    10    2
     9     8     9   am
