@<TRIPOS>MOLECULE
1nu7_0ZJ_B_1.pdb
 34 35 0 0 0
SMALL
GASTEIGER

@<TRIPOS>ATOM
      1  C1        19.6140   53.0500   43.3040 C.2   299  0ZJ299      0.2536
      2  O2        18.6640   52.4300   42.8160 O.2   299  0ZJ299     -0.2723
      3  C2        20.5300   52.3370   44.2760 C.3   299  0ZJ299      0.1551
      4  S2        22.1990   52.3060   43.5390 S.3   299  0ZJ299     -0.0718
      5  N         19.8880   54.3610   43.0360 N.am  299  0ZJ299     -0.1967
      6  CA        19.0360   55.1310   42.1400 C.3   299  0ZJ299      0.1756
      7  C         17.9980   55.8340   43.0370 C.2   299  0ZJ299      0.2461
      8  O         18.3580   56.5040   43.9970 O.2   299  0ZJ299     -0.2730
      9  CB        19.9120   56.1560   41.3520 C.3   299  0ZJ299      0.0574
     10  CG        19.0640   56.9800   40.3790 C.ar  299  0ZJ299     -0.0200
     11  CD1       18.4590   56.3490   39.2530 C.ar  299  0ZJ299     -0.0042
     12  CD2       18.8780   58.3800   40.5900 C.ar  299  0ZJ299     -0.0042
     13  CE1       17.6710   57.1070   38.3430 C.ar  299  0ZJ299     -0.0003
     14  CE2       18.0900   59.1420   39.6800 C.ar  299  0ZJ299     -0.0003
     15  CZ        17.4840   58.5020   38.5540 C.ar  299  0ZJ299     -0.0000
     16  N1        16.7000   55.6840   42.7460 N.am  299  0ZJ299     -0.2716
     17  CA1       15.7710   56.3770   43.6550 C.3   299  0ZJ299      0.1536
     18  C3        15.7200   55.7220   45.0280 C.2   299  0ZJ299      0.2598
     19  O1        16.0090   54.5360   45.1500 O.2   299  0ZJ299     -0.2715
     20  CB1       14.4280   56.3020   42.9270 C.3   299  0ZJ299      0.0310
     21  CG1       14.5680   55.1470   42.0030 C.3   299  0ZJ299      0.0237
     22  CD        16.0100   55.2160   41.5330 C.3   299  0ZJ299      0.0939
     23  N2        15.3420   56.4830   46.0570 N.am  299  0ZJ299     -0.1983
     24  CA2       15.2790   55.9340   47.4020 C.3   299  0ZJ299      0.1524
     25  C4        13.8630   55.8930   47.9580 C.2   299  0ZJ299      0.1707
     26  CB2       16.2120   56.7230   48.3420 C.3   299  0ZJ299      0.0329
     27  CG2       17.6960   56.4130   48.1400 C.3   299  0ZJ299      0.0491
     28  CD3       18.5880   57.3140   48.9640 C.3   299  0ZJ299      0.2205
     29  NE        19.9890   56.9120   48.8840 N.pl3 299  0ZJ299     -0.0865
     30  CZ1       20.9960   57.5110   49.5170 C.cat 299  0ZJ299      0.5346
     31  NH1       22.2250   57.0400   49.3590 N.pl3 299  0ZJ299      0.1354
     32  NH2       20.7960   58.5670   50.3020 N.pl3 299  0ZJ299      0.1354
     33  O3        13.6410   55.5570   49.1270 O.2   299  0ZJ299     -0.2943
     34  CM        12.7400   56.0600   46.9590 C.3   299  0ZJ299      0.0741
@<TRIPOS>BOND
     1    13    15   ar
     2    13    11   ar
     3    15    14   ar
     4    11    10   ar
     5    14    12   ar
     6    10    12   ar
     7    10     9    1
     8     9     6    1
     9    22    21    1
    10    22    16    1
    11    21    20    1
    12     6     5    1
    13     6     7    1
    14    16     7   am
    15    16    17    1
    16     2     1    2
    17    20    17    1
    18     5     1   am
    19     7     8    2
    20     1     3    1
    21     4     3    1
    22    17    18    1
    23    18    19    2
    24    18    23   am
    25    23    24    1
    26    34    25    1
    27    24    25    1
    28    24    26    1
    29    25    33    2
    30    27    26    1
    31    27    28    1
    32    29    28    1
    33    29    30    2
    34    31    30    1
    35    30    32    1
