@<TRIPOS>MOLECULE
1nu8_III_D_1.pdb
 24 24 0 0 0
SMALL
GASTEIGER

@<TRIPOS>ATOM
      1  N         64.3840   73.9810   69.2100 N.3     1  ILE1       -0.1231
      2  CA        65.7640   73.4560   69.1910 C.3     1  ILE1        0.1677
      3  C         65.7780   72.0970   68.4740 C.2     1  ILE1        0.2431
      4  O         65.0510   71.1730   68.8830 O.2     1  ILE1       -0.2733
      5  CB        66.3130   73.2970   70.6330 C.3     1  ILE1        0.0265
      6  CG1       66.1200   74.5790   71.4490 C.3     1  ILE1        0.0019
      7  CG2       67.7790   72.8950   70.6060 C.3     1  ILE1        0.0020
      8  CD1       66.4390   74.4340   72.9500 C.3     1  ILE1        0.0001
      9  N         66.6090   71.9670   67.4380 N.am    2  PRO2       -0.2760
     10  CA        66.6670   70.7270   66.6340 C.3     2  PRO2        0.1227
     11  C         67.4330   69.4950   67.1130 C.3     2  PRO2        0.2442
     12  O         68.7420   69.5610   67.4480 O.3     2  PRO2       -0.2018
     13  CB        67.4580   71.1530   65.4180 C.3     2  PRO2        0.0257
     14  CG        68.3930   72.2210   65.9390 C.3     2  PRO2        0.0233
     15  CD        67.6510   72.9290   67.0220 C.3     2  PRO2        0.0936
     16  N         66.4960   69.0400   68.1510 N.3     3  ILE3       -0.1777
     17  CA        66.9020   67.9490   69.0320 C.3     3  ILE3        0.1779
     18  C         65.7190   67.0690   69.4870 C.2     3  ILE3        0.3803
     19  O         64.7620   67.5710   70.0860 O.co2   3  ILE3       -0.2441
     20  CB        67.7540   68.4200   70.3030 C.3     3  ILE3        0.0271
     21  CG1       67.6310   67.4220   71.4840 C.3     3  ILE3        0.0020
     22  CG2       67.3350   69.7690   70.7880 C.3     3  ILE3        0.0020
     23  CD1       68.9270   67.2260   72.2750 C.3     3  ILE3        0.0001
     24  OXT       65.7170   65.8420   69.2880 O.co2   3  ILE3       -0.2441
@<TRIPOS>BOND
     1    13    14    1
     2    13    10    1
     3    14    15    1
     4    10    11    1
     5    10     9    1
     6    15     9    1
     7    11    12    1
     8    11    16    1
     9     9     3   am
    10    16    17    1
    11     3     4    2
    12     3     2    1
    13    17    18    1
    14    17    20    1
    15     2     1    1
    16     2     5    1
    17    24    18   ar
    18    18    19   ar
    19    20    22    1
    20    20    21    1
    21     7     5    1
    22     5     6    1
    23     6     8    1
    24    21    23    1
