@<TRIPOS>MOLECULE
1nu9_0ZJ_A_1.pdb
 34 35 0 0 0
SMALL
GASTEIGER

@<TRIPOS>ATOM
      1  C1        19.9610   52.9390   43.5010 C.2   299  0ZJ299      0.2536
      2  O2        19.1180   52.2790   42.8930 O.2   299  0ZJ299     -0.2723
      3  C2        20.8130   52.2470   44.5500 C.3   299  0ZJ299      0.1551
      4  S2        22.5290   52.1930   43.9380 S.3   299  0ZJ299     -0.0718
      5  N         20.1650   54.2790   43.3070 N.am  299  0ZJ299     -0.1967
      6  CA        19.3620   55.0280   42.3560 C.3   299  0ZJ299      0.1756
      7  C         18.3280   55.7440   43.2310 C.2   299  0ZJ299      0.2461
      8  O         18.6940   56.4680   44.1430 O.2   299  0ZJ299     -0.2730
      9  CB        20.2430   56.0350   41.5800 C.3   299  0ZJ299      0.0574
     10  CG        19.4180   56.8250   40.5470 C.ar  299  0ZJ299     -0.0200
     11  CD1       18.9310   56.1720   39.3790 C.ar  299  0ZJ299     -0.0042
     12  CD2       19.1470   58.2170   40.7410 C.ar  299  0ZJ299     -0.0042
     13  CE1       18.1790   56.8980   38.4150 C.ar  299  0ZJ299     -0.0003
     14  CE2       18.3980   58.9390   39.7790 C.ar  299  0ZJ299     -0.0003
     15  CZ        17.9130   58.2790   38.6130 C.ar  299  0ZJ299     -0.0000
     16  N1        17.0250   55.5550   42.9620 N.am  299  0ZJ299     -0.2716
     17  CA1       16.0480   56.2330   43.8270 C.3   299  0ZJ299      0.1536
     18  C3        16.0160   55.6110   45.2330 C.2   299  0ZJ299      0.2598
     19  O1        16.2570   54.4100   45.3930 O.2   299  0ZJ299     -0.2715
     20  CB1       14.7130   56.0450   43.0830 C.3   299  0ZJ299      0.0310
     21  CG1       14.9580   54.9350   42.1210 C.3   299  0ZJ299      0.0237
     22  CD        16.3950   55.1020   41.7090 C.3   299  0ZJ299      0.0939
     23  N2        15.7010   56.4060   46.2550 N.am  299  0ZJ299     -0.1983
     24  CA2       15.6790   55.8660   47.6150 C.3   299  0ZJ299      0.1524
     25  C4        14.2850   55.8340   48.1810 C.2   299  0ZJ299      0.1707
     26  CB2       16.6000   56.6780   48.5390 C.3   299  0ZJ299      0.0329
     27  CG2       18.0780   56.3930   48.3060 C.3   299  0ZJ299      0.0491
     28  CD3       19.0020   57.3200   49.0970 C.3   299  0ZJ299      0.2205
     29  NE        20.3680   56.8240   49.0140 N.pl3 299  0ZJ299     -0.0865
     30  CZ1       21.4350   57.3790   49.6010 C.cat 299  0ZJ299      0.5346
     31  NH1       22.6290   56.8150   49.4560 N.pl3 299  0ZJ299      0.1354
     32  NH2       21.3260   58.4880   50.3300 N.pl3 299  0ZJ299      0.1354
     33  O3        14.1060   55.5100   49.3600 O.2   299  0ZJ299     -0.2943
     34  CM        13.1200   55.9310   47.1820 C.3   299  0ZJ299      0.0741
@<TRIPOS>BOND
     1    13    15   ar
     2    13    11   ar
     3    15    14   ar
     4    11    10   ar
     5    14    12   ar
     6    10    12   ar
     7    10     9    1
     8     9     6    1
     9    22    21    1
    10    22    16    1
    11    21    20    1
    12     6     7    1
    13     6     5    1
    14     2     1    2
    15    16     7   am
    16    16    17    1
    17    20    17    1
    18     7     8    2
    19     5     1   am
    20     1     3    1
    21    17    18    1
    22     4     3    1
    23    18    19    2
    24    18    23   am
    25    23    24    1
    26    34    25    1
    27    24    25    1
    28    24    26    1
    29    25    33    2
    30    27    26    1
    31    27    28    1
    32    29    28    1
    33    29    30    2
    34    31    30    1
    35    30    32    1
