@<TRIPOS>MOLECULE
1nuc_THP_A_1.pdb
 26 27 0 0 0
SMALL
GASTEIGER

@<TRIPOS>ATOM
      1  P2         6.1260   13.4550   20.5220 P.3   151  THP151      0.5327
      2  O4P        5.1500   13.4380   19.4090 O.2   151  THP151     -0.2224
      3  O5P        7.2540   14.3480   20.2120 O.3   151  THP151     -0.1145
      4  O6P        6.4560   12.0990   20.9620 O.3   151  THP151     -0.1145
      5  P1         4.7330   11.2370   26.3590 P.3   151  THP151      0.5326
      6  O1P        5.0060   10.9540   27.7720 O.3   151  THP151     -0.1145
      7  O2P        5.9360   11.3070   25.5550 O.2   151  THP151     -0.2224
      8  O3P        3.6750   10.4490   25.7250 O.3   151  THP151     -0.1145
      9  O5'        5.4580   14.1920   21.7520 O.3   151  THP151     -0.2675
     10  C5'        4.4060   13.6940   22.5820 C.3   151  THP151      0.1857
     11  C4'        4.8250   13.6970   24.0790 C.3   151  THP151      0.1750
     12  O4'        5.0950   15.0440   24.3970 O.3   151  THP151     -0.3327
     13  C3'        3.6850   13.3180   25.0690 C.3   151  THP151      0.1602
     14  O3'        4.1110   12.7290   26.3450 O.3   151  THP151     -0.2700
     15  C2'        2.9130   14.5960   25.2690 C.3   151  THP151      0.0867
     16  C1'        4.0450   15.5610   25.2490 C.3   151  THP151      0.2106
     17  N1         3.5960   16.8860   24.8150 N.ar  151  THP151     -0.2574
     18  C2         3.2800   17.7050   25.8180 C.ar  151  THP151      0.3322
     19  O2         3.4470   17.4420   26.9960 O.2   151  THP151     -0.2464
     20  N3         2.7690   18.8850   25.4800 N.ar  151  THP151     -0.2746
     21  C4         2.5860   19.3820   24.2310 C.ar  151  THP151      0.2584
     22  O4         2.0860   20.5080   24.1380 O.2   151  THP151     -0.2674
     23  C5         2.9590   18.4740   23.1710 C.ar  151  THP151      0.0515
     24  C5M        2.6840   18.8860   21.6850 C.3   151  THP151      0.0376
     25  C6         3.4740   17.2740   23.5020 C.ar  151  THP151      0.0823
     26  H3         2.4920   19.4990   26.2320 H     151  THP151      0.1734
@<TRIPOS>BOND
     1     2     1    2
     2     3     1    1
     3     1     4    1
     4     1     9    1
     5    24    23    1
     6     9    10    1
     7    10    11    1
     8    23    25   ar
     9    23    21   ar
    10    25    17   ar
    11    11    12    1
    12    11    13    1
    13    22    21    2
    14    21    20   ar
    15    12    16    1
    16    17    16    1
    17    17    18   ar
    18    13    15    1
    19    13    14    1
    20    16    15    1
    21    20    18   ar
    22    20    26    1
    23     7     5    2
    24     8     5    1
    25    18    19    2
    26    14     5    1
    27     5     6    1
