@<TRIPOS>MOLECULE
1nue_GDP_A_1.pdb
 28 30 0 0 0
SMALL
GASTEIGER

@<TRIPOS>ATOM
      1  PB        21.8520   37.7440   34.7510 P.3   160  GDP160      0.5373
      2  O1B       20.4880   38.3080   34.5250 O.2   160  GDP160     -0.2221
      3  O2B       22.8790   38.7330   35.1570 O.3   160  GDP160     -0.1143
      4  O3B       21.8670   36.5330   35.5780 O.3   160  GDP160     -0.1143
      5  O3A       22.3000   37.2360   33.2630 O.3   160  GDP160     -0.2261
      6  PA        21.5230   36.7010   31.9110 P.3   160  GDP160      0.2231
      7  O1A       20.0600   37.0530   32.0680 O.3   160  GDP160     -0.4370
      8  O2A       22.2490   37.1910   30.7190 O.2   160  GDP160     -0.5169
      9  O5'       21.7040   35.0950   31.9780 O.3   160  GDP160     -0.3111
     10  C5'       21.1300   34.3060   33.0170 C.3   160  GDP160      0.1813
     11  C4'       22.1810   33.4370   33.4910 C.3   160  GDP160      0.1799
     12  O4'       22.6150   32.7610   32.3370 O.3   160  GDP160     -0.3326
     13  C3'       23.5040   34.0110   34.0230 C.3   160  GDP160      0.2158
     14  O3'       23.2520   34.3950   35.3200 O.3   160  GDP160     -0.2175
     15  C2'       24.3900   32.7160   33.9500 C.3   160  GDP160      0.2310
     16  O2'       24.0200   31.7630   34.9960 O.3   160  GDP160     -0.2158
     17  C1'       23.8960   32.0610   32.6180 C.3   160  GDP160      0.2293
     18  N9        24.7920   32.4380   31.5000 N.pl3 160  GDP160     -0.2354
     19  C8        24.9000   33.6620   30.8300 C.3   160  GDP160      0.2246
     20  N7        25.8760   33.5840   29.9370 N.2   160  GDP160     -0.2322
     21  C5        26.3960   32.3120   30.0920 C.2   160  GDP160      0.2182
     22  C6        27.4670   31.6840   29.4390 C.1   160  GDP160      0.2372
     23  O6        28.1770   32.1700   28.5800 O.2   160  GDP160     -0.2069
     24  N1        27.6980   30.3710   29.7980 N.2   160  GDP160     -0.2485
     25  C2        27.0220   29.6970   30.7200 C.1   160  GDP160      0.2531
     26  N2        27.4350   28.4270   30.9070 N.pl3 160  GDP160     -0.0226
     27  N3        26.0270   30.2820   31.4040 N.2   160  GDP160     -0.3074
     28  C4        25.7650   31.5970   31.0150 C.2   160  GDP160      0.2300
@<TRIPOS>BOND
     1    23    22    2
     2    22    24    2
     3    22    21    1
     4    24    25    2
     5    20    21    2
     6    20    19    1
     7    21    28    1
     8     8     6    2
     9    25    26    1
    10    25    27    2
    11    19    18    1
    12    28    27    2
    13    28    18    1
    14    18    17    1
    15     6     9    1
    16     6     7    1
    17     6     5    1
    18     9    10    1
    19    12    17    1
    20    12    11    1
    21    17    15    1
    22    10    11    1
    23     5     1    1
    24    11    13    1
    25    15    13    1
    26    15    16    1
    27    13    14    1
    28     2     1    2
    29     1     3    1
    30     1     4    1
