@<TRIPOS>MOLECULE
1nuh_PA5_A_1.pdb
 15 14 0 0 0
SMALL
GASTEIGER

@<TRIPOS>ATOM
      1  O1A       63.6300   45.0160   11.6780 O.co2 564  PA5564     -0.2427
      2  C1        63.4920   44.8860   12.8880 C.2   564  PA5564      0.3973
      3  O1        64.4310   44.5610   13.6180 O.co2 564  PA5564     -0.2427
      4  C2        62.1330   45.0690   13.4720 C.3   564  PA5564      0.2865
      5  O2        61.1950   45.3670   12.4350 O.3   564  PA5564     -0.2080
      6  C3        61.7470   43.7270   14.0490 C.3   564  PA5564      0.2259
      7  O3        61.7350   42.7930   12.9690 O.3   564  PA5564     -0.2169
      8  C4        60.3580   43.8090   14.6210 C.3   564  PA5564      0.2152
      9  O4        60.3450   44.6370   15.7730 O.3   564  PA5564     -0.2176
     10  C5        59.9010   42.4120   14.9860 C.3   564  PA5564      0.1892
     11  O5        60.6490   41.9820   16.1110 O.3   564  PA5564     -0.2674
     12  P         60.5600   40.4500   16.5340 P.3   564  PA5564      0.5327
     13  O1P       59.2140   40.3870   17.1870 O.3   564  PA5564     -0.1145
     14  O2P       60.6290   39.6450   15.2680 O.2   564  PA5564     -0.2224
     15  O3P       61.7240   40.2200   17.4760 O.3   564  PA5564     -0.1145
@<TRIPOS>BOND
     1     1     2   ar
     2     5     4    1
     3     2     4    1
     4     2     3   ar
     5     7     6    1
     6     4     6    1
     7     6     8    1
     8     8    10    1
     9     8     9    1
    10    10    11    1
    11    14    12    2
    12    11    12    1
    13    12    13    1
    14    12    15    1
