@<TRIPOS>MOLECULE
1nuo_4HY_A_1.pdb
 21 22 0 0 0
SMALL
GASTEIGER

@<TRIPOS>ATOM
      1  C1        20.6190    3.7330   70.3740 C.ar  500  4HY500     -0.0099
      2  C2        16.8070    5.3670   73.1970 C.2   500  4HY500      0.1424
      3  C3        20.4710    3.2910   71.7030 C.ar  500  4HY500      0.0051
      4  C4        16.1030    5.3290   74.3640 C.2   500  4HY500      0.0292
      5  C5        19.2980    3.3210   72.4380 C.ar  500  4HY500      0.0647
      6  C6        15.7850    6.4150   75.1900 C.3   500  4HY500      0.1391
      7  C7        18.1170    3.9330   71.8250 C.ar  500  4HY500      0.1558
      8  C8        16.2580    7.7080   74.8300 C.2   500  4HY500      0.1867
      9  C9        18.2770    4.5030   70.5270 C.ar  500  4HY500      0.0647
     10  C10       16.9990    7.7420   73.6790 C.2   500  4HY500      0.0417
     11  C11       19.4910    4.3380   69.8540 C.ar  500  4HY500      0.0051
     12  C12       17.2720    6.6060   72.8600 C.2   500  4HY500      0.0402
     13  C13       21.8360    3.6820   69.4040 C.3   500  4HY500      0.1404
     14  C14       23.0610    3.1840   69.5650 C.2   500  4HY500      0.3692
     15  I1        19.2410    2.6300   74.3800 I     500  4HY500     -0.0393
     16  I2        14.6610    6.0740   76.8730 I     500  4HY500     -0.0620
     17  I3        16.5770    5.1080   69.5750 I     500  4HY500     -0.0393
     18  O3        24.1000    3.2220   69.0010 O.co2 500  4HY500     -0.2453
     19  O2        16.9580    4.1790   72.4410 O.3   500  4HY500     -0.4529
     20  O1        15.9980    8.6810   75.4560 O.2   500  4HY500     -0.2902
     21  O4        23.1070    2.5680   70.4710 O.co2 500  4HY500     -0.2453
@<TRIPOS>BOND
     1    18    14   ar
     2    13    14    1
     3    13     1    1
     4    14    21   ar
     5    17     9    1
     6    11     1   ar
     7    11     9   ar
     8     1     3   ar
     9     9     7   ar
    10     3     5   ar
    11     7     5   ar
    12     7    19    1
    13     5    15    1
    14    19     2    1
    15    12     2    1
    16    12    10    2
    17     2     4    2
    18    10     8    1
    19     4     6    1
    20     8     6    1
    21     8    20    2
    22     6    16    1
