@<TRIPOS>MOLECULE
1nup_NMN_A_1.pdb
 22 23 0 0 0
SMALL
GASTEIGER

@<TRIPOS>ATOM
      1  O3P       11.0260    5.6510   19.7760 O.3   401  NMN401     -0.1145
      2  P          9.6970    5.6800   20.4480 P.3   401  NMN401      0.5327
      3  O1P        8.4880    5.4270   19.6290 O.2   401  NMN401     -0.2224
      4  O2P        9.7250    4.6380   21.6520 O.3   401  NMN401     -0.1145
      5  O5R        9.5290    7.0840   21.2020 O.3   401  NMN401     -0.2675
      6  C5R        9.5640    8.2740   20.4310 C.3   401  NMN401      0.1859
      7  C4R        9.2390    9.4870   21.2780 C.3   401  NMN401      0.1801
      8  O4R        8.0220    9.1950   22.0400 O.3   401  NMN401     -0.3327
      9  C3R       10.3260    9.7760   22.3160 C.3   401  NMN401      0.2158
     10  O3R       10.3810   11.1900   22.5050 O.3   401  NMN401     -0.2175
     11  C2R        9.8110    9.1290   23.5760 C.3   401  NMN401      0.2309
     12  O2R       10.3120    9.8380   24.7180 O.3   401  NMN401     -0.2158
     13  C1R        8.3210    9.3790   23.4540 C.3   401  NMN401      0.2263
     14  N1         7.5230    8.4990   24.3500 N.pl3 401  NMN401     -0.2787
     15  C2         7.0040    9.0560   25.5220 C.3   401  NMN401      0.1244
     16  C3         6.2790    8.2710   26.4100 C.2   401  NMN401      0.0544
     17  C7         5.7400    8.9240   27.6730 C.2   401  NMN401      0.2818
     18  O7         5.9610   10.1190   27.8950 O.2   401  NMN401     -0.2670
     19  N7         5.0310    8.1230   28.4790 N.am  401  NMN401     -0.0839
     20  C4         6.0670    6.9100   26.1300 C.2   401  NMN401      0.0033
     21  C5         6.5800    6.3340   24.9510 C.2   401  NMN401      0.0157
     22  C6         7.3130    7.1300   24.0510 C.2   401  NMN401      0.0633
@<TRIPOS>BOND
     1     3     2    2
     2     1     2    1
     3     6     5    1
     4     6     7    1
     5     2     5    1
     6     2     4    1
     7     7     8    1
     8     7     9    1
     9     8    13    1
    10     9    10    1
    11     9    11    1
    12    13    11    1
    13    13    14    1
    14    11    12    1
    15    22    14    1
    16    22    21    2
    17    14    15    1
    18    21    20    1
    19    15    16    1
    20    20    16    2
    21    16    17    1
    22    17    18    2
    23    17    19   am
