@<TRIPOS>MOLECULE
1nuq_NXX_A_1.pdb
 44 48 0 0 0
SMALL
GASTEIGER

@<TRIPOS>ATOM
      1  O7N        4.7400    8.1760   28.4700 O.co2 401  NXX401     -0.2405
      2  C7N        5.3610    8.8870   27.6610 C.2   401  NXX401      0.3890
      3  O8N        5.5370   10.2050   27.8340 O.co2 401  NXX401     -0.2405
      4  C3N        5.8800    8.1350   26.4850 C.2   401  NXX401      0.0940
      5  C4N        5.7000    6.6820   26.2370 C.2   401  NXX401      0.0050
      6  C5N        6.3220    6.1380   24.9460 C.2   401  NXX401     -0.0044
      7  C6N        6.9840    6.9740   24.1270 C.3   401  NXX401      0.1195
      8  C2N        6.6200    8.9390   25.5160 C.2   401  NXX401      0.0699
      9  N1N        7.1630    8.3900   24.3730 N.pl3 401  NXX401     -0.2787
     10  C1M        7.8890    9.2750   23.4830 C.3   401  NXX401      0.2263
     11  C2M        9.3900    9.1410   23.6520 C.3   401  NXX401      0.2309
     12  O2M        9.9120    9.8970   24.7550 O.3   401  NXX401     -0.2158
     13  C3M        9.8970    9.6590   22.3110 C.3   401  NXX401      0.2158
     14  O3M        9.9510   11.1100   22.3140 O.3   401  NXX401     -0.2175
     15  O4M        7.6070    8.9690   22.1310 O.3   401  NXX401     -0.3327
     16  C4M        8.8000    9.1880   21.3420 C.3   401  NXX401      0.1799
     17  C5M        9.0860    7.9260   20.6070 C.3   401  NXX401      0.1813
     18  O5M        9.5240    8.3770   19.2980 O.3   401  NXX401     -0.3112
     19  PN         9.9350    7.3350   18.1730 P.3   401  NXX401      0.2189
     20  O1N       10.8930    6.3370   18.7310 O.3   401  NXX401     -0.4371
     21  O2N        8.7910    6.7150   17.4200 O.2   401  NXX401     -0.5170
     22  O3A       10.6140    8.4380   17.2090 O.3   401  NXX401     -0.2703
     23  PA        10.9120    8.3270   15.6510 P.3   401  NXX401      0.2189
     24  O1A       10.7370    6.9290   15.1540 O.2   401  NXX401     -0.5170
     25  O2A       12.2680    8.9410   15.4240 O.3   401  NXX401     -0.4371
     26  O5B        9.8140    9.2300   14.8830 O.3   401  NXX401     -0.3112
     27  C5B        9.5360   10.5990   15.3460 C.3   401  NXX401      0.1813
     28  C4B        8.2190   10.9580   14.7050 C.3   401  NXX401      0.1821
     29  C3B        7.0160   10.1740   15.2420 C.3   401  NXX401      0.2184
     30  O3B        6.0070   11.1040   15.6980 O.3   401  NXX401     -0.2174
     31  C2B        6.6180    9.3430   14.0200 C.3   401  NXX401      0.2570
     32  O2P        5.2060    9.1210   14.0150 O.3   401  NXX401     -0.2130
     33  C1B        7.0440   10.2290   12.8640 C.3   401  NXX401      0.3186
     34  O4B        8.2410   10.7070   13.2900 O.3   401  NXX401     -0.3135
     35  N9A        7.2990    9.5070   11.6210 N.pl3 401  NXX401     -0.1439
     36  C8A        8.2970    8.6080   11.3420 C.3   401  NXX401      0.3377
     37  N7A        8.2440    8.1310   10.0780 N.2   401  NXX401     -0.2095
     38  C5A        7.1300    8.7970    9.5520 C.2   401  NXX401      0.2526
     39  C4A        6.5380    9.6270   10.4990 C.2   401  NXX401      0.3518
     40  C6A        6.4930    8.7540    8.2610 C.2   401  NXX401      0.4393
     41  N6A        6.9170    8.0130    7.2300 N.pl3 401  NXX401      0.2180
     42  N1A        5.3760    9.5510    8.0680 N.2   401  NXX401      0.0021
     43  C2A        4.9190   10.3270    9.1140 C.3   401  NXX401      0.5254
     44  N3A        5.4440   10.4230   10.3340 N.2   401  NXX401     -0.0055
@<TRIPOS>BOND
     1    41    40    1
     2    42    40    2
     3    42    43    1
     4    40    38    1
     5    43    44    1
     6    38    37    2
     7    38    39    1
     8    37    36    1
     9    44    39    2
    10    39    35    1
    11    36    35    1
    12    35    33    1
    13    33    34    1
    14    33    31    1
    15    34    28    1
    16    32    31    1
    17    31    29    1
    18    28    29    1
    19    28    27    1
    20    26    27    1
    21    26    23    1
    22    24    23    2
    23    29    30    1
    24    25    23    1
    25    23    22    1
    26    22    19    1
    27    21    19    2
    28    19    20    1
    29    19    18    1
    30    18    17    1
    31    17    16    1
    32    16    15    1
    33    16    13    1
    34    15    10    1
    35    13    14    1
    36    13    11    1
    37    10    11    1
    38    10     9    1
    39    11    12    1
    40     7     9    1
    41     7     6    1
    42     9     8    1
    43     6     5    2
    44     8     4    2
    45     5     4    1
    46     4     2    1
    47     2     3   ar
    48     2     1   ar
