@<TRIPOS>MOLECULE
1nus_NMN_A_1.pdb
 22 23 0 0 0
SMALL
GASTEIGER

@<TRIPOS>ATOM
      1  O3P       10.6330    5.1930   20.0850 O.3   401  NMN401     -0.1145
      2  P          9.2260    5.2880   20.5540 P.3   401  NMN401      0.5327
      3  O1P        8.1440    5.0280   19.5780 O.2   401  NMN401     -0.2224
      4  O2P        9.0510    4.2620   21.7930 O.3   401  NMN401     -0.1145
      5  O5R        9.0040    6.7350   21.2370 O.3   401  NMN401     -0.2675
      6  C5R        8.9580    7.8970   20.4080 C.3   401  NMN401      0.1859
      7  C4R        8.7100    9.1760   21.2200 C.3   401  NMN401      0.1801
      8  O4R        7.4830    8.9810   22.0080 O.3   401  NMN401     -0.3327
      9  C3R        9.8390    9.4230   22.2380 C.3   401  NMN401      0.2158
     10  O3R       10.0580   10.8420   22.3720 O.3   401  NMN401     -0.2175
     11  C2R        9.2970    8.8380   23.5290 C.3   401  NMN401      0.2309
     12  O2R        9.8430    9.5230   24.6650 O.3   401  NMN401     -0.2158
     13  C1R        7.8090    9.1300   23.4300 C.3   401  NMN401      0.2263
     14  N1         6.9910    8.2510   24.3170 N.pl3 401  NMN401     -0.2787
     15  C2         6.4370    8.8000   25.4920 C.3   401  NMN401      0.1244
     16  C3         5.6940    7.9880   26.3540 C.2   401  NMN401      0.0544
     17  C7         5.1370    8.5800   27.6460 C.2   401  NMN401      0.2818
     18  O7         5.3340    9.7710   27.9330 O.2   401  NMN401     -0.2670
     19  N7         4.4530    7.7270   28.4090 N.am  401  NMN401     -0.0839
     20  C4         5.5000    6.6340   26.0350 C.2   401  NMN401      0.0033
     21  C5         6.0570    6.1040   24.8610 C.2   401  NMN401      0.0157
     22  C6         6.8020    6.9360   24.0100 C.2   401  NMN401      0.0633
@<TRIPOS>BOND
     1     3     2    2
     2     1     2    1
     3     6     7    1
     4     6     5    1
     5     2     5    1
     6     2     4    1
     7     7     8    1
     8     7     9    1
     9     8    13    1
    10     9    10    1
    11     9    11    1
    12    13    11    1
    13    13    14    1
    14    11    12    1
    15    22    14    1
    16    22    21    2
    17    14    15    1
    18    21    20    1
    19    15    16    1
    20    20    16    2
    21    16    17    1
    22    17    18    2
    23    17    19   am
