@<TRIPOS>MOLECULE
1nus_APC_A_1.pdb
 31 33 0 0 0
SMALL
GASTEIGER

@<TRIPOS>ATOM
      1  PG        12.3640    3.9750   13.6410 P.3   501  APC501      0.5389
      2  O1G       11.2270    3.6340   14.5280 O.3   501  APC501     -0.1143
      3  O2G       12.6930    3.0410   12.5320 O.2   501  APC501     -0.2220
      4  O3G       13.6880    4.1510   14.5590 O.3   501  APC501     -0.1143
      5  PB        10.7110    6.2330   13.0980 P.3   501  APC501      0.3895
      6  O1B       10.8440    7.4970   12.3320 O.2   501  APC501     -0.2544
      7  O2B        9.6540    5.2810   12.6840 O.3   501  APC501     -0.1388
      8  O3B       12.1540    5.4730   13.0330 O.3   501  APC501     -0.2026
      9  PA        11.0040    8.2340   15.3090 P.3   501  APC501      0.3820
     10  O1A       10.9190    8.3110   16.7920 O.3   501  APC501     -0.1392
     11  O2A       12.2960    8.5800   14.6690 O.2   501  APC501     -0.2548
     12  C3A       10.5220    6.5700   14.8550 C.3   501  APC501      0.2357
     13  O5'        9.8130    9.1370   14.6720 O.3   501  APC501     -0.2896
     14  C5'        9.5320   10.4440   15.2100 C.3   501  APC501      0.1836
     15  C4'        8.1770   11.0060   14.7130 C.3   501  APC501      0.1822
     16  O4'        8.1590   11.0080   13.2410 O.3   501  APC501     -0.3135
     17  C3'        7.0120   10.0990   15.1420 C.3   501  APC501      0.2184
     18  O3'        5.8710   10.9000   15.4590 O.3   501  APC501     -0.2174
     19  C2'        6.7220    9.2580   13.9280 C.3   501  APC501      0.2570
     20  O2'        5.3360    8.8990   13.9120 O.3   501  APC501     -0.2130
     21  C1'        7.0110   10.2160   12.7890 C.3   501  APC501      0.3186
     22  N9         7.2880    9.5290   11.4980 N.pl3 501  APC501     -0.1439
     23  C8         8.3700    8.7860   11.2220 C.3   501  APC501      0.3377
     24  N7         8.3280    8.3970    9.9420 N.2   501  APC501     -0.2095
     25  C5         7.2210    8.8830    9.4020 C.2   501  APC501      0.2526
     26  C6         6.6740    8.7970    8.1240 C.2   501  APC501      0.4393
     27  N6         7.3310    8.1460    7.1610 N.pl3 501  APC501      0.2180
     28  N1         5.4890    9.4050    7.8660 N.2   501  APC501      0.0021
     29  C2         4.8180   10.1300    8.8880 C.3   501  APC501      0.5254
     30  N3         5.3580   10.2110   10.1090 N.2   501  APC501     -0.0055
     31  C4         6.5470    9.6050   10.3890 C.2   501  APC501      0.3518
@<TRIPOS>BOND
     1    27    26    1
     2    28    26    2
     3    28    29    1
     4    26    25    1
     5    29    30    1
     6    25    24    2
     7    25    31    1
     8    24    23    1
     9    30    31    2
    10    31    22    1
    11    23    22    1
    12    22    21    1
    13     6     5    2
    14     3     1    2
    15     7     5    1
    16    21    16    1
    17    21    19    1
    18     8     5    1
    19     8     1    1
    20     5    12    1
    21    16    15    1
    22     1     2    1
    23     1     4    1
    24    20    19    1
    25    19    17    1
    26    11     9    2
    27    13    14    1
    28    13     9    1
    29    15    17    1
    30    15    14    1
    31    12     9    1
    32    17    18    1
    33     9    10    1
