@<TRIPOS>MOLECULE
1nut_APC_A_1.pdb
 31 33 0 0 0
SMALL
GASTEIGER

@<TRIPOS>ATOM
      1  PG        12.5300    3.8910   13.5470 P.3   401  APC401      0.5389
      2  O1G       11.5660    3.6410   14.6430 O.3   401  APC401     -0.1143
      3  O2G       12.5500    2.9420   12.3970 O.2   401  APC401     -0.2220
      4  O3G       14.0030    3.9670   14.1770 O.3   401  APC401     -0.1143
      5  PB        10.9630    6.2270   13.2420 P.3   401  APC401      0.3895
      6  O1B       11.0970    7.5110   12.5030 O.2   401  APC401     -0.2544
      7  O2B        9.8220    5.3440   12.9210 O.3   401  APC401     -0.1388
      8  O3B       12.3330    5.3950   12.9850 O.3   401  APC401     -0.2026
      9  PA        11.2290    8.2510   15.4380 P.3   401  APC401      0.3820
     10  O1A       11.0470    8.3590   16.9180 O.3   401  APC401     -0.1392
     11  O2A       12.5100    8.7540   14.8700 O.2   401  APC401     -0.2548
     12  C3A       10.9740    6.5230   15.0200 C.3   401  APC401      0.2357
     13  O5'        9.9980    9.0260   14.7290 O.3   401  APC401     -0.2896
     14  C5'        9.7440   10.4020   15.1220 C.3   401  APC401      0.1836
     15  C4'        8.3910   10.9210   14.5910 C.3   401  APC401      0.1822
     16  O4'        8.4030   10.8170   13.1290 O.3   401  APC401     -0.3135
     17  C3'        7.2270   10.0390   15.0790 C.3   401  APC401      0.2184
     18  O3'        6.0980   10.8550   15.4110 O.3   401  APC401     -0.2174
     19  C2'        6.8970    9.1760   13.8880 C.3   401  APC401      0.2570
     20  O2'        5.5040    8.8780   13.8920 O.3   401  APC401     -0.2130
     21  C1'        7.2180   10.0920   12.7140 C.3   401  APC401      0.3186
     22  N9         7.4660    9.3680   11.4470 N.pl3 401  APC401     -0.1439
     23  C8         8.5080    8.5590   11.1920 C.3   401  APC401      0.3377
     24  N7         8.4490    8.1600    9.9140 N.2   401  APC401     -0.2095
     25  C5         7.3710    8.7040    9.3650 C.2   401  APC401      0.2526
     26  C6         6.8110    8.6490    8.0890 C.2   401  APC401      0.4393
     27  N6         7.3980    7.9280    7.1330 N.pl3 401  APC401      0.2180
     28  N1         5.6660    9.3300    7.8360 N.2   401  APC401      0.0021
     29  C2         5.0660   10.0620    8.7930 C.3   401  APC401      0.5254
     30  N3         5.5910   10.1340   10.0320 N.2   401  APC401     -0.0055
     31  C4         6.7400    9.4720   10.3340 C.2   401  APC401      0.3518
@<TRIPOS>BOND
     1    27    26    1
     2    28    26    2
     3    28    29    1
     4    26    25    1
     5    29    30    1
     6    25    24    2
     7    25    31    1
     8    24    23    1
     9    30    31    2
    10    31    22    1
    11    23    22    1
    12    22    21    1
    13     3     1    2
    14     6     5    2
    15    21    16    1
    16    21    19    1
    17     7     5    1
    18     8     5    1
    19     8     1    1
    20    16    15    1
    21     5    12    1
    22     1     4    1
    23     1     2    1
    24    19    20    1
    25    19    17    1
    26    15    17    1
    27    15    14    1
    28    13    14    1
    29    13     9    1
    30    11     9    2
    31    12     9    1
    32    17    18    1
    33     9    10    1
