@<TRIPOS>MOLECULE
1nuu_NAD_A_1.pdb
 44 48 0 0 0
SMALL
GASTEIGER

@<TRIPOS>ATOM
      1  PA        10.8260    8.4460   15.5830 P.3   401  NAD401      0.2189
      2  O1A       12.1830    9.0800   15.4150 O.3   401  NAD401     -0.4371
      3  O2A       10.7030    7.0200   15.1180 O.2   401  NAD401     -0.5170
      4  O5B        9.7740    9.3210   14.7540 O.3   401  NAD401     -0.3112
      5  C5B        9.6100   10.7340   15.0920 C.3   401  NAD401      0.1813
      6  C4B        8.2280   11.0880   14.5900 C.3   401  NAD401      0.1821
      7  O4B        8.1320   10.8540   13.1830 O.3   401  NAD401     -0.3135
      8  C3B        7.0800   10.2950   15.2120 C.3   401  NAD401      0.2184
      9  O3B        6.0590   11.2080   15.6960 O.3   401  NAD401     -0.2174
     10  C2B        6.6610    9.4090   14.0450 C.3   401  NAD401      0.2570
     11  O2B        5.2830    9.0930   14.1610 O.3   401  NAD401     -0.2130
     12  C1B        6.9390   10.3010   12.8560 C.3   401  NAD401      0.3186
     13  N9A        7.1770    9.6020   11.6150 N.pl3 401  NAD401     -0.1439
     14  C8A        8.1950    8.7390   11.3150 C.3   401  NAD401      0.3377
     15  N7A        8.1340    8.2710   10.0590 N.2   401  NAD401     -0.2095
     16  C5A        6.9930    8.8900    9.5590 C.2   401  NAD401      0.2526
     17  C6A        6.3540    8.8360    8.2800 C.2   401  NAD401      0.4393
     18  N6A        6.7900    8.1080    7.2490 N.pl3 401  NAD401      0.2180
     19  N1A        5.2040    9.5880    8.1070 N.2   401  NAD401      0.0021
     20  C2A        4.7390   10.3480    9.1550 C.3   401  NAD401      0.5254
     21  N3A        5.2750   10.4570   10.3650 N.2   401  NAD401     -0.0055
     22  C4A        6.3980    9.7090   10.5070 C.2   401  NAD401      0.3518
     23  O3        10.4320    8.6120   17.1040 O.3   401  NAD401     -0.2703
     24  PN         9.9030    7.5070   18.1290 P.3   401  NAD401      0.2189
     25  O1N       10.9450    6.5750   18.6420 O.3   401  NAD401     -0.4371
     26  O2N        8.7440    6.7970   17.5130 O.2   401  NAD401     -0.5170
     27  O5D        9.5190    8.5760   19.2580 O.3   401  NAD401     -0.3112
     28  C5D        8.9480    8.1340   20.5060 C.3   401  NAD401      0.1813
     29  C4D        8.7070    9.3910   21.2730 C.3   401  NAD401      0.1799
     30  O4D        7.5160    9.1650   22.0640 O.3   401  NAD401     -0.3327
     31  C3D        9.8240    9.7870   22.2460 C.3   401  NAD401      0.2158
     32  O3D        9.9260   11.2290   22.3240 O.3   401  NAD401     -0.2175
     33  C2D        9.3330    9.2290   23.5620 C.3   401  NAD401      0.2309
     34  O2D        9.8870    9.9410   24.6760 O.3   401  NAD401     -0.2158
     35  C1D        7.8360    9.3990   23.4330 C.3   401  NAD401      0.2263
     36  N1N        7.1190    8.4740   24.2910 N.pl3 401  NAD401     -0.2787
     37  C2N        6.5640    8.9790   25.4500 C.3   401  NAD401      0.1244
     38  C3N        5.8280    8.1410   26.3820 C.2   401  NAD401      0.0544
     39  C7N        5.2970    8.8530   27.5660 C.2   401  NAD401      0.2818
     40  O7N        4.6540    8.1160   28.3590 O.2   401  NAD401     -0.2670
     41  N7N        5.4760   10.1710   27.7730 N.am  401  NAD401     -0.0839
     42  C4N        5.6620    6.6950   26.0890 C.2   401  NAD401      0.0033
     43  C5N        6.3000    6.1980   24.7930 C.2   401  NAD401      0.0157
     44  C6N        6.9610    7.0660   23.9990 C.2   401  NAD401      0.0633
@<TRIPOS>BOND
     1    18    17    1
     2    19    17    2
     3    19    20    1
     4    17    16    1
     5    20    21    1
     6    16    15    2
     7    16    22    1
     8    15    14    1
     9    21    22    2
    10    22    13    1
    11    14    13    1
    12    13    12    1
    13    12     7    1
    14    12    10    1
    15     7     6    1
    16    10    11    1
    17    10     8    1
    18     6     5    1
    19     6     8    1
    20     4     5    1
    21     4     1    1
    22     3     1    2
    23     8     9    1
    24     2     1    1
    25     1    23    1
    26    23    24    1
    27    26    24    2
    28    24    25    1
    29    24    27    1
    30    27    28    1
    31    28    29    1
    32    29    30    1
    33    29    31    1
    34    30    35    1
    35    31    32    1
    36    31    33    1
    37    35    33    1
    38    35    36    1
    39    33    34    1
    40    44    36    1
    41    44    43    2
    42    36    37    1
    43    43    42    1
    44    37    38    1
    45    42    38    2
    46    38    39    1
    47    39    41   am
    48    39    40    2
