@<TRIPOS>MOLECULE
1nuw_F6P_A_1.pdb
 16 16 0 0 0
SMALL
GASTEIGER

@<TRIPOS>ATOM
      1  O1        11.1910    9.1750   27.1640 O.3   2336  F6P2336    -0.2148
      2  C1         9.8390    9.5040   26.9900 C.3   2336  F6P2336     0.2434
      3  C2         8.9620    8.2670   27.1030 C.3   2336  F6P2336     0.2807
      4  O2         9.3490    7.2630   26.1820 O.3   2336  F6P2336    -0.1896
      5  C3         7.4880    8.5680   26.9840 C.3   2336  F6P2336     0.2409
      6  O3         6.9770    8.3010   25.6900 O.3   2336  F6P2336    -0.2149
      7  C4         6.8010    7.7330   28.0720 C.3   2336  F6P2336     0.2167
      8  O4         5.6450    8.3900   28.5530 O.3   2336  F6P2336    -0.2175
      9  C5         7.8710    7.6490   29.1480 C.3   2336  F6P2336     0.1808
     10  O5         9.1310    7.7720   28.4540 O.3   2336  F6P2336    -0.3254
     11  C6         7.9050    6.2690   29.8280 C.3   2336  F6P2336     0.1859
     12  O6         8.9160    6.3830   30.8910 O.3   2336  F6P2336    -0.2675
     13  P          8.9690    5.2700   32.0480 P.3   2336  F6P2336     0.5327
     14  O1P        9.9380    5.9380   33.0190 O.3   2336  F6P2336    -0.1145
     15  O2P        9.6010    3.9930   31.4510 O.2   2336  F6P2336    -0.2224
     16  O3P        7.5530    5.0300   32.5120 O.3   2336  F6P2336    -0.1145
@<TRIPOS>BOND
     1     6     5    1
     2     4     3    1
     3     5     3    1
     4     5     7    1
     5     2     3    1
     6     2     1    1
     7     3    10    1
     8     7     8    1
     9     7     9    1
    10    10     9    1
    11     9    11    1
    12    11    12    1
    13    12    13    1
    14    15    13    2
    15    13    16    1
    16    13    14    1
