@<TRIPOS>MOLECULE
1nux_F6P_A_1.pdb
 16 16 0 0 0
SMALL
GASTEIGER

@<TRIPOS>ATOM
      1  O1        11.0890    9.4640   27.0980 O.3   2339  F6P2339    -0.2148
      2  C1         9.7130    9.6440   26.8310 C.3   2339  F6P2339     0.2434
      3  C2         8.9290    8.3750   27.1130 C.3   2339  F6P2339     0.2807
      4  O2         9.2930    7.3120   26.2390 O.3   2339  F6P2339    -0.1896
      5  C3         7.4200    8.6530   26.9960 C.3   2339  F6P2339     0.2409
      6  O3         6.9720    8.3590   25.6730 O.3   2339  F6P2339    -0.2149
      7  C4         6.7320    7.7530   28.0430 C.3   2339  F6P2339     0.2167
      8  O4         5.6220    8.4960   28.5780 O.3   2339  F6P2339    -0.2175
      9  C5         7.8220    7.6950   29.1090 C.3   2339  F6P2339     0.1808
     10  O5         9.0900    7.9390   28.4700 O.3   2339  F6P2339    -0.3254
     11  C6         7.8980    6.3370   29.8040 C.3   2339  F6P2339     0.1859
     12  O6         8.8640    6.4720   30.8730 O.3   2339  F6P2339    -0.2675
     13  P          8.9230    5.3390   32.0310 P.3   2339  F6P2339     0.5327
     14  O1P        9.8340    6.0220   33.0760 O.3   2339  F6P2339    -0.1145
     15  O2P        9.5790    4.1070   31.4080 O.2   2339  F6P2339    -0.2224
     16  O3P        7.5110    5.0920   32.4920 O.3   2339  F6P2339    -0.1145
@<TRIPOS>BOND
     1     6     5    1
     2     4     3    1
     3     2     1    1
     4     2     3    1
     5     5     3    1
     6     5     7    1
     7     3    10    1
     8     7     8    1
     9     7     9    1
    10    10     9    1
    11     9    11    1
    12    11    12    1
    13    12    13    1
    14    15    13    2
    15    13    16    1
    16    13    14    1
