@<TRIPOS>MOLECULE
1nuy_F6P_A_1.pdb
 16 16 0 0 0
SMALL
GASTEIGER

@<TRIPOS>ATOM
      1  O1         9.6460    9.8920   25.3680 O.3   2339  F6P2339    -0.2148
      2  C1         9.8300    9.6120   26.8010 C.3   2339  F6P2339     0.2434
      3  C2         8.8930    8.4450   27.1520 C.3   2339  F6P2339     0.2807
      4  O2         9.2730    7.3590   26.3590 O.3   2339  F6P2339    -0.1896
      5  C3         7.3990    8.7060   26.9850 C.3   2339  F6P2339     0.2409
      6  O3         6.8840    8.4300   25.6950 O.3   2339  F6P2339    -0.2149
      7  C4         6.7200    7.8240   28.0410 C.3   2339  F6P2339     0.2167
      8  O4         5.5850    8.5060   28.5430 O.3   2339  F6P2339    -0.2175
      9  C5         7.7720    7.7760   29.1560 C.3   2339  F6P2339     0.1808
     10  O5         9.0180    8.0830   28.5380 O.3   2339  F6P2339    -0.3254
     11  C6         7.8720    6.3990   29.7920 C.3   2339  F6P2339     0.1859
     12  O6         8.8620    6.5010   30.8450 O.3   2339  F6P2339    -0.2675
     13  P          8.9170    5.3830   31.9960 P.3   2339  F6P2339     0.5327
     14  O1P        9.7890    5.9860   33.0810 O.3   2339  F6P2339    -0.1145
     15  O2P        9.5790    4.1450   31.4180 O.2   2339  F6P2339    -0.2224
     16  O3P        7.5190    5.1230   32.5100 O.3   2339  F6P2339    -0.1145
@<TRIPOS>BOND
     1     1     2    1
     2     6     5    1
     3     4     3    1
     4     2     3    1
     5     5     3    1
     6     5     7    1
     7     3    10    1
     8     7     8    1
     9     7     9    1
    10    10     9    1
    11     9    11    1
    12    11    12    1
    13    12    13    1
    14    15    13    2
    15    13    16    1
    16    13    14    1
