@<TRIPOS>MOLECULE
1nuz_F6P_A_1.pdb
 16 16 0 0 0
SMALL
GASTEIGER

@<TRIPOS>ATOM
      1  O1         9.6360    9.7350   25.5460 O.3   2339  F6P2339    -0.2148
      2  C1         9.7590    9.6850   26.9630 C.3   2339  F6P2339     0.2434
      3  C2         8.8820    8.4620   27.1890 C.3   2339  F6P2339     0.2807
      4  O2         9.3480    7.4160   26.3550 O.3   2339  F6P2339    -0.1896
      5  C3         7.4180    8.7720   26.9880 C.3   2339  F6P2339     0.2409
      6  O3         6.9580    8.6000   25.6700 O.3   2339  F6P2339    -0.2149
      7  C4         6.7150    7.8630   27.9920 C.3   2339  F6P2339     0.2167
      8  O4         5.4940    8.4490   28.4150 O.3   2339  F6P2339    -0.2175
      9  C5         7.6990    7.8000   29.1420 C.3   2339  F6P2339     0.1808
     10  O5         9.0120    8.0330   28.5460 O.3   2339  F6P2339    -0.3254
     11  C6         7.7500    6.4400   29.8100 C.3   2339  F6P2339     0.1859
     12  O6         8.8420    6.5020   30.7600 O.3   2339  F6P2339    -0.2675
     13  P          8.8760    5.3950   31.9460 P.3   2339  F6P2339     0.5327
     14  O1P        9.7860    6.0330   32.9840 O.3   2339  F6P2339    -0.1145
     15  O2P        9.5400    4.1650   31.3510 O.2   2339  F6P2339    -0.2224
     16  O3P        7.4710    5.1060   32.4030 O.3   2339  F6P2339    -0.1145
@<TRIPOS>BOND
     1     1     2    1
     2     6     5    1
     3     4     3    1
     4     2     3    1
     5     5     3    1
     6     5     7    1
     7     3    10    1
     8     7     8    1
     9     7     9    1
    10    10     9    1
    11     9    11    1
    12    11    12    1
    13    12    13    1
    14    15    13    2
    15    13    16    1
    16    13    14    1
