@<TRIPOS>MOLECULE
1nv0_F6P_A_1.pdb
 16 16 0 0 0
SMALL
GASTEIGER

@<TRIPOS>ATOM
      1  O1         9.7090   10.0450   25.5870 O.3   2339  F6P2339    -0.2148
      2  C1         9.8350    9.6170   26.9400 C.3   2339  F6P2339     0.2434
      3  C2         8.9570    8.3980   27.1970 C.3   2339  F6P2339     0.2807
      4  O2         9.4140    7.3270   26.4040 O.3   2339  F6P2339    -0.1896
      5  C3         7.4890    8.7010   27.0310 C.3   2339  F6P2339     0.2409
      6  O3         6.9920    8.4750   25.7300 O.3   2339  F6P2339    -0.2149
      7  C4         6.8170    7.8000   28.0700 C.3   2339  F6P2339     0.2167
      8  O4         5.6580    8.4530   28.5510 O.3   2339  F6P2339    -0.2175
      9  C5         7.8460    7.7450   29.1870 C.3   2339  F6P2339     0.1808
     10  O5         9.1260    8.0160   28.5650 O.3   2339  F6P2339    -0.3254
     11  C6         7.9300    6.3980   29.8830 C.3   2339  F6P2339     0.1859
     12  O6         8.9240    6.5280   30.9270 O.3   2339  F6P2339    -0.2675
     13  P          8.9580    5.3960   32.1080 P.3   2339  F6P2339     0.5327
     14  O1P        9.9010    6.0550   33.1180 O.3   2339  F6P2339    -0.1145
     15  O2P        9.6610    4.2080   31.4940 O.2   2339  F6P2339    -0.2224
     16  O3P        7.5770    5.1160   32.5510 O.3   2339  F6P2339    -0.1145
@<TRIPOS>BOND
     1     1     2    1
     2     6     5    1
     3     4     3    1
     4     2     3    1
     5     5     3    1
     6     5     7    1
     7     3    10    1
     8     7     8    1
     9     7     9    1
    10    10     9    1
    11     9    11    1
    12    11    12    1
    13    12    13    1
    14    15    13    2
    15    13    16    1
    16    13    14    1
