@<TRIPOS>MOLECULE
1nv2_F6P_A_1.pdb
 16 16 0 0 0
SMALL
GASTEIGER

@<TRIPOS>ATOM
      1  O1        11.0110    9.5780   26.9590 O.3   2339  F6P2339    -0.2148
      2  C1         9.6100    9.7110   26.9040 C.3   2339  F6P2339     0.2434
      3  C2         8.8350    8.4210   27.1010 C.3   2339  F6P2339     0.2807
      4  O2         9.3000    7.4630   26.1660 O.3   2339  F6P2339    -0.1896
      5  C3         7.3470    8.6990   26.9550 C.3   2339  F6P2339     0.2409
      6  O3         6.9050    8.4060   25.6490 O.3   2339  F6P2339    -0.2149
      7  C4         6.7010    7.7760   27.9750 C.3   2339  F6P2339     0.2167
      8  O4         5.4730    8.3100   28.4530 O.3   2339  F6P2339    -0.2175
      9  C5         7.7410    7.7620   29.0890 C.3   2339  F6P2339     0.1808
     10  O5         9.0290    7.8920   28.4150 O.3   2339  F6P2339    -0.3254
     11  C6         7.7050    6.4560   29.8510 C.3   2339  F6P2339     0.1859
     12  O6         8.9080    6.3690   30.6290 O.3   2339  F6P2339    -0.2675
     13  P          8.9150    5.3470   31.8950 P.3   2339  F6P2339     0.5327
     14  O1P        9.8140    6.0100   32.9080 O.3   2339  F6P2339    -0.1145
     15  O2P        9.5320    4.0690   31.3660 O.2   2339  F6P2339    -0.2224
     16  O3P        7.4790    5.1610   32.3360 O.3   2339  F6P2339    -0.1145
@<TRIPOS>BOND
     1     6     5    1
     2     4     3    1
     3     2     1    1
     4     2     3    1
     5     5     3    1
     6     5     7    1
     7     3    10    1
     8     7     8    1
     9     7     9    1
    10    10     9    1
    11     9    11    1
    12    11    12    1
    13    12    13    1
    14    15    13    2
    15    13    16    1
    16    13    14    1
