@<TRIPOS>MOLECULE
1nv3_F6P_A_1.pdb
 16 16 0 0 0
SMALL
GASTEIGER

@<TRIPOS>ATOM
      1  O1        10.8310    9.6350   27.1060 O.3   2339  F6P2339    -0.2148
      2  C1         9.4870    9.6530   26.6680 C.3   2339  F6P2339     0.2434
      3  C2         8.7300    8.3810   27.0040 C.3   2339  F6P2339     0.2807
      4  O2         9.1710    7.3470   26.1440 O.3   2339  F6P2339    -0.1896
      5  C3         7.2360    8.5990   26.8830 C.3   2339  F6P2339     0.2409
      6  O3         6.7380    8.1990   25.6180 O.3   2339  F6P2339    -0.2149
      7  C4         6.6510    7.7590   28.0090 C.3   2339  F6P2339     0.2167
      8  O4         5.5020    8.4190   28.5280 O.3   2339  F6P2339    -0.2175
      9  C5         7.7470    7.7490   29.0640 C.3   2339  F6P2339     0.1808
     10  O5         8.9960    7.9890   28.3550 O.3   2339  F6P2339    -0.3254
     11  C6         7.8400    6.4230   29.7830 C.3   2339  F6P2339     0.1859
     12  O6         8.8960    6.4740   30.7450 O.3   2339  F6P2339    -0.2675
     13  P          8.9510    5.3920   31.9550 P.3   2339  F6P2339     0.5327
     14  O1P        9.8180    6.0680   32.9890 O.3   2339  F6P2339    -0.1145
     15  O2P        9.6340    4.1890   31.3500 O.2   2339  F6P2339    -0.2224
     16  O3P        7.5460    5.1380   32.4250 O.3   2339  F6P2339    -0.1145
@<TRIPOS>BOND
     1     6     5    1
     2     4     3    1
     3     2     3    1
     4     2     1    1
     5     5     3    1
     6     5     7    1
     7     3    10    1
     8     7     8    1
     9     7     9    1
    10    10     9    1
    11     9    11    1
    12    11    12    1
    13    12    13    1
    14    15    13    2
    15    13    16    1
    16    13    14    1
