@<TRIPOS>MOLECULE
1nv4_F6P_A_1.pdb
 16 16 0 0 0
SMALL
GASTEIGER

@<TRIPOS>ATOM
      1  O1        11.0370    9.2030   27.1130 O.3   2339  F6P2339    -0.2148
      2  C1         9.6980    9.6570   27.0560 C.3   2339  F6P2339     0.2434
      3  C2         8.8670    8.3910   27.2330 C.3   2339  F6P2339     0.2807
      4  O2         9.3570    7.3770   26.3910 O.3   2339  F6P2339    -0.1896
      5  C3         7.3940    8.6730   27.0200 C.3   2339  F6P2339     0.2409
      6  O3         6.9330    8.3970   25.7100 O.3   2339  F6P2339    -0.2149
      7  C4         6.7060    7.8070   28.0670 C.3   2339  F6P2339     0.2167
      8  O4         5.5030    8.4120   28.5150 O.3   2339  F6P2339    -0.2175
      9  C5         7.7070    7.7640   29.2070 C.3   2339  F6P2339     0.1808
     10  O5         9.0120    7.9460   28.5830 O.3   2339  F6P2339    -0.3254
     11  C6         7.7600    6.4080   29.8930 C.3   2339  F6P2339     0.1859
     12  O6         8.8490    6.4980   30.8340 O.3   2339  F6P2339    -0.2675
     13  P          8.9240    5.3990   32.0300 P.3   2339  F6P2339     0.5327
     14  O1P        9.8110    6.0630   33.0600 O.3   2339  F6P2339    -0.1145
     15  O2P        9.5850    4.1800   31.4220 O.2   2339  F6P2339    -0.2224
     16  O3P        7.5150    5.1590   32.5100 O.3   2339  F6P2339    -0.1145
@<TRIPOS>BOND
     1     6     5    1
     2     4     3    1
     3     5     3    1
     4     5     7    1
     5     2     1    1
     6     2     3    1
     7     3    10    1
     8     7     8    1
     9     7     9    1
    10    10     9    1
    11     9    11    1
    12    11    12    1
    13    12    13    1
    14    15    13    2
    15    13    16    1
    16    13    14    1
