@<TRIPOS>MOLECULE
1nv5_F6P_A_1.pdb
 16 16 0 0 0
SMALL
GASTEIGER

@<TRIPOS>ATOM
      1  O1         9.9180    9.8160   25.5350 O.3   2339  F6P2339    -0.2148
      2  C1         9.7750    9.6690   26.9450 C.3   2339  F6P2339     0.2434
      3  C2         8.8970    8.4470   27.1780 C.3   2339  F6P2339     0.2807
      4  O2         9.3470    7.4240   26.3100 O.3   2339  F6P2339    -0.1896
      5  C3         7.4230    8.7740   27.0070 C.3   2339  F6P2339     0.2409
      6  O3         6.9740    8.5100   25.6880 O.3   2339  F6P2339    -0.2149
      7  C4         6.7380    7.9020   28.0520 C.3   2339  F6P2339     0.2167
      8  O4         5.5000    8.4200   28.5020 O.3   2339  F6P2339    -0.2175
      9  C5         7.7600    7.7950   29.1570 C.3   2339  F6P2339     0.1808
     10  O5         9.0610    7.9970   28.5230 O.3   2339  F6P2339    -0.3254
     11  C6         7.7960    6.4140   29.7970 C.3   2339  F6P2339     0.1859
     12  O6         8.8730    6.4500   30.7590 O.3   2339  F6P2339    -0.2675
     13  P          8.8910    5.3430   31.9610 P.3   2339  F6P2339     0.5327
     14  O1P        9.7870    6.0150   32.9880 O.3   2339  F6P2339    -0.1145
     15  O2P        9.6010    4.1520   31.3510 O.2   2339  F6P2339    -0.2224
     16  O3P        7.4990    5.0830   32.4100 O.3   2339  F6P2339    -0.1145
@<TRIPOS>BOND
     1     1     2    1
     2     6     5    1
     3     4     3    1
     4     2     3    1
     5     5     3    1
     6     5     7    1
     7     3    10    1
     8     7     8    1
     9     7     9    1
    10    10     9    1
    11     9    11    1
    12    11    12    1
    13    12    13    1
    14    15    13    2
    15    13    16    1
    16    13    14    1
