@<TRIPOS>MOLECULE
1nv6_F6P_A_1.pdb
 16 16 0 0 0
SMALL
GASTEIGER

@<TRIPOS>ATOM
      1  O1        11.0070    9.3300   26.9800 O.3   2339  F6P2339    -0.2148
      2  C1         9.6410    9.7390   26.9540 C.3   2339  F6P2339     0.2434
      3  C2         8.8390    8.4660   27.1460 C.3   2339  F6P2339     0.2807
      4  O2         9.2400    7.5230   26.1700 O.3   2339  F6P2339    -0.1896
      5  C3         7.3470    8.7370   27.0360 C.3   2339  F6P2339     0.2409
      6  O3         6.8780    8.4020   25.7390 O.3   2339  F6P2339    -0.2149
      7  C4         6.7550    7.7460   28.0360 C.3   2339  F6P2339     0.2167
      8  O4         5.5030    8.2000   28.5110 O.3   2339  F6P2339    -0.2175
      9  C5         7.8000    7.7020   29.1260 C.3   2339  F6P2339     0.1808
     10  O5         9.0720    7.8950   28.4430 O.3   2339  F6P2339    -0.3254
     11  C6         7.7840    6.3970   29.8740 C.3   2339  F6P2339     0.1859
     12  O6         8.9870    6.2740   30.6480 O.3   2339  F6P2339    -0.2675
     13  P          8.9170    5.2750   31.9480 P.3   2339  F6P2339     0.5327
     14  O1P        9.8050    5.9210   32.9820 O.3   2339  F6P2339    -0.1145
     15  O2P        9.5030    3.9840   31.4340 O.2   2339  F6P2339    -0.2224
     16  O3P        7.4730    5.1880   32.3550 O.3   2339  F6P2339    -0.1145
@<TRIPOS>BOND
     1     6     5    1
     2     4     3    1
     3     2     1    1
     4     2     3    1
     5     5     3    1
     6     5     7    1
     7     3    10    1
     8     7     8    1
     9     7     9    1
    10    10     9    1
    11     9    11    1
    12    11    12    1
    13    12    13    1
    14    15    13    2
    15    13    16    1
    16    13    14    1
