@<TRIPOS>MOLECULE
1nv7_AMP_A_1.pdb
 23 25 0 0 0
SMALL
GASTEIGER

@<TRIPOS>ATOM
      1  P         35.4050   90.2790  -13.5910 P.3   3337  AMP3337     0.5327
      2  O1P       36.7830   90.8860  -13.4240 O.3   3337  AMP3337    -0.1145
      3  O2P       35.2270   89.5800  -14.9320 O.2   3337  AMP3337    -0.2224
      4  O3P       35.0090   89.3980  -12.4180 O.3   3337  AMP3337    -0.1145
      5  O5'       34.3510   91.5230  -13.5840 O.3   3337  AMP3337    -0.2675
      6  C5'       34.4330   92.5720  -14.5660 C.3   3337  AMP3337     0.1860
      7  C4'       33.6340   93.7690  -14.1090 C.3   3337  AMP3337     0.1823
      8  O4'       32.2320   93.4010  -13.9670 O.3   3337  AMP3337    -0.3135
      9  C3'       34.0260   94.2990  -12.7390 C.3   3337  AMP3337     0.2184
     10  O3'       35.1250   95.1950  -12.8280 O.3   3337  AMP3337    -0.2174
     11  C2'       32.7480   94.9960  -12.2990 C.3   3337  AMP3337     0.2570
     12  O2'       32.5740   96.2480  -12.9280 O.3   3337  AMP3337    -0.2130
     13  C1'       31.6900   94.0150  -12.8040 C.3   3337  AMP3337     0.3186
     14  N9        31.4280   92.9690  -11.8110 N.pl3 3337  AMP3337    -0.1439
     15  C8        31.8910   91.6770  -11.8100 C.3   3337  AMP3337     0.3377
     16  N7        31.5250   90.9850  -10.7580 N.2   3337  AMP3337    -0.2095
     17  C5        30.7610   91.8800  -10.0190 C.2   3337  AMP3337     0.2526
     18  C6        30.0830   91.7600   -8.7830 C.2   3337  AMP3337     0.4393
     19  N6        30.0870   90.6500   -8.0360 N.pl3 3337  AMP3337     0.2180
     20  N1        29.4000   92.8350   -8.3370 N.2   3337  AMP3337     0.0021
     21  C2        29.4130   93.9520   -9.0760 C.3   3337  AMP3337     0.5254
     22  N3        30.0200   94.1900  -10.2410 N.2   3337  AMP3337    -0.0055
     23  C4        30.6830   93.1010  -10.6630 C.2   3337  AMP3337     0.3518
@<TRIPOS>BOND
     1     3     1    2
     2     6     7    1
     3     6     5    1
     4     7     8    1
     5     7     9    1
     6     8    13    1
     7     1     5    1
     8     1     2    1
     9     1     4    1
    10    12    11    1
    11    10     9    1
    12    13    11    1
    13    13    14    1
    14     9    11    1
    15    14    15    1
    16    14    23    1
    17    15    16    1
    18    16    17    2
    19    23    22    2
    20    23    17    1
    21    22    21    1
    22    17    18    1
    23    21    20    1
    24    18    20    2
    25    18    19    1
