@<TRIPOS>MOLECULE
1nv7_F6P_A_1.pdb
 16 16 0 0 0
SMALL
GASTEIGER

@<TRIPOS>ATOM
      1  O1        44.7570  108.2180   11.3480 O.3   3336  F6P3336    -0.2148
      2  C1        43.4420  108.4770   10.8740 C.3   3336  F6P3336     0.2434
      3  C2        42.5330  108.9020   12.0070 C.3   3336  F6P3336     0.2807
      4  O2        42.7290  108.0690   13.1320 O.3   3336  F6P3336    -0.1896
      5  C3        41.0590  108.9300   11.6090 C.3   3336  F6P3336     0.2409
      6  O3        40.4800  107.6740   11.8900 O.3   3336  F6P3336    -0.2149
      7  C4        40.4940  110.0680   12.4530 C.3   3336  F6P3336     0.2167
      8  O4        39.4710  110.7470   11.7280 O.3   3336  F6P3336    -0.2175
      9  C5        41.6930  110.9910   12.6610 C.3   3336  F6P3336     0.1808
     10  O5        42.8910  110.2060   12.4050 O.3   3336  F6P3336    -0.3254
     11  C6        41.7690  111.5780   14.0540 C.3   3336  F6P3336     0.1859
     12  O6        42.8560  112.5210   14.0810 O.3   3336  F6P3336    -0.2675
     13  P         42.8230  113.8000   15.0960 P.3   3336  F6P3336     0.5327
     14  O1P       43.0670  113.2720   16.4940 O.3   3336  F6P3336    -0.1145
     15  O2P       43.9520  114.7000   14.6090 O.2   3336  F6P3336    -0.2224
     16  O3P       41.4590  114.4490   14.9450 O.3   3336  F6P3336    -0.1145
@<TRIPOS>BOND
     1     2     1    1
     2     2     3    1
     3     5     6    1
     4     5     3    1
     5     5     7    1
     6     8     7    1
     7     3    10    1
     8     3     4    1
     9    10     9    1
    10     7     9    1
    11     9    11    1
    12    11    12    1
    13    12    13    1
    14    15    13    2
    15    16    13    1
    16    13    14    1
