@<TRIPOS>MOLECULE
1nv8_MEQ_A_1.pdb
 10 9 0 0 0
SMALL
GASTEIGER

@<TRIPOS>ATOM
      1  N         13.0150  -28.3640   -6.8290 N.3   400  MEQ400     -0.1245
      2  CA        13.8930  -28.6460   -8.0240 C.3   400  MEQ400      0.1566
      3  CB        14.8280  -29.8570   -7.9700 C.3   400  MEQ400      0.0366
      4  CG        15.9280  -29.8180   -6.9030 C.3   400  MEQ400      0.0888
      5  CD        15.9080  -31.1970   -6.2440 C.2   400  MEQ400      0.2415
      6  OE1       14.8490  -31.9260   -6.3120 O.2   400  MEQ400     -0.2733
      7  NE2       17.1060  -31.5970   -5.6440 N.am  400  MEQ400     -0.2035
      8  CE        17.7800  -32.4000   -6.6920 C.3   400  MEQ400      0.1385
      9  C         12.9680  -28.9420   -9.1720 C.2   400  MEQ400      0.2260
     10  O         13.5160  -29.2520  -10.2410 O.2   400  MEQ400     -0.2867
@<TRIPOS>BOND
     1    10     9    2
     2     9     2    1
     3     2     3    1
     4     2     1    1
     5     3     4    1
     6     4     5    1
     7     8     7    1
     8     6     5    2
     9     5     7   am
