@<TRIPOS>MOLECULE
1nv8_SAM_A_1.pdb
 27 29 0 0 0
SMALL
GASTEIGER

@<TRIPOS>ATOM
      1  N         24.3800  -32.5290   -6.6200 N.3   300  SAM300     -0.1208
      2  CA        24.0130  -32.0680   -7.9790 C.3   300  SAM300      0.1952
      3  C         23.4800  -30.6080   -8.0110 C.2   300  SAM300      0.3819
      4  O         23.3960  -29.9870   -9.1070 O.co2 300  SAM300     -0.2441
      5  OXT       23.0910  -30.0670   -6.9200 O.co2 300  SAM300     -0.2441
      6  CB        22.9750  -33.0170   -8.5630 C.3   300  SAM300      0.0414
      7  CG        21.5420  -32.7960   -8.0640 C.3   300  SAM300      0.0503
      8  SD        20.3080  -33.8770   -8.8360 S.3   300  SAM300     -0.1761
      9  CE        18.8300  -33.1640   -8.0180 C.3   300  SAM300      0.0590
     10  C5'       20.2760  -35.4060   -7.7490 C.3   300  SAM300      0.0806
     11  C4'       21.2630  -36.4950   -8.1520 C.3   300  SAM300      0.1622
     12  O4'       21.1890  -37.7000   -7.3250 O.3   300  SAM300     -0.3153
     13  C3'       21.0550  -36.9690   -9.6280 C.3   300  SAM300      0.2168
     14  O3'       22.3170  -36.8630  -10.3730 O.3   300  SAM300     -0.2175
     15  C2'       20.6430  -38.4570   -9.5030 C.3   300  SAM300      0.2569
     16  O2'       21.2620  -39.3080  -10.4090 O.3   300  SAM300     -0.2130
     17  C1'       21.3280  -38.8680   -8.1530 C.3   300  SAM300      0.3185
     18  N9        20.7340  -39.8050   -7.2170 N.pl3 300  SAM300     -0.1439
     19  C8        19.3890  -40.0770   -6.9690 C.3   300  SAM300      0.3377
     20  N7        19.3200  -40.9940   -5.9870 N.2   300  SAM300     -0.2095
     21  C5        20.5900  -41.2470   -5.5310 C.2   300  SAM300      0.2526
     22  C6        21.1070  -42.0720   -4.5390 C.2   300  SAM300      0.4393
     23  N6        20.3550  -42.7620   -3.7030 N.pl3 300  SAM300      0.2180
     24  N1        22.4470  -42.1220   -4.4090 N.2   300  SAM300      0.0021
     25  C2        23.2800  -41.3960   -5.1960 C.3   300  SAM300      0.5254
     26  N3        22.7820  -40.6090   -6.1800 N.2   300  SAM300     -0.0055
     27  C4        21.4810  -40.5450   -6.3390 C.2   300  SAM300      0.3518
@<TRIPOS>BOND
     1    16    15    1
     2    14    13    1
     3    13    15    1
     4    13    11    1
     5    15    17    1
     6     4     3   ar
     7     8     7    1
     8     8     9    1
     9     8    10    1
    10     6     7    1
    11     6     2    1
    12    17    12    1
    13    17    18    1
    14    11    10    1
    15    11    12    1
    16     3     2    1
    17     3     5   ar
    18     2     1    1
    19    18    19    1
    20    18    27    1
    21    19    20    1
    22    27    26    2
    23    27    21    1
    24    26    25    1
    25    20    21    2
    26    21    22    1
    27    25    24    1
    28    22    24    2
    29    22    23    1
