@<TRIPOS>MOLECULE
1nv9_SAH_A_1.pdb
 26 28 0 0 0
SMALL
GASTEIGER

@<TRIPOS>ATOM
      1  N         24.1460    5.6400   19.2360 N.3   300  SAH300     -0.1208
      2  CA        25.3960    5.9280   18.5580 C.3   300  SAH300      0.1952
      3  CB        25.6600    5.0310   17.3760 C.3   300  SAH300      0.0422
      4  CG        24.5840    5.2130   16.2910 C.3   300  SAH300      0.0597
      5  SD        25.0000    4.1190   14.9340 S.3   300  SAH300     -0.1375
      6  C         25.2790    7.3620   18.1000 C.2   300  SAH300      0.3819
      7  O         26.3000    7.8620   17.6430 O.co2 300  SAH300     -0.2441
      8  OXT       24.1080    7.7720   18.2620 O.co2 300  SAH300     -0.2441
      9  C5'       24.2090    2.5030   15.1860 C.3   300  SAH300      0.0899
     10  C4'       24.7440    1.5340   16.2710 C.3   300  SAH300      0.1630
     11  O4'       23.8220    0.4660   16.3610 O.3   300  SAH300     -0.3153
     12  C3'       26.0520    0.8470   15.8780 C.3   300  SAH300      0.2168
     13  O3'       27.0770    0.9720   16.8240 O.3   300  SAH300     -0.2175
     14  C2'       25.7300   -0.6240   15.6330 C.3   300  SAH300      0.2569
     15  O2'       26.7080   -1.4680   16.1820 O.3   300  SAH300     -0.2130
     16  C1'       24.4730   -0.7960   16.4680 C.3   300  SAH300      0.3185
     17  N9        23.4140   -1.7500   16.1140 N.pl3 300  SAH300     -0.1439
     18  C8        22.8140   -1.9170   14.9040 C.3   300  SAH300      0.3377
     19  N7        21.8480   -2.8500   15.0310 N.2   300  SAH300     -0.2095
     20  C5        21.8190   -3.2500   16.3260 C.2   300  SAH300      0.2526
     21  C6        20.9850   -4.0900   17.0400 C.2   300  SAH300      0.4393
     22  N6        20.0100   -4.7910   16.4990 N.pl3 300  SAH300      0.2180
     23  N1        21.1870   -4.2270   18.3520 N.2   300  SAH300      0.0021
     24  C2        22.1510   -3.5240   19.0110 C.3   300  SAH300      0.5254
     25  N3        22.9290   -2.6900   18.3280 N.2   300  SAH300     -0.0055
     26  C4        22.7750   -2.5500   17.0050 C.2   300  SAH300      0.3518
@<TRIPOS>BOND
     1    18    19    1
     2    18    17    1
     3     5     9    1
     4     5     4    1
     5    19    20    2
     6     9    10    1
     7    14    12    1
     8    14    15    1
     9    14    16    1
    10    12    10    1
    11    12    13    1
    12    17    16    1
    13    17    26    1
    14    10    11    1
    15     4     3    1
    16    20    26    1
    17    20    21    1
    18    11    16    1
    19    22    21    1
    20    26    25    2
    21    21    23    2
    22     3     2    1
    23     7     6   ar
    24     6     8   ar
    25     6     2    1
    26    25    24    1
    27    23    24    1
    28     2     1    1
