@<TRIPOS>MOLECULE
1nva_ADP_A_1.pdb
 27 29 0 0 0
SMALL
GASTEIGER

@<TRIPOS>ATOM
      1  PB       -49.0760   94.9040  259.6920 P.3   1400  ADP1400     0.5373
      2  O1B      -49.9150   93.7160  259.5540 O.3   1400  ADP1400    -0.1143
      3  O2B      -49.6570   96.1900  260.3050 O.3   1400  ADP1400    -0.1143
      4  O3B      -48.2340   95.1900  258.3170 O.2   1400  ADP1400    -0.2221
      5  PA       -46.5000   93.7750  260.5360 P.3   1400  ADP1400     0.2231
      6  O1A      -46.7470   92.4240  259.9100 O.2   1400  ADP1400    -0.5169
      7  O2A      -45.4150   94.6560  259.9390 O.3   1400  ADP1400    -0.4370
      8  O3A      -47.8520   94.6120  260.6580 O.3   1400  ADP1400    -0.2261
      9  O5'      -46.2140   93.5310  262.1120 O.3   1400  ADP1400    -0.3111
     10  C5'      -45.7850   94.7170  262.9160 C.3   1400  ADP1400     0.1813
     11  C4'      -44.6270   94.3320  263.8950 C.3   1400  ADP1400     0.1821
     12  O4'      -45.0810   93.5350  265.0210 O.3   1400  ADP1400    -0.3135
     13  C3'      -43.5040   93.4770  263.3320 C.3   1400  ADP1400     0.2184
     14  O3'      -42.1910   93.9200  263.8090 O.3   1400  ADP1400    -0.2174
     15  C2'      -43.7890   92.0290  263.7790 C.3   1400  ADP1400     0.2570
     16  O2'      -42.6210   91.1760  263.8590 O.3   1400  ADP1400    -0.2130
     17  C1'      -44.4560   92.2170  265.0830 C.3   1400  ADP1400     0.3186
     18  N9       -45.6110   91.3210  265.4590 N.pl3 1400  ADP1400    -0.1439
     19  C8       -46.6520   90.9140  264.6030 C.3   1400  ADP1400     0.3377
     20  N7       -47.6690   90.4170  265.3000 N.2   1400  ADP1400    -0.2095
     21  C5       -47.1810   90.2210  266.5810 C.2   1400  ADP1400     0.2526
     22  C6       -47.7390   89.6200  267.7850 C.2   1400  ADP1400     0.4393
     23  N6       -48.9300   89.0150  267.8770 N.pl3 1400  ADP1400     0.2180
     24  N1       -46.9460   89.6940  268.9570 N.2   1400  ADP1400     0.0021
     25  C2       -45.6320   90.1730  268.8640 C.3   1400  ADP1400     0.5254
     26  N3       -44.9940   90.7090  267.7730 N.2   1400  ADP1400    -0.0055
     27  C4       -45.8770   90.7440  266.6680 C.2   1400  ADP1400     0.3518
@<TRIPOS>BOND
     1     4     1    2
     2     2     1    1
     3     1     3    1
     4     1     8    1
     5     6     5    2
     6     7     5    1
     7     5     8    1
     8     5     9    1
     9     9    10    1
    10    10    11    1
    11    13    15    1
    12    13    14    1
    13    13    11    1
    14    15    16    1
    15    15    17    1
    16    11    12    1
    17    19    20    1
    18    19    18    1
    19    12    17    1
    20    17    18    1
    21    20    21    2
    22    18    27    1
    23    21    27    1
    24    21    22    1
    25    27    26    2
    26    26    25    1
    27    22    23    1
    28    22    24    2
    29    25    24    1
