@<TRIPOS>MOLECULE
1nvb_CRB_A_1.pdb
 17 17 0 0 0
SMALL
GASTEIGER

@<TRIPOS>ATOM
      1  C1        81.7810   43.5040   19.0940 C.2   500  CRB500      0.3917
      2  O11       81.4890   42.5520   18.2760 O.co2 500  CRB500     -0.2429
      3  O12       81.3990   44.6810   18.9890 O.co2 500  CRB500     -0.2429
      4  C2        82.6870   43.1080   20.2720 C.3   500  CRB500      0.2215
      5  O2        83.1770   41.7860   20.0590 O.3   500  CRB500     -0.2140
      6  C3        83.8990   44.0610   20.4550 C.3   500  CRB500      0.0771
      7  C4        84.5970   43.9560   21.8130 C.3   500  CRB500      0.1851
      8  O4        85.5590   45.0280   21.9780 O.3   500  CRB500     -0.2203
      9  C5        83.5560   44.0080   22.9700 C.3   500  CRB500      0.1827
     10  O5        84.1970   43.9890   24.1940 O.3   500  CRB500     -0.2204
     11  C6        82.5920   42.8370   22.7830 C.3   500  CRB500      0.0433
     12  C7        81.6580   42.5340   23.9360 C.3   500  CRB500      0.0616
     13  C8        81.7420   43.0980   21.5080 C.3   500  CRB500      0.0447
     14  P1        80.9560   40.8740   23.9630 P.3   500  CRB500      0.1173
     15  O91       80.1520   40.5950   22.7500 O.2   500  CRB500     -0.4601
     16  O92       80.1080   40.8320   25.2280 O.3   500  CRB500     -0.3571
     17  O93       82.1490   39.8460   24.0750 O.3   500  CRB500     -0.3571
@<TRIPOS>BOND
     1     2     1   ar
     2     3     1   ar
     3     1     4    1
     4     5     4    1
     5     4     6    1
     6     4    13    1
     7     6     7    1
     8    13    11    1
     9     7     8    1
    10     7     9    1
    11    15    14    2
    12    11     9    1
    13    11    12    1
    14     9    10    1
    15    12    14    1
    16    14    17    1
    17    14    16    1
