@<TRIPOS>MOLECULE
1nvb_NAD_A_1.pdb
 44 48 0 0 0
SMALL
GASTEIGER

@<TRIPOS>ATOM
      1  PA        82.6410   53.6360   31.6000 P.3   400  NAD400      0.2189
      2  O1A       81.4010   53.9290   30.8650 O.2   400  NAD400     -0.5170
      3  O2A       82.5390   53.0650   32.9600 O.3   400  NAD400     -0.4371
      4  O5B       83.4810   55.0310   31.6370 O.3   400  NAD400     -0.3112
      5  C5B       84.7700   55.0750   32.3760 C.3   400  NAD400      0.1813
      6  C4B       84.8740   56.3890   33.1610 C.3   400  NAD400      0.1821
      7  O4B       84.9240   57.5740   32.3240 O.3   400  NAD400     -0.3135
      8  C3B       83.7490   56.7200   34.1610 C.3   400  NAD400      0.2184
      9  O3B       84.2410   56.8350   35.5300 O.3   400  NAD400     -0.2174
     10  C2B       83.1440   58.0870   33.7180 C.3   400  NAD400      0.2570
     11  O2B       82.6800   58.8770   34.8240 O.3   400  NAD400     -0.2130
     12  C1B       84.2980   58.6980   32.9990 C.3   400  NAD400      0.3186
     13  N9A       84.0980   59.6160   31.8590 N.pl3 400  NAD400     -0.1439
     14  C8A       83.1960   59.4170   30.8100 C.3   400  NAD400      0.3377
     15  N7A       83.4400   60.2710   29.8250 N.2   400  NAD400     -0.2095
     16  C5A       84.3290   61.2070   30.3540 C.2   400  NAD400      0.2526
     17  C6A       84.8540   62.4460   29.8510 C.2   400  NAD400      0.4393
     18  N6A       84.4750   63.0370   28.7200 N.pl3 400  NAD400      0.2180
     19  N1A       85.8400   63.0750   30.6280 N.2   400  NAD400      0.0021
     20  C2A       86.0510   62.6090   31.9130 C.3   400  NAD400      0.5254
     21  N3A       85.6410   61.4580   32.4840 N.2   400  NAD400     -0.0055
     22  C4A       84.7430   60.8000   31.6140 C.2   400  NAD400      0.3518
     23  O3        83.6440   52.6550   30.7710 O.3   400  NAD400     -0.2703
     24  PN        84.2490   52.5090   29.2740 P.3   400  NAD400      0.2189
     25  O1N       83.7030   53.4970   28.3650 O.2   400  NAD400     -0.5170
     26  O2N       85.7290   52.4100   29.5570 O.3   400  NAD400     -0.4371
     27  O5D       83.6220   51.0390   28.8980 O.3   400  NAD400     -0.3112
     28  C5D       83.6900   49.8810   29.7380 C.3   400  NAD400      0.1813
     29  C4D       82.5480   48.9020   29.3870 C.3   400  NAD400      0.1799
     30  O4D       82.3830   48.8160   27.9350 O.3   400  NAD400     -0.3327
     31  C3D       82.7780   47.4290   29.8600 C.3   400  NAD400      0.2158
     32  O3D       81.6890   47.0860   30.7010 O.3   400  NAD400     -0.2175
     33  C2D       82.8510   46.6220   28.5520 C.3   400  NAD400      0.2309
     34  O2D       82.4510   45.2270   28.6610 O.3   400  NAD400     -0.2158
     35  C1D       81.9780   47.4450   27.6360 C.3   400  NAD400      0.2263
     36  N1N       82.2060   47.3090   26.1990 N.pl3 400  NAD400     -0.2787
     37  C2N       81.0360   46.9760   25.5280 C.3   400  NAD400      0.1244
     38  C3N       81.0150   46.9990   24.1390 C.2   400  NAD400      0.0544
     39  C7N       79.7050   46.7730   23.3300 C.2   400  NAD400      0.2818
     40  O7N       79.6430   47.0970   22.1340 O.2   400  NAD400     -0.2670
     41  N7N       78.6440   46.2120   23.9880 N.am  400  NAD400     -0.0839
     42  C4N       82.2090   47.2260   23.3470 C.2   400  NAD400      0.0033
     43  C5N       83.3710   47.5350   24.1390 C.2   400  NAD400      0.0157
     44  C6N       83.4620   47.5070   25.5120 C.2   400  NAD400      0.0633
@<TRIPOS>BOND
     1    40    39    2
     2    39    41   am
     3    39    38    1
     4    42    43    1
     5    42    38    2
     6    43    44    2
     7    38    37    1
     8    44    36    1
     9    37    36    1
    10    36    35    1
    11    35    30    1
    12    35    33    1
    13    30    29    1
    14    25    24    2
    15    33    34    1
    16    33    31    1
    17    18    17    1
    18    27    24    1
    19    27    28    1
    20    24    26    1
    21    24    23    1
    22    29    28    1
    23    29    31    1
    24    15    16    2
    25    15    14    1
    26    17    16    1
    27    17    19    2
    28    31    32    1
    29    16    22    1
    30    19    20    1
    31    23     1    1
    32    14    13    1
    33     2     1    2
    34     1     4    1
    35     1     3    1
    36    22    13    1
    37    22    21    2
    38     4     5    1
    39    13    12    1
    40    20    21    1
    41     7    12    1
    42     7     6    1
    43     5     6    1
    44    12    10    1
    45     6     8    1
    46    10     8    1
    47    10    11    1
    48     8     9    1
