@<TRIPOS>MOLECULE
1nvd_CRB_A_1.pdb
 17 17 0 0 0
SMALL
GASTEIGER

@<TRIPOS>ATOM
      1  C1        30.9680   41.1990   86.4420 C.2   500  CRB500      0.3917
      2  O11       29.8480   41.6230   85.9380 O.co2 500  CRB500     -0.2429
      3  O12       31.0810   40.1640   87.1390 O.co2 500  CRB500     -0.2429
      4  C2        32.2310   42.0710   86.1270 C.3   500  CRB500      0.2215
      5  O2        31.8320   43.3990   85.8100 O.3   500  CRB500     -0.2140
      6  C3        33.2610   42.1620   87.2810 C.3   500  CRB500      0.0771
      7  C4        34.6110   42.7740   86.8720 C.3   500  CRB500      0.1851
      8  O4        35.5780   42.6710   87.9470 O.3   500  CRB500     -0.2203
      9  C5        35.1870   42.0690   85.6060 C.3   500  CRB500      0.1827
     10  O5        36.3830   42.6680   85.2760 O.3   500  CRB500     -0.2204
     11  C6        34.1540   42.1710   84.4750 C.3   500  CRB500      0.0433
     12  C7        34.5950   41.6530   83.1230 C.3   500  CRB500      0.0616
     13  C8        32.8470   41.4120   84.8700 C.3   500  CRB500      0.0447
     14  P1        33.7040   42.3110   81.6990 P.3   500  CRB500      0.1173
     15  O91       32.2580   41.9640   81.7520 O.3   500  CRB500     -0.3571
     16  O92       34.4120   41.7050   80.4920 O.2   500  CRB500     -0.4601
     17  O93       33.9030   43.8680   81.6910 O.3   500  CRB500     -0.3571
@<TRIPOS>BOND
     1    16    14    2
     2    17    14    1
     3    14    15    1
     4    14    12    1
     5    12    11    1
     6    11    13    1
     7    11     9    1
     8    13     4    1
     9    10     9    1
    10     9     7    1
    11     5     4    1
    12     2     1   ar
    13     4     1    1
    14     4     6    1
    15     1     3   ar
    16     7     6    1
    17     7     8    1
