@<TRIPOS>MOLECULE
1nve_NAD_A_1.pdb
 44 48 0 0 0
SMALL
GASTEIGER

@<TRIPOS>ATOM
      1  PA        21.6340  -70.6220  127.4060 P.3   400  NAD400      0.2189
      2  O1A       22.7390  -69.7590  126.9570 O.3   400  NAD400     -0.4371
      3  O2A       20.4790  -70.7760  126.5080 O.2   400  NAD400     -0.5170
      4  O5B       21.1650  -70.0290  128.8440 O.3   400  NAD400     -0.3112
      5  C5B       20.0750  -70.6960  129.6090 C.3   400  NAD400      0.1813
      6  C4B       19.2500  -69.6230  130.3390 C.3   400  NAD400      0.1821
      7  O4B       19.8980  -69.0430  131.4470 O.3   400  NAD400     -0.3135
      8  C3B       18.7950  -68.4140  129.5230 C.3   400  NAD400      0.2184
      9  O3B       17.6140  -68.1520  129.6980 O.3   400  NAD400     -0.2174
     10  C2B       19.6690  -67.2280  129.9810 C.3   400  NAD400      0.2570
     11  O2B       19.0610  -65.9480  129.7620 O.3   400  NAD400     -0.2130
     12  C1B       19.8540  -67.5650  131.4140 C.3   400  NAD400      0.3186
     13  N9A       21.1120  -67.2440  132.0900 N.pl3 400  NAD400     -0.1439
     14  C8A       22.3860  -67.4770  131.5660 C.3   400  NAD400      0.3377
     15  N7A       23.3080  -67.2410  132.4690 N.2   400  NAD400     -0.2095
     16  C5A       22.6420  -66.6690  133.5360 C.2   400  NAD400      0.2526
     17  C6A       23.1030  -66.1080  134.7520 C.2   400  NAD400      0.4393
     18  N6A       24.3760  -66.0670  135.1290 N.pl3 400  NAD400      0.2180
     19  N1A       22.1300  -65.5660  135.6110 N.2   400  NAD400      0.0021
     20  C2A       20.8020  -65.6390  135.2340 C.3   400  NAD400      0.5254
     21  N3A       20.2520  -66.2350  134.1650 N.2   400  NAD400     -0.0055
     22  C4A       21.2790  -66.6850  133.3120 C.2   400  NAD400      0.3518
     23  O3        22.1390  -72.1180  127.8260 O.3   400  NAD400     -0.2703
     24  PN        23.5080  -72.9530  127.7000 P.3   400  NAD400      0.2189
     25  O1N       24.5960  -72.2460  128.3300 O.3   400  NAD400     -0.4371
     26  O2N       23.0960  -74.3450  128.1120 O.2   400  NAD400     -0.5170
     27  O5D       23.6960  -72.8670  126.1100 O.3   400  NAD400     -0.3112
     28  C5D       23.2730  -73.8680  125.2360 C.3   400  NAD400      0.1813
     29  C4D       23.7420  -73.5120  123.8360 C.3   400  NAD400      0.1799
     30  O4D       25.1670  -73.7760  123.7240 O.3   400  NAD400     -0.3327
     31  C3D       23.0500  -74.3350  122.7430 C.3   400  NAD400      0.2158
     32  O3D       22.5860  -73.4260  121.7760 O.3   400  NAD400     -0.2175
     33  C2D       24.1250  -75.2960  122.2620 C.3   400  NAD400      0.2309
     34  O2D       23.9590  -75.7210  120.9000 O.3   400  NAD400     -0.2158
     35  C1D       25.4000  -74.5310  122.5000 C.3   400  NAD400      0.2263
     36  N1N       26.5850  -75.3250  122.7980 N.pl3 400  NAD400     -0.2787
     37  C2N       27.7040  -74.8350  122.1500 C.3   400  NAD400      0.1244
     38  C3N       28.8570  -75.6110  122.1150 C.2   400  NAD400      0.0544
     39  C7N       30.1600  -75.1210  121.4390 C.2   400  NAD400      0.2818
     40  O7N       30.2930  -73.9240  121.1800 O.2   400  NAD400     -0.2670
     41  N7N       31.1250  -76.0350  121.1440 N.am  400  NAD400     -0.0839
     42  C4N       28.9300  -76.9290  122.7090 C.2   400  NAD400      0.0033
     43  C5N       27.7900  -77.2460  123.5150 C.2   400  NAD400      0.0157
     44  C6N       26.6430  -76.4900  123.6460 C.2   400  NAD400      0.0633
@<TRIPOS>BOND
     1    34    33    1
     2    41    39   am
     3    40    39    2
     4    39    38    1
     5    32    31    1
     6    38    37    1
     7    38    42    2
     8    37    36    1
     9    33    35    1
    10    33    31    1
    11    35    36    1
    12    35    30    1
    13    42    43    1
    14    31    29    1
    15    36    44    1
    16    43    44    2
    17    30    29    1
    18    29    28    1
    19    28    27    1
    20    27    24    1
    21     3     1    2
    22     2     1    1
    23     1    23    1
    24     1     4    1
    25    24    23    1
    26    24    26    2
    27    24    25    1
    28     4     5    1
    29     8     9    1
    30     8    10    1
    31     8     6    1
    32     5     6    1
    33    11    10    1
    34    10    12    1
    35     6     7    1
    36    12     7    1
    37    12    13    1
    38    14    13    1
    39    14    15    1
    40    13    22    1
    41    15    16    2
    42    22    16    1
    43    22    21    2
    44    16    17    1
    45    21    20    1
    46    17    18    1
    47    17    19    2
    48    20    19    1
