@<TRIPOS>MOLECULE
1nvf_ADP_A_1.pdb
 27 29 0 0 0
SMALL
GASTEIGER

@<TRIPOS>ATOM
      1  PB        74.4510  -88.3540   18.9000 P.3   400  ADP400      0.5373
      2  O1B       73.4940  -88.6420   19.9580 O.3   400  ADP400     -0.1143
      3  O2B       75.5640  -89.3750   18.6110 O.2   400  ADP400     -0.2221
      4  O3B       75.0450  -86.8380   19.0350 O.3   400  ADP400     -0.1143
      5  PA        72.2000  -88.1720   16.9900 P.3   400  ADP400      0.2231
      6  O1A       71.3190  -87.6220   18.0670 O.3   400  ADP400     -0.4370
      7  O2A       72.1190  -87.5380   15.6260 O.2   400  ADP400     -0.5169
      8  O3A       73.7240  -88.2180   17.4750 O.3   400  ADP400     -0.2261
      9  O5'       71.8720  -89.7530   16.8630 O.3   400  ADP400     -0.3111
     10  C5'       72.4360  -90.4550   15.6810 C.3   400  ADP400      0.1813
     11  C4'       71.3560  -91.3540   15.0030 C.3   400  ADP400      0.1821
     12  O4'       70.8030  -92.3400   15.9010 O.3   400  ADP400     -0.3135
     13  C3'       70.1020  -90.6610   14.4610 C.3   400  ADP400      0.2184
     14  O3'       69.8860  -90.9910   13.0470 O.3   400  ADP400     -0.2174
     15  C2'       68.9110  -91.1470   15.3090 C.3   400  ADP400      0.2570
     16  O2'       67.6480  -91.1630   14.6170 O.3   400  ADP400     -0.2130
     17  C1'       69.3670  -92.4890   15.7340 C.3   400  ADP400      0.3186
     18  N9        68.9660  -93.0440   17.0750 N.pl3 400  ADP400     -0.1439
     19  C8        68.9990  -92.3570   18.2950 C.3   400  ADP400      0.3377
     20  N7        69.1090  -93.2240   19.2940 N.2   400  ADP400     -0.2095
     21  C5        68.6700  -94.4340   18.7730 C.2   400  ADP400      0.2526
     22  C6        68.3460  -95.7310   19.3590 C.2   400  ADP400      0.4393
     23  N6        68.5540  -96.0880   20.6500 N.pl3 400  ADP400      0.2180
     24  N1        67.7550  -96.6890   18.4800 N.2   400  ADP400      0.0021
     25  C2        67.5950  -96.3670   17.1190 C.3   400  ADP400      0.5254
     26  N3        68.0220  -95.2470   16.4530 N.2   400  ADP400     -0.0055
     27  C4        68.5240  -94.2990   17.3800 C.2   400  ADP400      0.3518
@<TRIPOS>BOND
     1    14    13    1
     2    13    11    1
     3    13    15    1
     4    16    15    1
     5    11    10    1
     6    11    12    1
     7    15    17    1
     8     7     5    2
     9    10     9    1
    10    17    12    1
    11    17    18    1
    12    26    25    1
    13    26    27    2
    14     9     5    1
    15     5     8    1
    16     5     6    1
    17    18    27    1
    18    18    19    1
    19    25    24    1
    20    27    21    1
    21     8     1    1
    22    19    20    1
    23    24    22    2
    24     3     1    2
    25    21    20    2
    26    21    22    1
    27     1     4    1
    28     1     2    1
    29    22    23    1
