@<TRIPOS>MOLECULE
1nvf_CRB_A_1.pdb
 17 17 0 0 0
SMALL
GASTEIGER

@<TRIPOS>ATOM
      1  C1        80.2910  -79.3480   27.8960 C.2   500  CRB500      0.3917
      2  O11       80.8930  -78.3720   28.4740 O.co2 500  CRB500     -0.2429
      3  O12       79.2740  -79.9100   28.3360 O.co2 500  CRB500     -0.2429
      4  C2        80.9310  -79.8070   26.5660 C.3   500  CRB500      0.2215
      5  O2        82.2420  -79.2790   26.4960 O.3   500  CRB500     -0.2140
      6  C3        81.0200  -81.3460   26.3890 C.3   500  CRB500      0.0771
      7  C4        81.3750  -81.7910   24.9570 C.3   500  CRB500      0.1851
      8  O4        81.2970  -83.2300   24.8520 O.3   500  CRB500     -0.2203
      9  C5        80.4140  -81.1010   23.8980 C.3   500  CRB500      0.1827
     10  O5        80.7210  -81.5170   22.6100 O.3   500  CRB500     -0.2204
     11  C6        80.5550  -79.5790   24.0450 C.3   500  CRB500      0.0433
     12  C7        79.8480  -78.7080   23.0030 C.3   500  CRB500      0.0616
     13  C8        80.0550  -79.1490   25.4650 C.3   500  CRB500      0.0447
     14  P1        80.4820  -77.0030   22.8010 P.3   500  CRB500      0.1173
     15  O91       80.1710  -76.1380   23.9680 O.3   500  CRB500     -0.3571
     16  O92       79.8440  -76.4890   21.5230 O.2   500  CRB500     -0.4601
     17  O93       82.0480  -77.1100   22.6160 O.3   500  CRB500     -0.3571
@<TRIPOS>BOND
     1    16    14    2
     2    10     9    1
     3    17    14    1
     4    14    12    1
     5    14    15    1
     6    12    11    1
     7     9    11    1
     8     9     7    1
     9    11    13    1
    10     8     7    1
    11     7     6    1
    12    13     4    1
    13     6     4    1
    14     5     4    1
    15     4     1    1
    16     1     3   ar
    17     1     2   ar
