@<TRIPOS>MOLECULE
1nvk_UDP_A_1.pdb
 25 26 0 0 0
SMALL
GASTEIGER

@<TRIPOS>ATOM
      1  N1        13.5510   -3.6560   26.2780 N.am  700  UDP700     -0.1766
      2  C2        12.9820   -4.8010   26.8040 C.1   700  UDP700      0.2845
      3  N3        13.6070   -5.3000   27.9230 N.2   700  UDP700     -0.2452
      4  C4        14.7140   -4.7750   28.5600 C.1   700  UDP700      0.2182
      5  C5        15.2240   -3.5710   27.9730 C.2   700  UDP700      0.1242
      6  C6        14.6390   -3.0660   26.8790 C.2   700  UDP700      0.0929
      7  O2        11.9950   -5.3340   26.3190 O.2   700  UDP700     -0.1918
      8  O4        15.2070   -5.3780   29.5170 O.2   700  UDP700     -0.2085
      9  C1'       12.9630   -3.1030   25.0480 C.3   700  UDP700      0.2401
     10  C2'       11.8880   -2.0380   25.2920 C.3   700  UDP700      0.2319
     11  O2'       10.8540   -2.1820   24.3400 O.3   700  UDP700     -0.2157
     12  C3'       12.6770   -0.7500   25.0800 C.3   700  UDP700      0.2158
     13  C4'       13.6240   -1.1360   23.9560 C.3   700  UDP700      0.1799
     14  O4'       13.9960   -2.5050   24.2760 O.3   700  UDP700     -0.3320
     15  O3'       11.8350    0.3190   24.6610 O.3   700  UDP700     -0.2175
     16  C5'       14.8500   -0.2570   23.8270 C.3   700  UDP700      0.1813
     17  O5'       15.6770   -0.6930   22.7470 O.3   700  UDP700     -0.3111
     18  PA        17.0460    0.0580   22.4210 P.3   700  UDP700      0.2231
     19  O1A       17.9780   -0.1900   23.5480 O.3   700  UDP700     -0.4370
     20  O2A       17.4600   -0.2990   21.0360 O.2   700  UDP700     -0.5169
     21  O3A       16.6520    1.6390   22.5040 O.3   700  UDP700     -0.2261
     22  PB        15.8300    2.5900   21.4670 P.3   700  UDP700      0.5373
     23  O1B       14.5870    1.8140   21.0680 O.3   700  UDP700     -0.1143
     24  O2B       16.7600    2.8710   20.2980 O.2   700  UDP700     -0.2221
     25  O3B       15.5190    3.8420   22.2700 O.3   700  UDP700     -0.1143
@<TRIPOS>BOND
     1    24    22    2
     2    20    18    2
     3    23    22    1
     4    22    25    1
     5    22    21    1
     6    18    21    1
     7    18    17    1
     8    18    19    1
     9    17    16    1
    10    16    13    1
    11    13    14    1
    12    13    12    1
    13    14     9    1
    14    11    10    1
    15    15    12    1
    16     9    10    1
    17     9     1    1
    18    12    10    1
    19     1     2   am
    20     1     6    1
    21     7     2    2
    22     2     3    2
    23     6     5    2
    24     3     4    2
    25     5     4    1
    26     4     8    2
