@<TRIPOS>MOLECULE
1nvm_NAD_B_1.pdb
 44 48 0 0 0
SMALL
GASTEIGER

@<TRIPOS>ATOM
      1  PA        59.3930   -6.5260  -67.3070 P.3   3501  NAD3501     0.2189
      2  O1A       59.7380   -5.1010  -67.3070 O.2   3501  NAD3501    -0.5170
      3  O2A       60.3760   -7.4120  -66.6810 O.3   3501  NAD3501    -0.4371
      4  O5B       59.2040   -6.9540  -68.8490 O.3   3501  NAD3501    -0.3112
      5  C5B       58.6170   -6.1770  -69.9120 C.3   3501  NAD3501     0.1813
      6  C4B       59.4030   -6.5180  -71.2030 C.3   3501  NAD3501     0.1821
      7  O4B       58.7040   -5.8790  -72.2880 O.3   3501  NAD3501    -0.3135
      8  C3B       60.8250   -5.9560  -71.1810 C.3   3501  NAD3501     0.2184
      9  O3B       61.7500   -6.8360  -71.7990 O.3   3501  NAD3501    -0.2174
     10  C2B       60.6870   -4.6720  -72.0190 C.3   3501  NAD3501     0.2570
     11  O2B       61.9490   -4.2740  -72.5530 O.3   3501  NAD3501    -0.2130
     12  C1B       59.7100   -5.1860  -73.0690 C.3   3501  NAD3501     0.3186
     13  N9A       58.9480   -4.2280  -73.8580 N.pl3 3501  NAD3501    -0.1439
     14  C8A       58.3610   -3.0530  -73.5370 C.3   3501  NAD3501     0.3377
     15  N7A       57.7060   -2.4900  -74.5590 N.2   3501  NAD3501    -0.2095
     16  C5A       57.8700   -3.3770  -75.5880 C.2   3501  NAD3501     0.2526
     17  C6A       57.4320   -3.3780  -76.9350 C.2   3501  NAD3501     0.4393
     18  N6A       56.6960   -2.4130  -77.4700 N.pl3 3501  NAD3501     0.2180
     19  N1A       57.7850   -4.4420  -77.6710 N.2   3501  NAD3501     0.0021
     20  C2A       58.5430   -5.4420  -77.1530 C.3   3501  NAD3501     0.5254
     21  N3A       58.9960   -5.5350  -75.9250 N.2   3501  NAD3501    -0.0055
     22  C4A       58.6370   -4.4550  -75.2050 C.2   3501  NAD3501     0.3518
     23  O3        57.9210   -6.7040  -66.6800 O.3   3501  NAD3501    -0.2703
     24  PN        57.2220   -8.0200  -66.1470 P.3   3501  NAD3501     0.2189
     25  O1N       57.4070   -8.1550  -64.6820 O.3   3501  NAD3501    -0.4371
     26  O2N       57.7420   -9.2320  -66.8570 O.2   3501  NAD3501    -0.5170
     27  O5D       55.6940   -7.7410  -66.4750 O.3   3501  NAD3501    -0.3112
     28  C5D       55.2600   -7.7320  -67.8760 C.3   3501  NAD3501     0.1813
     29  C4D       53.7420   -7.6600  -67.8680 C.3   3501  NAD3501     0.1799
     30  O4D       53.2690   -8.8590  -67.1920 O.3   3501  NAD3501    -0.3327
     31  C3D       53.1650   -6.4710  -67.1020 C.3   3501  NAD3501     0.2158
     32  O3D       52.0020   -5.9170  -67.7040 O.3   3501  NAD3501    -0.2175
     33  C2D       52.8550   -7.0840  -65.7290 C.3   3501  NAD3501     0.2309
     34  O2D       51.7800   -6.3850  -65.0880 O.3   3501  NAD3501    -0.2158
     35  C1D       52.3900   -8.4820  -66.1450 C.3   3501  NAD3501     0.2263
     36  N1N       52.5630   -9.4860  -65.0810 N.pl3 3501  NAD3501    -0.2787
     37  C2N       53.6360   -9.4550  -64.2720 C.3   3501  NAD3501     0.1244
     38  C3N       53.7670  -10.3900  -63.2810 C.2   3501  NAD3501     0.0544
     39  C7N       54.9630  -10.5150  -62.2820 C.2   3501  NAD3501     0.2818
     40  O7N       56.0460   -9.9660  -62.5650 O.2   3501  NAD3501    -0.2670
     41  N7N       54.7720  -11.2870  -61.2440 N.am  3501  NAD3501    -0.0839
     42  C4N       52.8560  -11.4640  -63.1180 C.2   3501  NAD3501     0.0033
     43  C5N       51.7910  -11.4000  -64.0210 C.2   3501  NAD3501     0.0157
     44  C6N       51.5760  -10.4960  -65.0100 C.2   3501  NAD3501     0.0633
@<TRIPOS>BOND
     1    19    20    1
     2    19    17    2
     3    18    17    1
     4    20    21    1
     5    17    16    1
     6    21    22    2
     7    16    22    1
     8    16    15    2
     9    22    13    1
    10    15    14    1
    11    13    14    1
    12    13    12    1
    13    12     7    1
    14    12    10    1
    15    11    10    1
    16     7     6    1
    17    10     8    1
    18     9     8    1
    19     6     8    1
    20     6     5    1
    21     5     4    1
    22     4     1    1
    23    28    29    1
    24    28    27    1
    25    29    30    1
    26    29    31    1
    27    32    31    1
    28     1     2    2
    29     1     3    1
    30     1    23    1
    31    30    35    1
    32    31    33    1
    33    26    24    2
    34    23    24    1
    35    27    24    1
    36    24    25    1
    37    35    33    1
    38    35    36    1
    39    33    34    1
    40    36    44    1
    41    36    37    1
    42    44    43    2
    43    37    38    1
    44    43    42    1
    45    38    42    2
    46    38    39    1
    47    40    39    2
    48    39    41   am
