@<TRIPOS>MOLECULE
1nvq_III_B_1.pdb
 29 28 0 0 0
SMALL
GASTEIGER

@<TRIPOS>ATOM
      1  N          7.3790   -1.2040   34.4400 N.3   301  ALA301     -0.1231
      2  CA         8.6370   -1.0230   33.6540 C.3   301  ALA301      0.1694
      3  C          9.0510    0.4450   33.6430 C.2   301  ALA301      0.2593
      4  O          8.2020    1.3320   33.7000 O.2   301  ALA301     -0.2718
      5  CB         8.4290   -1.5190   32.2280 C.3   301  ALA301      0.0304
      6  N         10.3540    0.6980   33.5740 N.am  302  SER302     -0.1938
      7  CA        10.8570    2.0680   33.5550 C.3   302  SER302      0.2055
      8  C         12.2400    2.1730   32.9140 C.2   302  SER302      0.2643
      9  O         12.8520    1.1650   32.5540 O.2   302  SER302     -0.2714
     10  CB        10.9070    2.6330   34.9780 C.3   302  SER302      0.2130
     11  OG        11.8190    1.9100   35.7890 O.3   302  SER302     -0.2179
     12  N         12.7190    3.4050   32.7650 N.am  303  VAL303     -0.1963
     13  CA        14.0300    3.6640   32.1760 C.3   303  VAL303      0.1727
     14  C         14.6660    4.8820   32.8380 C.2   303  VAL303      0.2617
     15  O         13.9970    5.6420   33.5380 O.2   303  VAL303     -0.2715
     16  CB        13.9330    3.9280   30.6500 C.3   303  VAL303      0.0290
     17  CG1       13.4440    2.6820   29.9350 C.3   303  VAL303      0.0023
     18  CG2       12.9930    5.0870   30.3780 C.3   303  VAL303      0.0023
     19  N         15.9620    5.0640   32.6140 N.am  304  SER304     -0.1936
     20  CA        16.6840    6.1960   33.1820 C.3   304  SER304      0.2055
     21  C         17.0740    7.1650   32.0700 C.2   304  SER304      0.2642
     22  O         17.2570    6.7610   30.9210 O.2   304  SER304     -0.2714
     23  CB        17.9350    5.7020   33.9040 C.3   304  SER304      0.2130
     24  OG        18.7630    4.9740   33.0100 O.3   304  SER304     -0.2179
     25  N         17.2010    8.4430   32.4150 N.am  305  ALA305     -0.1977
     26  CA        17.5640    9.4690   31.4420 C.3   305  ALA305      0.1597
     27  C         19.0630    9.7680   31.4690 C.2   305  ALA305      0.2287
     28  O         19.6620    9.8600   30.3780 O.2   305  ALA305     -0.2864
     29  CB        16.7640   10.7510   31.7080 C.3   305  ALA305      0.0319
@<TRIPOS>BOND
     1    17    16    1
     2    18    16    1
     3    28    27    2
     4    16    13    1
     5    22    21    2
     6    26    27    1
     7    26    29    1
     8    26    25    1
     9    21    25   am
    10    21    20    1
    11    13    12    1
    12    13    14    1
    13     5     2    1
    14     9     8    2
    15    19    14   am
    16    19    20    1
    17    12     8   am
    18    14    15    2
    19     8     7    1
    20    24    23    1
    21    20    23    1
    22     7     6    1
    23     7    10    1
    24     6     3   am
    25     3     2    1
    26     3     4    2
    27     2     1    1
    28    10    11    1
