@<TRIPOS>MOLECULE
1nvq_UCN_A_1.pdb
 36 43 0 0 0
SMALL
GASTEIGER

@<TRIPOS>ATOM
      1  O37        8.2700    9.9540   17.2910 O.3   400  UCN400     -0.1902
      2  C9         7.7630    9.3100   18.4550 C.3   400  UCN400      0.2876
      3  N1         6.9180   10.1940   19.2270 N.2   400  UCN400     -0.1663
      4  C8         5.6270    9.8480   19.3640 C.1   400  UCN400      0.1525
      5  O5         4.7470   10.4480   19.9630 O.2   400  UCN400     -0.2222
      6  C7         5.5330    8.5650   18.6030 C.ar  400  UCN400      0.0847
      7  C6         4.3050    7.7170   18.4090 C.ar  400  UCN400      0.0294
      8  C5         2.9460    7.7620   18.7970 C.ar  400  UCN400      0.0180
      9  C20        2.3100    6.5900   18.2270 C.ar  400  UCN400      0.0618
     10  C1         0.9100    6.3140   18.4170 C.ar  400  UCN400      0.0172
     11  C2         0.1610    7.2210   19.1810 C.ar  400  UCN400      0.0015
     12  C3         0.7890    8.3860   19.7510 C.ar  400  UCN400      0.0001
     13  C4         2.1380    8.6360   19.5570 C.ar  400  UCN400      0.0015
     14  N3         3.2490    5.8750   17.5380 N.ar  400  UCN400     -0.3039
     15  C19        4.5220    6.5310   17.6060 C.ar  400  UCN400      0.0783
     16  C18        5.7570    6.2170   17.0610 C.ar  400  UCN400      0.0774
     17  N2         6.2140    5.1320   16.2200 N.ar  400  UCN400     -0.3054
     18  C17        7.6060    5.2810   15.9270 C.ar  400  UCN400      0.0617
     19  C12        8.0400    6.4960   16.5930 C.ar  400  UCN400      0.0171
     20  C13        9.3880    6.8940   16.4620 C.ar  400  UCN400      0.0015
     21  C14       10.3170    6.1570   15.7160 C.ar  400  UCN400      0.0001
     22  C15        9.8520    4.9520   15.0620 C.ar  400  UCN400      0.0015
     23  C16        8.5300    4.5440   15.1750 C.ar  400  UCN400      0.0172
     24  C11        6.9290    7.0700   17.2760 C.ar  400  UCN400      0.0197
     25  C10        6.7180    8.2500   18.0830 C.ar  400  UCN400      0.0442
     26  C21        5.2030    4.0730   15.7860 C.3   400  UCN400      0.1915
     27  O4         4.3030    3.8480   16.8550 O.3   400  UCN400     -0.3186
     28  C25        3.0380    4.4870   17.0640 C.3   400  UCN400      0.2078
     29  C24        2.2520    4.5570   15.6950 C.3   400  UCN400      0.0739
     30  C23        3.0440    3.9210   14.5170 C.3   400  UCN400      0.1086
     31  N4         2.1780    4.1690   13.2170 N.3   400  UCN400     -0.2152
     32  C28        2.8230    3.5400   12.0170 C.3   400  UCN400      0.1075
     33  C22        4.4980    4.5210   14.4210 C.3   400  UCN400      0.1761
     34  O6         4.3430    5.9660   14.3770 O.3   400  UCN400     -0.3478
     35  C27        5.1750    6.5710   13.3990 C.3   400  UCN400      0.1743
     36  C26        5.8590    2.7140   15.5650 C.3   400  UCN400      0.0566
@<TRIPOS>BOND
     1    32    31    1
     2    31    30    1
     3    35    34    1
     4    34    33    1
     5    33    30    1
     6    33    26    1
     7    30    29    1
     8    22    23   ar
     9    22    21   ar
    10    23    18   ar
    11    36    26    1
    12    29    28    1
    13    21    20   ar
    14    26    17    1
    15    26    27    1
    16    18    17   ar
    17    18    19   ar
    18    17    16   ar
    19    20    19   ar
    20    19    24   ar
    21    27    28    1
    22    16    24   ar
    23    16    15   ar
    24    28    14    1
    25    24    25   ar
    26     1     2    1
    27    14    15   ar
    28    14     9   ar
    29    15     7   ar
    30    25     2    1
    31    25     6   ar
    32     9    10   ar
    33     9     8   ar
    34     7     6   ar
    35     7     8   ar
    36    10    11   ar
    37     2     3    1
    38     6     4    1
    39     8    13   ar
    40    11    12   ar
    41     3     4    2
    42     4     5    2
    43    13    12   ar
