@<TRIPOS>MOLECULE
1nvr_STU_A_1.pdb
 35 42 0 0 0
SMALL
GASTEIGER

@<TRIPOS>ATOM
      1  O4         4.1090    3.8420   16.8980 O.3   400  STU400     -0.3186
      2  C25        2.8780    4.4680   17.0890 C.3   400  STU400      0.2078
      3  C24        2.1340    4.5600   15.7110 C.3   400  STU400      0.0739
      4  C23        2.9710    3.9240   14.5620 C.3   400  STU400      0.1086
      5  C22        4.3910    4.5500   14.5100 C.3   400  STU400      0.1761
      6  C21        5.0460    4.0680   15.8630 C.3   400  STU400      0.1915
      7  C26        5.6760    2.6840   15.6240 C.3   400  STU400      0.0566
      8  N2         6.0370    5.1320   16.2960 N.ar  400  STU400     -0.3054
      9  C18        5.5620    6.2030   17.1420 C.ar  400  STU400      0.0774
     10  C19        4.3440    6.4920   17.6880 C.ar  400  STU400      0.0783
     11  C6         4.1150    7.6680   18.5110 C.ar  400  STU400      0.0293
     12  C7         5.3020    8.5120   18.7060 C.ar  400  STU400      0.0822
     13  C10        6.4950    8.2250   18.1650 C.ar  400  STU400      0.0154
     14  C11        6.7090    7.0610   17.3510 C.ar  400  STU400      0.0173
     15  C12        7.8090    6.5300   16.6450 C.ar  400  STU400      0.0171
     16  C17        7.4000    5.3150   15.9840 C.ar  400  STU400      0.0617
     17  C16        8.3350    4.6050   15.2010 C.ar  400  STU400      0.0172
     18  C15        9.6440    5.0670   15.0540 C.ar  400  STU400      0.0015
     19  C14       10.0920    6.2950   15.6990 C.ar  400  STU400      0.0001
     20  C13        9.1290    6.9900   16.4930 C.ar  400  STU400      0.0015
     21  C9         7.5090    9.2890   18.5160 C.3   400  STU400      0.1650
     22  N1         6.6460   10.1510   19.3150 N.2   400  STU400     -0.1976
     23  C8         5.3800    9.7830   19.4780 C.1   400  STU400      0.1501
     24  O5         4.4950   10.3560   20.1050 O.2   400  STU400     -0.2222
     25  C5         2.7840    7.6920   18.8930 C.ar  400  STU400      0.0180
     26  C20        2.1730    6.5290   18.2940 C.ar  400  STU400      0.0618
     27  C1         0.7880    6.2280   18.4640 C.ar  400  STU400      0.0172
     28  C2         0.0180    7.1080   19.2520 C.ar  400  STU400      0.0015
     29  C3         0.6160    8.2760   19.8560 C.ar  400  STU400      0.0001
     30  C4         1.9710    8.5510   19.6730 C.ar  400  STU400      0.0015
     31  N3         3.1040    5.8480   17.6020 N.ar  400  STU400     -0.3039
     32  O6         4.2020    5.9960   14.5360 O.3   400  STU400     -0.3478
     33  C27        5.1750    6.6630   13.7510 C.3   400  STU400      0.1743
     34  N4         2.1760    4.1590   13.2070 N.3   400  STU400     -0.2152
     35  C28        2.9260    3.5080   12.0710 C.3   400  STU400      0.1075
@<TRIPOS>BOND
     1    35    34    1
     2    34     4    1
     3    33    32    1
     4     5    32    1
     5     5     4    1
     6     5     6    1
     7     4     3    1
     8    18    17   ar
     9    18    19   ar
    10    17    16   ar
    11     7     6    1
    12    19    20   ar
    13     3     2    1
    14     6     8    1
    15     6     1    1
    16    16     8   ar
    17    16    15   ar
    18     8     9   ar
    19    20    15   ar
    20    15    14   ar
    21     1     2    1
    22     2    31    1
    23     9    14   ar
    24     9    10   ar
    25    14    13   ar
    26    31    10   ar
    27    31    26   ar
    28    10    11   ar
    29    13    21    1
    30    13    12   ar
    31    26    27   ar
    32    26    25   ar
    33    27    28   ar
    34    11    12   ar
    35    11    25   ar
    36    21    22    1
    37    12    23    1
    38    25    30   ar
    39    28    29   ar
    40    22    23    2
    41    23    24    2
    42    30    29   ar
