@<TRIPOS>MOLECULE
1nvr_III_B_1.pdb
 29 28 0 0 0
SMALL
GASTEIGER

@<TRIPOS>ATOM
      1  N          7.2790   -1.3360   34.6700 N.3   301  ALA301     -0.1231
      2  CA         8.2850   -1.0330   33.6030 C.3   301  ALA301      0.1694
      3  C          8.7580    0.4150   33.7310 C.2   301  ALA301      0.2593
      4  O          7.9370    1.3280   33.8320 O.2   301  ALA301     -0.2718
      5  CB         7.6520   -1.2830   32.2010 C.3   301  ALA301      0.0304
      6  N         10.0770    0.6060   33.7550 N.am  302  SER302     -0.1938
      7  CA        10.6730    1.9400   33.8600 C.3   302  SER302      0.2055
      8  C         12.0260    2.0260   33.1260 C.2   302  SER302      0.2643
      9  O         12.5980    1.0080   32.7120 O.2   302  SER302     -0.2714
     10  CB        10.8750    2.3370   35.3260 C.3   302  SER302      0.2130
     11  OG        11.9410    1.6050   35.8900 O.3   302  SER302     -0.2179
     12  N         12.5230    3.2470   32.9460 N.am  303  VAL303     -0.1963
     13  CA        13.7970    3.4740   32.2760 C.3   303  VAL303      0.1727
     14  C         14.4380    4.6990   32.9070 C.2   303  VAL303      0.2617
     15  O         13.7500    5.5200   33.5240 O.2   303  VAL303     -0.2715
     16  CB        13.5980    3.7090   30.7290 C.3   303  VAL303      0.0290
     17  CG1       12.9540    2.4880   30.1040 C.3   303  VAL303      0.0023
     18  CG2       12.7050    4.9300   30.4760 C.3   303  VAL303      0.0023
     19  N         15.7540    4.8230   32.7960 N.am  304  SER304     -0.1936
     20  CA        16.4220    5.9940   33.3490 C.3   304  SER304      0.2055
     21  C         16.8720    6.8790   32.1790 C.2   304  SER304      0.2642
     22  O         17.0790    6.3830   31.0670 O.2   304  SER304     -0.2714
     23  CB        17.6220    5.5700   34.1960 C.3   304  SER304      0.2130
     24  OG        18.5900    4.9460   33.3680 O.3   304  SER304     -0.2179
     25  N         17.0460    8.1740   32.4360 N.am  305  ALA305     -0.1977
     26  CA        17.4420    9.1560   31.4160 C.3   305  ALA305      0.1597
     27  C         18.9270    9.4730   31.5050 C.2   305  ALA305      0.2287
     28  O         19.3540   10.4650   30.8640 O.2   305  ALA305     -0.2864
     29  CB        16.6230   10.4790   31.6200 C.3   305  ALA305      0.0319
@<TRIPOS>BOND
     1    17    16    1
     2    18    16    1
     3    16    13    1
     4    28    27    2
     5    22    21    2
     6    26    27    1
     7    26    29    1
     8    26    25    1
     9    21    25   am
    10    21    20    1
    11     5     2    1
    12    13    14    1
    13    13    12    1
    14     9     8    2
    15    19    14   am
    16    19    20    1
    17    14    15    2
    18    12     8   am
    19     8     7    1
    20    20    23    1
    21    24    23    1
    22     2     3    1
    23     2     1    1
    24     3     6   am
    25     3     4    2
    26     6     7    1
    27     7    10    1
    28    10    11    1
