@<TRIPOS>MOLECULE
1nvs_UCM_A_1.pdb
 30 37 0 0 0
SMALL
GASTEIGER

@<TRIPOS>ATOM
      1  N18        6.3370   10.2630   19.4530 N.2   400  UCM400     -0.2576
      2  C29        4.9270    9.6930   19.4870 C.1   400  UCM400      0.2158
      3  O30        3.9870   10.2130   20.0680 O.2   400  UCM400     -0.2086
      4  C10        4.8800    8.4450   18.7220 C.ar  400  UCM400      0.1088
      5  C09        3.7830    7.5530   18.4640 C.ar  400  UCM400      0.0314
      6  C15        2.3870    7.4760   18.7990 C.ar  400  UCM400      0.0180
      7  C16        1.8740    6.2920   18.1930 C.ar  400  UCM400      0.0618
      8  C34        0.4900    5.9220   18.3350 C.ar  400  UCM400      0.0172
      9  C33       -0.4050    6.7390   19.0910 C.ar  400  UCM400      0.0015
     10  C32        0.0850    7.9280   19.7090 C.ar  400  UCM400      0.0001
     11  C31        1.4600    8.2870   19.5600 C.ar  400  UCM400      0.0015
     12  N17        2.9280    5.6750   17.5190 N.ar  400  UCM400     -0.3040
     13  C08        4.0930    6.4170   17.6690 C.ar  400  UCM400      0.0784
     14  C07        5.3640    6.1650   17.1600 C.ar  400  UCM400      0.0784
     15  N06        5.8000    5.1030   16.3760 N.ar  400  UCM400     -0.3040
     16  C14        7.1480    5.2390   16.0860 C.ar  400  UCM400      0.0618
     17  C13        7.6020    6.4390   16.7080 C.ar  400  UCM400      0.0180
     18  C22        8.9950    6.7870   16.5340 C.ar  400  UCM400      0.0015
     19  C21        9.8900    5.9780   15.7760 C.ar  400  UCM400      0.0001
     20  C20        9.4120    4.7830   15.1670 C.ar  400  UCM400      0.0015
     21  C19        8.0420    4.4130   15.3190 C.ar  400  UCM400      0.0172
     22  C12        6.4740    7.0150   17.3860 C.ar  400  UCM400      0.0314
     23  C11        6.2080    8.1800   18.1890 C.ar  400  UCM400      0.1088
     24  C27        7.0980    9.2560   18.6150 C.1   400  UCM400      0.2158
     25  O28        8.2800    9.3470   18.3440 O.2   400  UCM400     -0.2086
     26  C05        4.9590    3.9740   15.9060 C.3   400  UCM400      0.2066
     27  O01        3.9990    3.6000   16.9070 O.3   400  UCM400     -0.3168
     28  C02        2.8140    4.4020   16.7530 C.3   400  UCM400      0.2066
     29  C03        2.7220    4.6730   15.2460 C.3   400  UCM400      0.0585
     30  C04        4.1190    4.3910   14.6920 C.3   400  UCM400      0.0585
@<TRIPOS>BOND
     1    30    29    1
     2    30    26    1
     3    20    21   ar
     4    20    19   ar
     5    29    28    1
     6    21    16   ar
     7    19    18   ar
     8    26    15    1
     9    26    27    1
    10    16    15   ar
    11    16    17   ar
    12    15    14   ar
    13    18    17   ar
    14    17    22   ar
    15    28    27    1
    16    28    12    1
    17    14    22   ar
    18    14    13   ar
    19    22    23   ar
    20    12    13   ar
    21    12     7   ar
    22    13     5   ar
    23    23    24    1
    24    23     4   ar
    25     7     8   ar
    26     7     6   ar
    27     8     9   ar
    28    25    24    2
    29     5     4   ar
    30     5     6   ar
    31    24     1    2
    32     4     2    1
    33     6    11   ar
    34     9    10   ar
    35     1     2    2
    36     2     3    2
    37    11    10   ar
