@<TRIPOS>MOLECULE
1nvs_III_B_1.pdb
 29 28 0 0 0
SMALL
GASTEIGER

@<TRIPOS>ATOM
      1  N          7.0100   -1.2530   34.1790 N.3   301  ALA301     -0.1231
      2  CA         8.3490   -1.0190   33.5620 C.3   301  ALA301      0.1694
      3  C          8.7780    0.4360   33.7250 C.2   301  ALA301      0.2593
      4  O          7.9400    1.3310   33.8360 O.2   301  ALA301     -0.2718
      5  CB         8.3060   -1.3870   32.0820 C.3   301  ALA301      0.0304
      6  N         10.0870    0.6670   33.7400 N.am  302  SER302     -0.1938
      7  CA        10.6240    2.0140   33.8820 C.3   302  SER302      0.2055
      8  C         11.9640    2.1400   33.1650 C.2   302  SER302      0.2643
      9  O         12.6060    1.1380   32.8380 O.2   302  SER302     -0.2714
     10  CB        10.8020    2.3670   35.3620 C.3   302  SER302      0.2130
     11  OG        11.7710    1.5340   35.9720 O.3   302  SER302     -0.2179
     12  N         12.3790    3.3770   32.9130 N.am  303  VAL303     -0.1963
     13  CA        13.6460    3.6410   32.2430 C.3   303  VAL303      0.1727
     14  C         14.2840    4.8890   32.8370 C.2   303  VAL303      0.2617
     15  O         13.5990    5.7260   33.4280 O.2   303  VAL303     -0.2715
     16  CB        13.4520    3.8580   30.7200 C.3   303  VAL303      0.0290
     17  CG1       12.8950    2.5990   30.0830 C.3   303  VAL303      0.0023
     18  CG2       12.5180    5.0350   30.4730 C.3   303  VAL303      0.0023
     19  N         15.5980    5.0080   32.6890 N.am  304  SER304     -0.1936
     20  CA        16.3190    6.1650   33.2050 C.3   304  SER304      0.2055
     21  C         16.8300    7.0020   32.0360 C.2   304  SER304      0.2642
     22  O         17.2390    6.4590   31.0090 O.2   304  SER304     -0.2714
     23  CB        17.4930    5.7140   34.0770 C.3   304  SER304      0.2130
     24  OG        18.4080    4.9320   33.3270 O.3   304  SER304     -0.2179
     25  N         16.8040    8.3210   32.1930 N.am  305  ALA305     -0.1977
     26  CA        17.2610    9.2230   31.1420 C.3   305  ALA305      0.1597
     27  C         18.7380    9.5630   31.3050 C.2   305  ALA305      0.2287
     28  O         19.1400   10.6600   30.8640 O.2   305  ALA305     -0.2864
     29  CB        16.4270   10.5030   31.1620 C.3   305  ALA305      0.0319
@<TRIPOS>BOND
     1    17    16    1
     2    18    16    1
     3    16    13    1
     4    28    27    2
     5    22    21    2
     6    26    29    1
     7    26    27    1
     8    26    25    1
     9    21    25   am
    10    21    20    1
    11     5     2    1
    12    13    14    1
    13    13    12    1
    14    19    14   am
    15    19    20    1
    16    14    15    2
    17     9     8    2
    18    12     8   am
    19     8     7    1
    20    20    23    1
    21    24    23    1
    22     2     3    1
    23     2     1    1
    24     3     6   am
    25     3     4    2
    26     6     7    1
    27     7    10    1
    28    10    11    1
