@<TRIPOS>MOLECULE
1nvt_NAP_A_1.pdb
 48 52 0 0 0
SMALL
GASTEIGER

@<TRIPOS>ATOM
      1  PA        25.8820    3.6100   18.6280 P.3   288  NAP288      0.2189
      2  O1A       25.1560    4.8150   19.1730 O.3   288  NAP288     -0.4371
      3  O2A       25.1080    2.9000   17.5230 O.2   288  NAP288     -0.5170
      4  O5B       27.2810    3.9910   18.1560 O.3   288  NAP288     -0.3112
      5  C5B       27.5130    4.4970   16.8600 C.3   288  NAP288      0.1813
      6  C4B       28.8670    4.1080   16.3180 C.3   288  NAP288      0.1820
      7  O4B       28.7070    3.7350   14.9450 O.3   288  NAP288     -0.3136
      8  C3B       29.9070    5.2420   16.3120 C.3   288  NAP288      0.2157
      9  O3B       31.2060    4.7700   16.6610 O.3   288  NAP288     -0.2175
     10  C2B       29.8240    5.7830   14.8790 C.3   288  NAP288      0.2314
     11  O2B       31.0260    6.5050   14.4180 O.3   288  NAP288     -0.2630
     12  C1B       29.6240    4.4860   14.1640 C.3   288  NAP288      0.3158
     13  N9A       29.2660    4.1680   12.8560 N.pl3 288  NAP288     -0.1439
     14  C8A       27.9430    4.1030   12.4800 C.3   288  NAP288      0.3377
     15  N7A       27.8310    3.9560   11.1410 N.2   288  NAP288     -0.2095
     16  C5A       29.1160    3.9240   10.6960 C.2   288  NAP288      0.2526
     17  C6A       29.5780    3.7910    9.3790 C.2   288  NAP288      0.4393
     18  N6A       28.7470    3.6790    8.3570 N.pl3 288  NAP288      0.2180
     19  N1A       30.9620    3.7820    9.1440 N.2   288  NAP288      0.0021
     20  C2A       31.8510    3.8980   10.1930 C.3   288  NAP288      0.5254
     21  N3A       31.3810    4.0300   11.4690 N.2   288  NAP288     -0.0055
     22  C4A       30.0190    4.0450   11.7430 C.2   288  NAP288      0.3518
     23  O3        26.1530    2.5640   19.6610 O.3   288  NAP288     -0.2703
     24  PN        25.8490    1.1140   19.8160 P.3   288  NAP288      0.2189
     25  O1N       24.3400    1.0330   19.9120 O.2   288  NAP288     -0.5170
     26  O2N       26.4610    0.6470   21.1100 O.3   288  NAP288     -0.4371
     27  O5D       26.3490    0.2270   18.6920 O.3   288  NAP288     -0.3112
     28  C5D       27.1620   -0.8740   18.2770 C.3   288  NAP288      0.1813
     29  C4D       26.8610   -2.3020   17.9090 C.3   288  NAP288      0.1799
     30  O4D       26.6100   -3.0630   19.0910 O.3   288  NAP288     -0.3327
     31  C3D       25.6260   -2.3240   17.0350 C.3   288  NAP288      0.2158
     32  O3D       25.8740   -2.8390   15.7240 O.3   288  NAP288     -0.2175
     33  C2D       24.6010   -3.1100   17.8270 C.3   288  NAP288      0.2309
     34  O2D       24.1370   -4.1990   17.0160 O.3   288  NAP288     -0.2158
     35  C1D       25.2730   -3.5760   19.0920 C.3   288  NAP288      0.2263
     36  N1N       25.3580   -4.2140   20.3060 N.pl3 288  NAP288     -0.2787
     37  C2N       25.6170   -5.5720   20.7110 C.3   288  NAP288      0.1244
     38  C3N       25.6120   -5.9140   22.1020 C.2   288  NAP288      0.0544
     39  C7N       25.8740   -7.3400   22.5520 C.2   288  NAP288      0.2818
     40  O7N       25.8550   -7.6510   23.9440 O.2   288  NAP288     -0.2670
     41  N7N       26.1100   -8.2430   21.5670 N.am  288  NAP288     -0.0839
     42  C4N       25.3510   -4.8990   23.1040 C.2   288  NAP288      0.0033
     43  C5N       25.0760   -3.4550   22.7350 C.2   288  NAP288      0.0157
     44  C6N       25.0860   -3.1460   21.2640 C.2   288  NAP288      0.0633
     45  P2B       30.2490    7.8250   14.7560 P.3   288  NAP288      0.5328
     46  O1X       28.9500    7.8880   13.9080 O.2   288  NAP288     -0.2224
     47  O2X       31.3190    8.8070   14.3410 O.3   288  NAP288     -0.1145
     48  O3X       29.8810    8.3070   16.1440 O.3   288  NAP288     -0.1145
@<TRIPOS>BOND
     1    18    17    1
     2    19    17    2
     3    19    20    1
     4    17    16    1
     5    20    21    1
     6    16    15    2
     7    16    22    1
     8    15    14    1
     9    21    22    2
    10    22    13    1
    11    14    13    1
    12    13    12    1
    13    46    45    2
    14    12    10    1
    15    12     7    1
    16    47    45    1
    17    11    45    1
    18    11    10    1
    19    45    48    1
    20    10     8    1
    21     7     6    1
    22    32    31    1
    23     8     6    1
    24     8     9    1
    25     6     5    1
    26     5     4    1
    27    34    33    1
    28    31    33    1
    29    31    29    1
    30     3     1    2
    31    33    35    1
    32    29    28    1
    33    29    30    1
    34     4     1    1
    35    28    27    1
    36     1     2    1
    37     1    23    1
    38    27    24    1
    39    30    35    1
    40    35    36    1
    41    23    24    1
    42    24    25    2
    43    24    26    1
    44    36    37    1
    45    36    44    1
    46    37    38    1
    47    44    43    2
    48    41    39   am
    49    38    39    1
    50    38    42    2
    51    39    40    2
    52    43    42    1
