@<TRIPOS>MOLECULE
1nvu_GTP_Q_1.pdb
 32 34 0 0 0
SMALL
GASTEIGER

@<TRIPOS>ATOM
      1  PG        14.2620   51.2060   70.3300 P.3   1001  GTP1001     0.5373
      2  O1G       12.9810   51.1880   71.1430 O.3   1001  GTP1001    -0.1143
      3  O2G       14.4810   49.9810   69.4590 O.2   1001  GTP1001    -0.2221
      4  O3G       15.3660   51.4620   71.2560 O.3   1001  GTP1001    -0.1143
      5  O3B       14.1010   52.5780   69.2980 O.3   1001  GTP1001    -0.2258
      6  PB        15.0100   53.0850   67.9490 P.3   1001  GTP1001     0.2277
      7  O1B       16.1680   53.9520   68.4520 O.3   1001  GTP1001    -0.4368
      8  O2B       15.4080   51.8750   67.2070 O.2   1001  GTP1001    -0.5168
      9  O3A       14.0370   53.9320   67.0970 O.3   1001  GTP1001    -0.2700
     10  PA        13.4370   53.6740   65.6120 P.3   1001  GTP1001     0.2189
     11  O1A       14.4520   53.4930   64.5900 O.2   1001  GTP1001    -0.5170
     12  O2A       12.4440   52.5240   65.8300 O.3   1001  GTP1001    -0.4371
     13  O5'       12.7070   55.1120   65.2800 O.3   1001  GTP1001    -0.3112
     14  C5'       11.6480   55.4360   66.2670 C.3   1001  GTP1001     0.1813
     15  C4'       10.8040   56.4500   65.3510 C.3   1001  GTP1001     0.1799
     16  O4'       11.5470   57.5900   64.8460 O.3   1001  GTP1001    -0.3326
     17  C3'       10.1340   55.8830   64.1800 C.3   1001  GTP1001     0.2158
     18  O3'        8.7860   56.2680   64.1080 O.3   1001  GTP1001    -0.2175
     19  C2'       10.9420   56.2730   62.9080 C.3   1001  GTP1001     0.2310
     20  O2'       10.2350   56.2860   61.7900 O.3   1001  GTP1001    -0.2158
     21  C1'       11.3970   57.8050   63.4430 C.3   1001  GTP1001     0.2293
     22  N9        12.7540   58.1670   62.8850 N.pl3 1001  GTP1001    -0.2354
     23  C8        13.8850   57.3500   63.0260 C.3   1001  GTP1001     0.2246
     24  N7        14.7750   58.1180   62.3740 N.2   1001  GTP1001    -0.2322
     25  C5        14.2830   59.3210   61.8550 C.2   1001  GTP1001     0.2182
     26  C6        14.9100   60.2290   61.1990 C.1   1001  GTP1001     0.2372
     27  O6        16.0720   60.4670   60.7610 O.2   1001  GTP1001    -0.2069
     28  N1        13.9860   61.3850   60.8230 N.2   1001  GTP1001    -0.2485
     29  C2        12.7390   61.2650   61.2200 C.1   1001  GTP1001     0.2531
     30  N2        11.8570   62.4050   60.8390 N.pl3 1001  GTP1001    -0.0226
     31  N3        12.0750   60.3090   61.9110 N.2   1001  GTP1001    -0.3074
     32  C4        12.9940   59.3270   62.1960 C.2   1001  GTP1001     0.2300
@<TRIPOS>BOND
     1    27    26    2
     2    28    26    2
     3    28    29    2
     4    30    29    1
     5    26    25    1
     6    29    31    2
     7    20    19    1
     8    25    32    1
     9    25    24    2
    10    31    32    2
    11    32    22    1
    12    24    23    1
    13    22    23    1
    14    22    21    1
    15    19    21    1
    16    19    17    1
    17    21    16    1
    18    18    17    1
    19    17    15    1
    20    11    10    2
    21    16    15    1
    22    13    10    1
    23    13    14    1
    24    15    14    1
    25    10    12    1
    26    10     9    1
    27     9     6    1
    28     8     6    2
    29     6     7    1
    30     6     5    1
    31     5     1    1
    32     3     1    2
    33     1     2    1
    34     1     4    1
