@<TRIPOS>MOLECULE
1nvv_GNP_Q_1.pdb
 32 34 0 0 0
SMALL
GASTEIGER

@<TRIPOS>ATOM
      1  PG        14.3010   51.3580   70.4120 P.3   1001  GNP1001     0.4884
      2  O1G       13.0320   51.2550   71.2240 O.3   1001  GNP1001    -0.1240
      3  O2G       14.5270   50.0750   69.6540 O.2   1001  GNP1001    -0.2331
      4  O3G       15.4710   51.6650   71.2360 O.3   1001  GNP1001    -0.1240
      5  N3B       13.9470   52.6360   69.3160 N.3   1001  GNP1001    -0.0163
      6  PB        15.0480   53.1590   68.1320 P.3   1001  GNP1001     0.4669
      7  O1B       16.0810   53.9930   68.7520 O.3   1001  GNP1001    -0.1253
      8  O2B       15.4650   51.9350   67.3950 O.2   1001  GNP1001    -0.2351
      9  O3A       14.1310   54.0840   67.2220 O.3   1001  GNP1001    -0.2360
     10  PA        13.4300   53.7290   65.9010 P.3   1001  GNP1001     0.2220
     11  O1A       14.4230   53.4800   64.8260 O.2   1001  GNP1001    -0.5170
     12  O2A       12.4300   52.6390   66.2500 O.3   1001  GNP1001    -0.4370
     13  O5'       12.6910   55.0190   65.5550 O.3   1001  GNP1001    -0.3111
     14  C5'       11.6310   55.5580   66.4130 C.3   1001  GNP1001     0.1813
     15  C4'       10.7950   56.5610   65.6560 C.3   1001  GNP1001     0.1799
     16  O4'       11.4760   57.6740   65.1810 O.3   1001  GNP1001    -0.3326
     17  C3'       10.1130   55.9370   64.4020 C.3   1001  GNP1001     0.2158
     18  O3'        8.7410   56.3740   64.2790 O.3   1001  GNP1001    -0.2175
     19  C2'       10.9760   56.4560   63.2480 C.3   1001  GNP1001     0.2310
     20  O2'       10.3430   56.4810   62.0030 O.3   1001  GNP1001    -0.2158
     21  C1'       11.3310   57.8210   63.7760 C.3   1001  GNP1001     0.2293
     22  N9        12.6250   58.2750   63.2180 N.pl3 1001  GNP1001    -0.2354
     23  C8        13.8800   57.5200   63.3590 C.3   1001  GNP1001     0.2246
     24  N7        14.8660   58.1440   62.7750 N.2   1001  GNP1001    -0.2322
     25  C5        14.2450   59.3760   62.2160 C.2   1001  GNP1001     0.2182
     26  C6        14.8680   60.4550   61.4610 C.1   1001  GNP1001     0.2372
     27  O6        15.9880   60.5800   61.1350 O.2   1001  GNP1001    -0.2069
     28  N1        13.9370   61.4360   61.1190 N.2   1001  GNP1001    -0.2485
     29  C2        12.6190   61.2810   61.5090 C.1   1001  GNP1001     0.2531
     30  N2        11.8540   62.4050   61.0480 N.pl3 1001  GNP1001    -0.0226
     31  N3        11.9890   60.3620   62.1710 N.2   1001  GNP1001    -0.3074
     32  C4        12.9080   59.4000   62.5060 C.2   1001  GNP1001     0.2300
@<TRIPOS>BOND
     1    30    29    1
     2    28    26    2
     3    28    29    2
     4    27    26    2
     5    26    25    1
     6    29    31    2
     7    20    19    1
     8    31    32    2
     9    25    32    1
    10    25    24    2
    11    32    22    1
    12    24    23    1
    13    22    23    1
    14    22    21    1
    15    19    21    1
    16    19    17    1
    17    21    16    1
    18    18    17    1
    19    17    15    1
    20    11    10    2
    21    16    15    1
    22    13    10    1
    23    13    14    1
    24    15    14    1
    25    10    12    1
    26    10     9    1
    27     9     6    1
    28     8     6    2
    29     6     7    1
    30     6     5    1
    31     5     1    1
    32     3     1    2
    33     1     2    1
    34     1     4    1
