@<TRIPOS>MOLECULE
1nvw_GNP_Q_1.pdb
 32 34 0 0 0
SMALL
GASTEIGER

@<TRIPOS>ATOM
      1  PG        14.4350   51.3050   70.3070 P.3   1001  GNP1001     0.4884
      2  O1G       13.1950   51.2940   71.1500 O.3   1001  GNP1001    -0.1240
      3  O2G       14.5240   50.0520   69.4650 O.2   1001  GNP1001    -0.2331
      4  O3G       15.6600   51.4700   71.1070 O.3   1001  GNP1001    -0.1240
      5  N3B       14.1480   52.6560   69.2600 N.3   1001  GNP1001    -0.0163
      6  PB        15.2370   53.1330   68.0680 P.3   1001  GNP1001     0.4669
      7  O1B       16.2850   53.9620   68.6660 O.3   1001  GNP1001    -0.1253
      8  O2B       15.6420   51.9040   67.3130 O.2   1001  GNP1001    -0.2351
      9  O3A       14.3160   54.0640   67.1320 O.3   1001  GNP1001    -0.2360
     10  PA        13.6620   53.7620   65.7700 P.3   1001  GNP1001     0.2220
     11  O1A       14.6760   53.5520   64.7320 O.2   1001  GNP1001    -0.5170
     12  O2A       12.6290   52.6690   66.0100 O.3   1001  GNP1001    -0.4370
     13  O5'       12.9450   55.0510   65.4730 O.3   1001  GNP1001    -0.3111
     14  C5'       11.8960   55.5360   66.3220 C.3   1001  GNP1001     0.1813
     15  C4'       11.1010   56.5530   65.5830 C.3   1001  GNP1001     0.1799
     16  O4'       11.8130   57.6390   65.0960 O.3   1001  GNP1001    -0.3326
     17  C3'       10.3680   55.9440   64.3530 C.3   1001  GNP1001     0.2158
     18  O3'        8.9990   56.3980   64.2850 O.3   1001  GNP1001    -0.2175
     19  C2'       11.2220   56.4480   63.1830 C.3   1001  GNP1001     0.2310
     20  O2'       10.5570   56.5040   61.9580 O.3   1001  GNP1001    -0.2158
     21  C1'       11.6340   57.7950   63.7150 C.3   1001  GNP1001     0.2293
     22  N9        12.9090   58.2450   63.1130 N.pl3 1001  GNP1001    -0.2354
     23  C8        14.1630   57.4960   63.2120 C.3   1001  GNP1001     0.2246
     24  N7        15.1230   58.1290   62.5810 N.2   1001  GNP1001    -0.2322
     25  C5        14.4720   59.3530   62.0420 C.2   1001  GNP1001     0.2182
     26  C6        15.0500   60.4370   61.2450 C.1   1001  GNP1001     0.2372
     27  O6        16.1500   60.5750   60.8600 O.2   1001  GNP1001    -0.2069
     28  N1        14.0950   61.4030   60.9450 N.2   1001  GNP1001    -0.2485
     29  C2        12.7990   61.2360   61.3970 C.1   1001  GNP1001     0.2531
     30  N2        12.0030   62.3500   60.9660 N.pl3 1001  GNP1001    -0.0226
     31  N3        12.2100   60.3190   62.0940 N.2   1001  GNP1001    -0.3074
     32  C4        13.1530   59.3670   62.3920 C.2   1001  GNP1001     0.2300
@<TRIPOS>BOND
     1    27    26    2
     2    28    26    2
     3    28    29    2
     4    30    29    1
     5    26    25    1
     6    29    31    2
     7    20    19    1
     8    25    32    1
     9    25    24    2
    10    31    32    2
    11    32    22    1
    12    24    23    1
    13    22    23    1
    14    22    21    1
    15    19    21    1
    16    19    17    1
    17    21    16    1
    18    18    17    1
    19    17    15    1
    20    11    10    2
    21    16    15    1
    22    13    10    1
    23    13    14    1
    24    15    14    1
    25    10    12    1
    26    10     9    1
    27     9     6    1
    28     8     6    2
    29     6     7    1
    30     6     5    1
    31     5     1    1
    32     3     1    2
    33     1     4    1
    34     1     2    1
