@<TRIPOS>MOLECULE
1nvx_GTP_Q_1.pdb
 32 34 0 0 0
SMALL
GASTEIGER

@<TRIPOS>ATOM
      1  PG        33.7650   82.8710   29.0020 P.3   1001  GTP1001     0.5373
      2  O1G       34.1920   84.1280   28.2590 O.3   1001  GTP1001    -0.1143
      3  O2G       34.8340   82.1620   29.8370 O.3   1001  GTP1001    -0.1143
      4  O3G       33.1170   81.9660   28.0600 O.2   1001  GTP1001    -0.2221
      5  O3B       32.6040   83.4360   30.0290 O.3   1001  GTP1001    -0.2258
      6  PB        31.9600   82.6920   31.3280 P.3   1001  GTP1001     0.2277
      7  O1B       30.9030   81.7150   30.8390 O.2   1001  GTP1001    -0.5168
      8  O2B       33.0640   82.0860   32.0850 O.3   1001  GTP1001    -0.4368
      9  O3A       31.3160   83.8350   32.1360 O.3   1001  GTP1001    -0.2700
     10  PA        31.6770   84.3610   33.5940 P.3   1001  GTP1001     0.2189
     11  O1A       31.5330   83.2980   34.5740 O.3   1001  GTP1001    -0.4371
     12  O2A       33.0690   85.0130   33.4640 O.2   1001  GTP1001    -0.5170
     13  O5'       30.4290   85.4330   33.9130 O.3   1001  GTP1001    -0.3112
     14  C5'       30.3970   86.6170   32.9940 C.3   1001  GTP1001     0.1813
     15  C4'       29.6040   87.6370   33.9560 C.3   1001  GTP1001     0.1799
     16  O4'       28.2990   87.2020   34.3820 O.3   1001  GTP1001    -0.3326
     17  C3'       30.2980   88.0730   35.1740 C.3   1001  GTP1001     0.2158
     18  O3'       30.4780   89.4620   35.2120 O.3   1001  GTP1001    -0.2175
     19  C2'       29.5700   87.5200   36.4550 C.3   1001  GTP1001     0.2310
     20  O2'       29.5710   88.3430   37.5010 O.3   1001  GTP1001    -0.2158
     21  C1'       28.0490   87.3140   35.7830 C.3   1001  GTP1001     0.2293
     22  N9        27.4460   86.0190   36.2710 N.pl3 1001  GTP1001    -0.2354
     23  C8        27.9090   84.7520   35.9280 C.3   1001  GTP1001     0.2246
     24  N7        27.0230   84.0070   36.6300 N.2   1001  GTP1001    -0.2322
     25  C5        26.0740   84.7350   37.3700 C.2   1001  GTP1001     0.2182
     26  C6        25.1160   84.3110   38.1170 C.1   1001  GTP1001     0.2372
     27  O6        24.6210   83.2000   38.5280 O.2   1001  GTP1001    -0.2069
     28  N1        24.3210   85.4830   38.7300 N.2   1001  GTP1001    -0.2485
     29  C2        24.7280   86.6720   38.3940 C.1   1001  GTP1001     0.2531
     30  N2        23.9660   87.8060   38.9810 N.pl3 1001  GTP1001    -0.0226
     31  N3        25.7330   87.1130   37.5990 N.2   1001  GTP1001    -0.3074
     32  C4        26.3720   86.0070   37.1170 C.2   1001  GTP1001     0.2300
@<TRIPOS>BOND
     1     4     1    2
     2     2     1    1
     3     1     3    1
     4     1     5    1
     5     5     6    1
     6     7     6    2
     7     6     8    1
     8     6     9    1
     9     9    10    1
    10    14    13    1
    11    14    15    1
    12    12    10    2
    13    10    13    1
    14    10    11    1
    15    15    16    1
    16    15    17    1
    17    16    21    1
    18    17    18    1
    19    17    19    1
    20    21    22    1
    21    21    19    1
    22    23    22    1
    23    23    24    1
    24    22    32    1
    25    19    20    1
    26    24    25    2
    27    32    25    1
    28    32    31    2
    29    25    26    1
    30    31    29    2
    31    26    27    2
    32    26    28    2
    33    29    28    2
    34    29    30    1
