@<TRIPOS>MOLECULE
1nw3_SAM_A_1.pdb
 27 29 0 0 0
SMALL
GASTEIGER

@<TRIPOS>ATOM
      1  N         87.2140   10.4710   -1.8140 N.3   500  SAM500     -0.1208
      2  CA        86.1200    9.4650   -1.6180 C.3   500  SAM500      0.1952
      3  C         85.2380    9.4520   -2.8660 C.2   500  SAM500      0.3819
      4  O         85.4840   10.2480   -3.7830 O.co2 500  SAM500     -0.2441
      5  OXT       84.2850    8.6020   -2.8490 O.co2 500  SAM500     -0.2441
      6  CB        85.2020    9.9100   -0.4560 C.3   500  SAM500      0.0414
      7  CG        85.6860   11.1670    0.1680 C.3   500  SAM500      0.0503
      8  SD        84.7240   11.9610    1.4890 S.3   500  SAM500     -0.1761
      9  CE        83.3620   12.7000    0.5720 C.3   500  SAM500      0.0590
     10  C5'       85.7520   13.3080    1.9040 C.3   500  SAM500      0.0806
     11  C4'       86.9470   12.9030    2.7530 C.3   500  SAM500      0.1622
     12  O4'       87.7500   14.0830    2.9580 O.3   500  SAM500     -0.3153
     13  C3'       86.5220   12.5480    4.1910 C.3   500  SAM500      0.2168
     14  O3'       86.6790   11.1140    4.2930 O.3   500  SAM500     -0.2175
     15  C2'       87.5270   13.2250    5.1050 C.3   500  SAM500      0.2569
     16  O2'       88.0800   12.5690    6.2090 O.3   500  SAM500     -0.2130
     17  C1'       88.5240   13.8220    4.0850 C.3   500  SAM500      0.3185
     18  N9        89.1680   15.0320    4.5460 N.pl3 500  SAM500     -0.1439
     19  C8        88.6130   16.2290    4.9400 C.3   500  SAM500      0.3377
     20  N7        89.4940   17.1250    5.2970 N.2   500  SAM500     -0.2095
     21  C5        90.7160   16.4790    5.1280 C.2   500  SAM500      0.2526
     22  C6        92.0640   16.8890    5.3330 C.2   500  SAM500      0.4393
     23  N6        92.3780   18.1180    5.7790 N.pl3 500  SAM500      0.2180
     24  N1        93.0830   16.0020    5.0690 N.2   500  SAM500      0.0021
     25  C2        92.7540   14.7660    4.6190 C.3   500  SAM500      0.5254
     26  N3        91.5150   14.2700    4.3890 N.2   500  SAM500     -0.0055
     27  C4        90.5300   15.1850    4.6640 C.2   500  SAM500      0.3518
@<TRIPOS>BOND
     1     4     3   ar
     2     3     5   ar
     3     3     2    1
     4     1     2    1
     5     2     6    1
     6     6     7    1
     7     7     8    1
     8     9     8    1
     9     8    10    1
    10    10    11    1
    11    11    12    1
    12    11    13    1
    13    12    17    1
    14    17    18    1
    15    17    15    1
    16    13    14    1
    17    13    15    1
    18    26    25    1
    19    26    27    2
    20    18    27    1
    21    18    19    1
    22    25    24    1
    23    27    21    1
    24    19    20    1
    25    24    22    2
    26    15    16    1
    27    21    20    2
    28    21    22    1
    29    22    23    1
