@<TRIPOS>MOLECULE
1nw4_IMH_A_1.pdb
 19 21 0 0 0
SMALL
GASTEIGER

@<TRIPOS>ATOM
      1  O5'        7.4180    1.1570   94.6480 O.3   301  IMH301     -0.2188
      2  C5'        8.6520    1.3670   93.9700 C.3   301  IMH301      0.2020
      3  C4'        8.3860    1.3530   92.5090 C.3   301  IMH301      0.1389
      4  N4'        7.4440    2.3560   92.1400 N.3   301  IMH301     -0.2083
      5  C3'        9.6400    1.6000   91.7260 C.3   301  IMH301      0.2023
      6  O3'        9.5810    0.7130   90.6020 O.3   301  IMH301     -0.2188
      7  C2'        9.5160    3.0410   91.3480 C.3   301  IMH301      0.2036
      8  O2'        9.9980    3.2540   90.0160 O.3   301  IMH301     -0.2185
      9  C1'        8.0360    3.4550   91.4630 C.3   301  IMH301      0.1309
     10  C9         7.8230    4.6840   92.3660 C.2   301  IMH301      0.0348
     11  C8         6.5780    5.1940   92.7270 C.2   301  IMH301      0.0984
     12  N7         6.6120    6.2500   93.5050 N.2   301  IMH301     -0.2310
     13  C5         7.9650    6.4990   93.7090 C.2   301  IMH301      0.1804
     14  C6         8.6010    7.5390   94.4790 C.1   301  IMH301      0.1716
     15  O6         8.0430    8.4320   95.1270 O.2   301  IMH301     -0.2206
     16  N1        10.0110    7.4730   94.4520 N.2   301  IMH301     -0.1739
     17  C2        10.7440    6.5040   93.7530 C.3   301  IMH301      0.2626
     18  N3        10.1430    5.5140   93.0180 N.2   301  IMH301     -0.2415
     19  C4         8.7460    5.5570   93.0250 C.2   301  IMH301      0.1059
@<TRIPOS>BOND
     1     8     7    1
     2     6     5    1
     3     7     9    1
     4     7     5    1
     5     9     4    1
     6     9    10    1
     7     5     3    1
     8     4     3    1
     9    10    11    2
    10    10    19    1
    11     3     2    1
    12    11    12    1
    13    18    19    2
    14    18    17    1
    15    19    13    1
    16    12    13    2
    17    13    14    1
    18    17    16    1
    19     2     1    1
    20    16    14    2
    21    14    15    2
