@<TRIPOS>MOLECULE
1nw5_SAM_A_1.pdb
 27 29 0 0 0
SMALL
GASTEIGER

@<TRIPOS>ATOM
      1  N         26.5530   16.9510    0.1820 N.3   401  SAM401     -0.1208
      2  CA        26.6910   16.9820   -1.2790 C.3   401  SAM401      0.1952
      3  C         26.7070   15.5780   -1.9060 C.2   401  SAM401      0.3819
      4  O         26.8530   15.4790   -3.1280 O.co2 401  SAM401     -0.2441
      5  OXT       26.5610   14.6140   -1.1460 O.co2 401  SAM401     -0.2441
      6  CB        27.9940   17.6990   -1.7220 C.3   401  SAM401      0.0414
      7  CG        27.9200   19.2490   -1.5940 C.3   401  SAM401      0.0503
      8  SD        29.4590   20.1320   -2.0780 S.3   401  SAM401     -0.1761
      9  CE        30.5550   19.9410   -0.6360 C.3   401  SAM401      0.0590
     10  C5'       29.0000   21.8750   -2.1740 C.3   401  SAM401      0.0806
     11  C4'       28.1210   22.2410   -3.3800 C.3   401  SAM401      0.1622
     12  O4'       27.7670   23.6090   -3.3560 O.3   401  SAM401     -0.3153
     13  C3'       28.7410   21.9740   -4.7670 C.3   401  SAM401      0.2168
     14  O3'       28.0630   20.9470   -5.4800 O.3   401  SAM401     -0.2175
     15  C2'       28.8200   23.3610   -5.4010 C.3   401  SAM401      0.2569
     16  O2'       28.4440   23.3480   -6.7790 O.3   401  SAM401     -0.2130
     17  C1'       27.7070   24.1130   -4.6670 C.3   401  SAM401      0.3185
     18  N9        27.8700   25.5720   -4.5350 N.pl3 401  SAM401     -0.1439
     19  C8        28.9550   26.3660   -4.3770 C.3   401  SAM401      0.3377
     20  N7        28.6560   27.6680   -4.2810 N.2   401  SAM401     -0.2095
     21  C5        27.2640   27.7470   -4.3810 C.2   401  SAM401      0.2526
     22  C6        26.2800   28.7290   -4.3590 C.2   401  SAM401      0.4393
     23  N6        26.5870   30.0440   -4.2040 N.pl3 401  SAM401      0.2180
     24  N1        24.9470   28.4030   -4.4920 N.2   401  SAM401      0.0021
     25  C2        24.5890   27.1090   -4.6490 C.3   401  SAM401      0.5254
     26  N3        25.4790   26.0980   -4.6800 N.2   401  SAM401     -0.0055
     27  C4        26.7890   26.4310   -4.5440 C.2   401  SAM401      0.3518
@<TRIPOS>BOND
     1    16    15    1
     2    14    13    1
     3    15    13    1
     4    15    17    1
     5    13    11    1
     6    26    25    1
     7    26    27    2
     8    17    18    1
     9    17    12    1
    10    25    24    1
    11    27    18    1
    12    27    21    1
    13    18    19    1
    14    24    22    2
    15    21    22    1
    16    21    20    2
    17    19    20    1
    18    22    23    1
    19    11    12    1
    20    11    10    1
    21     4     3   ar
    22    10     8    1
    23     8     7    1
    24     8     9    1
    25     3     2    1
    26     3     5   ar
    27     6     7    1
    28     6     2    1
    29     2     1    1
