@<TRIPOS>MOLECULE
1nw6_SFG_A_1.pdb
 27 29 0 0 0
SMALL
GASTEIGER

@<TRIPOS>ATOM
      1  N         31.6860   21.0320    2.2570 N.3   401  SFG401     -0.1208
      2  CA        32.3070   20.1710    1.2430 C.3   401  SFG401      0.1944
      3  C         33.6790   20.6710    0.7650 C.2   401  SFG401      0.3819
      4  O         33.7970   21.8900    0.4940 O.co2 401  SFG401     -0.2441
      5  OXT       34.6030   19.8220    0.6820 O.co2 401  SFG401     -0.2441
      6  CB        31.4410   19.9660   -0.0310 C.3   401  SFG401      0.0321
      7  CG        30.7860   21.2430   -0.6390 C.3   401  SFG401      0.0212
      8  CD        30.4940   21.1250   -2.1480 C.3   401  SFG401      0.0944
      9  NE        31.6940   20.7900   -2.9810 N.3   401  SFG401     -0.1328
     10  C5'       29.8420   22.4840   -2.4710 C.3   401  SFG401      0.0514
     11  C4'       28.6200   22.4410   -3.4270 C.3   401  SFG401      0.1537
     12  O4'       27.8950   23.6690   -3.4050 O.3   401  SFG401     -0.3161
     13  C3'       28.9010   22.1460   -4.9140 C.3   401  SFG401      0.2159
     14  O3'       28.0470   21.1560   -5.4590 O.3   401  SFG401     -0.2175
     15  C2'       28.8690   23.5370   -5.5450 C.3   401  SFG401      0.2569
     16  O2'       28.3970   23.5140   -6.9010 O.3   401  SFG401     -0.2130
     17  C1'       27.7700   24.2270   -4.7190 C.3   401  SFG401      0.3185
     18  N9        27.9110   25.6920   -4.5640 N.pl3 401  SFG401     -0.1439
     19  C8        28.9930   26.4970   -4.4170 C.3   401  SFG401      0.3377
     20  N7        28.6820   27.8000   -4.2930 N.2   401  SFG401     -0.2095
     21  C5        27.2890   27.8640   -4.3600 C.2   401  SFG401      0.2526
     22  C6        26.2900   28.8410   -4.3050 C.2   401  SFG401      0.4393
     23  N6        26.5860   30.1560   -4.1440 N.pl3 401  SFG401      0.2180
     24  N1        24.9610   28.5060   -4.4130 N.2   401  SFG401      0.0021
     25  C2        24.6080   27.2070   -4.5780 C.3   401  SFG401      0.5254
     26  N3        25.5080   26.1970   -4.6430 N.2   401  SFG401     -0.0055
     27  C4        26.8230   26.5400   -4.5340 C.2   401  SFG401      0.3518
@<TRIPOS>BOND
     1    16    15    1
     2    15    13    1
     3    15    17    1
     4    14    13    1
     5    13    11    1
     6    17    18    1
     7    17    12    1
     8    26    25    1
     9    26    27    2
    10    25    24    1
    11    18    27    1
    12    18    19    1
    13    27    21    1
    14    19    20    1
    15    24    22    2
    16    21    22    1
    17    21    20    2
    18    22    23    1
    19    11    12    1
    20    11    10    1
    21     9     8    1
    22    10     8    1
    23     8     7    1
    24     7     6    1
    25     6     2    1
    26     4     3   ar
    27     5     3   ar
    28     3     2    1
    29     2     1    1
