@<TRIPOS>MOLECULE
1nw7_SAH_A_1.pdb
 26 28 0 0 0
SMALL
GASTEIGER

@<TRIPOS>ATOM
      1  N         32.1050   21.0830    2.2810 N.3   401  SAH401     -0.1208
      2  CA        32.7850   20.0740    1.4480 C.3   401  SAH401      0.1952
      3  CB        31.9580   19.8100    0.1710 C.3   401  SAH401      0.0422
      4  CG        31.6500   21.0980   -0.6090 C.3   401  SAH401      0.0597
      5  SD        30.6180   20.8150   -2.1010 S.3   401  SAH401     -0.1375
      6  C         34.2000   20.5660    1.0980 C.2   401  SAH401      0.3819
      7  O         34.4940   21.7350    1.4270 O.co2 401  SAH401     -0.2441
      8  OXT       34.9560   19.7570    0.5160 O.co2 401  SAH401     -0.2441
      9  C5'       29.9130   22.4910   -2.2940 C.3   401  SAH401      0.0899
     10  C4'       28.7790   22.5530   -3.3240 C.3   401  SAH401      0.1630
     11  O4'       28.1780   23.8750   -3.2700 O.3   401  SAH401     -0.3153
     12  C3'       29.2820   22.3550   -4.7600 C.3   401  SAH401      0.2168
     13  O3'       28.4320   21.4190   -5.4340 O.3   401  SAH401     -0.2175
     14  C2'       29.1710   23.7270   -5.4020 C.3   401  SAH401      0.2569
     15  O2'       28.7690   23.5900   -6.7710 O.3   401  SAH401     -0.2130
     16  C1'       28.0440   24.3860   -4.6220 C.3   401  SAH401      0.3185
     17  N9        28.0850   25.8850   -4.6170 N.pl3 401  SAH401     -0.1439
     18  C8        29.1840   26.6590   -4.5410 C.3   401  SAH401      0.3377
     19  N7        28.8160   27.9420   -4.4650 N.2   401  SAH401     -0.2095
     20  C5        27.4860   27.9840   -4.4980 C.2   401  SAH401      0.2526
     21  C6        26.5480   29.0200   -4.4490 C.2   401  SAH401      0.4393
     22  N6        26.9470   30.2940   -4.3680 N.pl3 401  SAH401      0.2180
     23  N1        25.2240   28.7190   -4.5010 N.2   401  SAH401      0.0021
     24  C2        24.8080   27.4470   -4.6010 C.3   401  SAH401      0.5254
     25  N3        25.6890   26.4410   -4.6500 N.2   401  SAH401     -0.0055
     26  C4        27.0230   26.6820   -4.5990 C.2   401  SAH401      0.3518
@<TRIPOS>BOND
     1    15    14    1
     2    13    12    1
     3    14    12    1
     4    14    16    1
     5    12    10    1
     6    25    24    1
     7    25    26    2
     8    16    17    1
     9    16    11    1
    10    17    26    1
    11    17    18    1
    12    24    23    1
    13    26    20    1
    14    18    19    1
    15    23    21    2
    16    20    19    2
    17    20    21    1
    18    21    22    1
    19    10    11    1
    20    10     9    1
    21     9     5    1
    22     5     4    1
    23     4     3    1
    24     3     2    1
    25     8     6   ar
    26     6     7   ar
    27     6     2    1
    28     2     1    1
