@<TRIPOS>MOLECULE
1nwe_FG1_A_1.pdb
 29 29 0 0 0
SMALL
GASTEIGER

@<TRIPOS>ATOM
      1  O30       39.3290   47.0880   51.5700 O.co2 1001  FG11001    -0.2353
      2  C27       39.3880   46.2270   52.4900 C.2   1001  FG11001     0.4422
      3  O28       40.4810   45.9340   53.0250 O.co2 1001  FG11001    -0.2353
      4  C26       38.2770   45.6060   52.9230 C.2   1001  FG11001     0.3491
      5  O29       37.1870   45.8510   52.4210 O.2   1001  FG11001    -0.2607
      6  N25       38.4470   44.7060   53.9020 N.am  1001  FG11001    -0.1698
      7  C22       37.4640   44.1370   54.6650 C.ar  1001  FG11001     0.0739
      8  C23       37.8400   43.2070   55.6320 C.ar  1001  FG11001     0.0163
      9  C24       36.8930   42.5810   56.4360 C.ar  1001  FG11001    -0.0029
     10  C19       35.5470   42.8820   56.2880 C.ar  1001  FG11001    -0.0203
     11  C20       35.1560   43.8050   55.3240 C.ar  1001  FG11001    -0.0029
     12  C21       36.1070   44.4290   54.5140 C.ar  1001  FG11001     0.0163
     13  C18       34.5150   42.2090   57.1640 C.3   1001  FG11001     0.0498
     14  C17       34.4000   42.9570   58.4910 C.3   1001  FG11001     0.1199
     15  N16       33.5540   42.2710   59.4520 N.am  1001  FG11001    -0.2036
     16  C12       32.3390   42.7310   59.8000 C.2   1001  FG11001     0.2639
     17  O13       31.6890   43.5390   59.1280 O.2   1001  FG11001    -0.2714
     18  C11       31.7790   42.1700   61.0720 C.3   1001  FG11001     0.2054
     19  N10       32.8370   41.6120   61.8850 N.am  1001  FG11001    -0.1950
     20  C8        33.0560   40.2940   61.9750 C.2   1001  FG11001     0.2436
     21  O9        33.8810   39.7210   61.2610 O.2   1001  FG11001    -0.2733
     22  C7        32.2210   39.5570   63.0220 C.3   1001  FG11001     0.1102
     23  C6        32.7500   38.1700   63.4120 C.3   1001  FG11001     0.1248
     24  N5        32.3600   37.2290   62.3510 N.am  1001  FG11001    -0.2049
     25  C3        31.1500   36.9420   61.8290 C.2   1001  FG11001     0.2419
     26  O4        30.0750   37.4580   62.1760 O.2   1001  FG11001    -0.2733
     27  C2        31.1940   35.9050   60.7380 C.3   1001  FG11001     0.0964
     28  C14       31.0100   43.2340   61.8450 C.3   1001  FG11001     0.2130
     29  O15       29.8130   42.6530   62.3660 O.3   1001  FG11001    -0.2179
@<TRIPOS>BOND
     1     1     2   ar
     2     5     4    2
     3     2     4    1
     4     2     3   ar
     5     4     6   am
     6     6     7    1
     7    12     7   ar
     8    12    11   ar
     9     7     8   ar
    10    11    10   ar
    11     8     9   ar
    12    10     9   ar
    13    10    13    1
    14    13    14    1
    15    14    15    1
    16    17    16    2
    17    15    16   am
    18    16    18    1
    19    27    25    1
    20    18    28    1
    21    18    19    1
    22    21    20    2
    23    25    26    2
    24    25    24   am
    25    28    29    1
    26    19    20   am
    27    20    22    1
    28    24    23    1
    29    22    23    1
