@<TRIPOS>MOLECULE
1nwg_BGN_B_1.pdb
 17 17 0 0 0
SMALL
GASTEIGER

@<TRIPOS>ATOM
      1  C1         2.4380   -2.3320   17.8220 C.3   403  BGN403      0.2917
      2  C2         1.7330   -3.1270   18.9250 C.3   403  BGN403      0.1871
      3  C3         1.8240   -2.3160   20.2260 C.3   403  BGN403      0.2095
      4  C4         3.2650   -2.0670   20.5790 C.3   403  BGN403      0.2136
      5  C5         3.9860   -1.3470   19.4140 C.3   403  BGN403      0.1835
      6  C6         5.4930   -1.2310   19.6120 C.3   403  BGN403      0.2142
      7  C7        -0.0370   -4.6390   18.1500 C.2   403  BGN403      0.2415
      8  C8        -1.5160   -4.8080   17.8620 C.3   403  BGN403      0.0868
      9  C9        -1.8680   -3.9010   16.6830 C.3   403  BGN403      0.0096
     10  C10       -1.4990   -4.5990   15.3860 C.3   403  BGN403      0.0005
     11  N2         0.3190   -3.4090   18.5930 N.am  403  BGN403     -0.1992
     12  O1         2.4020   -3.0590   16.6220 O.3   403  BGN403     -0.1879
     13  O3         1.1670   -3.0260   21.3100 O.3   403  BGN403     -0.2183
     14  O4         3.3690   -1.2220   21.7160 O.3   403  BGN403     -0.2176
     15  O5         3.7870   -2.0930   18.1970 O.3   403  BGN403     -0.3242
     16  O6         6.0770   -2.5370   19.7280 O.3   403  BGN403     -0.2176
     17  O7         0.7430   -5.5690   17.9860 O.2   403  BGN403     -0.2733
@<TRIPOS>BOND
     1    10     9    1
     2    12     1    1
     3     9     8    1
     4     1    15    1
     5     1     2    1
     6     8     7    1
     7    17     7    2
     8     7    11   am
     9    15     5    1
    10    11     2    1
    11     2     3    1
    12     5     6    1
    13     5     4    1
    14     6    16    1
    15     3     4    1
    16     3    13    1
    17     4    14    1
