@<TRIPOS>MOLECULE
1nwi_HEM_A_1.pdb
 43 50 0 0 0
SMALL
GASTEIGER

@<TRIPOS>ATOM
      1 FE         30.1710   -1.2920   12.9140 Fe    147  HEM147      0.0000
      2  CHA       28.5200    0.7760   15.1550 C.2   147  HEM147      0.0000
      3  CHB       33.1180   -0.6820   14.5840 C.2   147  HEM147      0.0000
      4  CHC       32.0220   -2.2950   10.1380 C.2   147  HEM147      0.0000
      5  CHD       27.4210   -1.0560   10.7990 C.2   147  HEM147      0.0000
      6  NA        30.6720   -0.2990   14.5900 N.2   147  HEM147      0.0000
      7  C1A       29.8310    0.3880   15.4580 C.2   147  HEM147      0.0000
      8  C2A       30.5500    0.7570   16.6590 C.2   147  HEM147      0.0000
      9  C3A       31.8320    0.3620   16.4920 C.2   147  HEM147      0.0000
     10  C4A       31.9260   -0.2490   15.1870 C.2   147  HEM147      0.0000
     11  CMA       32.9340    0.5090   17.5310 C.3   147  HEM147      0.0000
     12  CAA       30.0200    1.4180   17.9290 C.3   147  HEM147      0.0000
     13  CBA       29.5790    0.4270   19.0000 C.3   147  HEM147      0.0000
     14  CGA       28.3380   -0.3510   18.6000 C.2   147  HEM147      0.0000
     15  O1A       27.2700    0.2780   18.4330 O.co2 147  HEM147      0.0000
     16  O2A       28.4320   -1.5890   18.4510 O.co2 147  HEM147      0.0000
     17  NB        32.1420   -1.5240   12.4860 N.ar  147  HEM147      0.0000
     18  C1B       33.2140   -1.2920   13.3300 C.ar  147  HEM147      0.0000
     19  C2B       34.4570   -1.7610   12.7380 C.ar  147  HEM147      0.0000
     20  C3B       34.1650   -2.1900   11.4750 C.ar  147  HEM147      0.0000
     21  C4B       32.7230   -2.0140   11.3190 C.ar  147  HEM147      0.0000
     22  CMB       35.7980   -1.8350   13.4620 C.3   147  HEM147      0.0000
     23  CAB       35.0110   -2.7180   10.4940 C.3   147  HEM147      0.0000
     24  CBB       36.4550   -2.8360   10.4970 C.3   147  HEM147      0.0000
     25  NC        29.7770   -1.7230   10.9340 N.2   147  HEM147      0.0000
     26  C1C       30.6500   -2.1850    9.9660 C.2   147  HEM147      0.0000
     27  C2C       29.9630   -2.5070    8.7240 C.2   147  HEM147      0.0000
     28  C3C       28.6480   -2.1880    8.9120 C.2   147  HEM147      0.0000
     29  C4C       28.5560   -1.6710   10.2800 C.2   147  HEM147      0.0000
     30  CMC       30.6300   -3.0680    7.4670 C.3   147  HEM147      0.0000
     31  CAC       27.5620   -2.2960    8.0350 C.3   147  HEM147      0.0000
     32  CBC       27.5850   -2.7080    6.6520 C.3   147  HEM147      0.0000
     33  ND        28.3700   -0.3490   12.9600 N.ar  147  HEM147      0.0000
     34  C1D       27.3510   -0.4050   12.0140 C.ar  147  HEM147      0.0000
     35  C2D       26.2250    0.4250   12.3990 C.ar  147  HEM147      0.0000
     36  C3D       26.5600    1.0070   13.5750 C.ar  147  HEM147      0.0000
     37  C4D       27.8690    0.4870   13.9520 C.ar  147  HEM147      0.0000
     38  CMD       24.9260    0.6590   11.6370 C.3   147  HEM147      0.0000
     39  CAD       25.7530    2.0860   14.2950 C.3   147  HEM147      0.0000
     40  CBD       26.1500    3.5010   13.8920 C.3   147  HEM147      0.0000
     41  CGD       25.3870    4.5640   14.6590 C.2   147  HEM147      0.0000
     42  O1D       24.1390    4.5680   14.5960 O.co2 147  HEM147      0.0000
     43  O2D       26.0350    5.3990   15.3250 O.co2 147  HEM147      0.0000
@<TRIPOS>BOND
     1    32    31    1
     2    30    27    1
     3    31    28    1
     4    27    28    2
     5    27    26    1
     6    28    29    1
     7    26     4    2
     8    26    25    1
     9     4    21    1
    10    29     5    1
    11    29    25    2
    12    23    24    1
    13    23    20    1
    14     5    34    2
    15    25     1    1
    16    21    20   ar
    17    21    17   ar
    18    20    19   ar
    19    38    35    1
    20    34    35   ar
    21    34    33   ar
    22    35    36   ar
    23    17     1    1
    24    17    18   ar
    25    19    18   ar
    26    19    22    1
    27     1    33    1
    28     1     6    1
    29    33    37   ar
    30    18     3    1
    31    36    37   ar
    32    36    39    1
    33    40    39    1
    34    40    41    1
    35    37     2    2
    36     3    10    2
    37     6    10    1
    38     6     7    2
    39    42    41   ar
    40    41    43   ar
    41     2     7    1
    42    10     9    1
    43     7     8    1
    44     9     8    2
    45     9    11    1
    46     8    12    1
    47    12    13    1
    48    15    14   ar
    49    16    14   ar
    50    14    13    1
