@<TRIPOS>MOLECULE
1nwk_RHO_A_1.pdb
 36 40 0 0 0
SMALL
GASTEIGER

@<TRIPOS>ATOM
      1  C         -1.8770   -1.5620   -0.5290 C.ar  1381  RHO1381     0.0510
      2  C1        -2.5590   -0.6210    0.2940 C.ar  1381  RHO1381     0.0514
      3  C2        -3.2850   -1.0310    1.4340 C.ar  1381  RHO1381     0.1405
      4  C3        -3.3830   -2.4110    1.8470 C.ar  1381  RHO1381     0.0339
      5  C4        -2.6800   -3.3480    1.0110 C.ar  1381  RHO1381     0.0043
      6  C5        -1.9540   -2.9400   -0.1410 C.ar  1381  RHO1381     0.0147
      7  N         -1.1210   -1.0970   -1.7580 N.pl3 1381  RHO1381    -0.3040
      8  C6        -1.0380    0.2320   -2.1440 C.3   1381  RHO1381     0.1122
      9  C7        -0.4490   -1.9550   -2.6180 C.3   1381  RHO1381     0.1122
     10  OH1       -3.9230    0.0010    2.1260 O.3   1381  RHO1381    -0.4702
     11  C8        -4.1760   -2.6800    3.0310 C.2   1381  RHO1381     0.0028
     12  C9        -4.6820   -0.2680    3.2650 C.3   1381  RHO1381     0.2115
     13  C10       -5.3080    0.8480    3.8750 C.2   1381  RHO1381     0.0357
     14  C11       -6.1190    0.7000    5.0480 C.2   1381  RHO1381     0.0474
     15  C12       -6.2360   -0.6290    5.5810 C.2   1381  RHO1381     0.0141
     16  C13       -5.6100   -1.7340    4.9520 C.2   1381  RHO1381     0.0008
     17  C14       -4.8170   -1.6030    3.7640 C.2   1381  RHO1381     0.0217
     18  N1        -6.7770    1.7960    5.6350 N.pl3 1381  RHO1381    -0.3042
     19  C15       -6.8380    3.0700    5.0750 C.3   1381  RHO1381     0.1122
     20  C16       -7.5540    1.6760    6.7840 C.3   1381  RHO1381     0.1122
     21  C17       -4.6030   -4.1600    3.2260 C.ar  1381  RHO1381     0.0064
     22  C18       -4.0320   -4.8060    4.3910 C.ar  1381  RHO1381     0.0810
     23  C19       -4.4440   -6.1400    4.6860 C.ar  1381  RHO1381     0.0219
     24  C20       -5.3810   -6.8990    3.9020 C.ar  1381  RHO1381     0.0615
     25  C21       -5.9050   -6.2280    2.7430 C.ar  1381  RHO1381     0.0153
     26  C22       -5.5270   -4.9000    2.4160 C.ar  1381  RHO1381     0.0015
     27  C23       -3.0430   -4.2350    5.4090 C.2   1381  RHO1381     0.3878
     28  OH2       -3.2950   -4.1240    6.6300 O.co2 1381  RHO1381    -0.2406
     29  OH3       -1.9480   -3.8160    4.9830 O.co2 1381  RHO1381    -0.2406
     30  N2        -5.8090   -8.2610    4.2270 N.am  1381  RHO1381    -0.2011
     31  C24       -5.0150   -9.1150    4.8860 C.2   1381  RHO1381     0.2590
     32  OH4       -3.8840   -8.9690    5.3130 O.2   1381  RHO1381    -0.2691
     33  C25       -5.7770  -10.2910    5.0060 C.2   1381  RHO1381     0.0634
     34  C26       -6.9990  -10.0790    4.4090 C.2   1381  RHO1381     0.0634
     35  C27       -7.0130   -8.7600    3.9080 C.2   1381  RHO1381     0.2590
     36  OH5       -7.9450   -8.2410    3.3200 O.2   1381  RHO1381    -0.2691
@<TRIPOS>BOND
     1     9     7    1
     2     8     7    1
     3     7     1    1
     4     1     6   ar
     5     1     2   ar
     6     6     5   ar
     7     2     3   ar
     8     5     4   ar
     9     3     4   ar
    10     3    10    1
    11     4    11    1
    12    10    12    1
    13    26    25   ar
    14    26    21   ar
    15    25    24   ar
    16    11    21    1
    17    11    17    2
    18    21    22   ar
    19    12    17    1
    20    12    13    1
    21    36    35    2
    22    17    16    1
    23    13    14    2
    24    24    30    1
    25    24    23   ar
    26    35    30   am
    27    35    34    1
    28    30    31   am
    29    22    23   ar
    30    22    27    1
    31    34    33    2
    32    31    33    1
    33    31    32    2
    34    16    15    2
    35    29    27   ar
    36    14    15    1
    37    14    18    1
    38    19    18    1
    39    27    28   ar
    40    18    20    1
