@<TRIPOS>MOLECULE
1nwk_ANP_A_1.pdb
 31 33 0 0 0
SMALL
GASTEIGER

@<TRIPOS>ATOM
      1  PG         6.5440   -1.9890   24.3840 P.3   1380  ANP1380     0.4884
      2  O1G        7.5780   -2.6720   25.2060 O.3   1380  ANP1380    -0.1240
      3  O2G        6.7520   -2.0710   22.9290 O.2   1380  ANP1380    -0.2331
      4  O3G        5.1960   -2.5040   24.6860 O.3   1380  ANP1380    -0.1240
      5  PB         6.4840    1.0010   24.0880 P.3   1380  ANP1380     0.4669
      6  O1B        5.7070    0.9990   22.8800 O.2   1380  ANP1380    -0.2351
      7  O2B        5.9910    1.9710   25.0690 O.3   1380  ANP1380    -0.1253
      8  N3B        6.4480   -0.4330   24.7990 N.3   1380  ANP1380    -0.0163
      9  PA         8.6530    2.3210   22.7220 P.3   1380  ANP1380     0.2220
     10  O1A        8.9680    1.6350   21.4610 O.2   1380  ANP1380    -0.5170
     11  O2A        7.8000    3.4910   22.6760 O.3   1380  ANP1380    -0.4370
     12  O3A        8.0180    1.3220   23.7410 O.3   1380  ANP1380    -0.2360
     13  O5'       10.0550    2.7340   23.3640 O.3   1380  ANP1380    -0.3111
     14  C5'       10.2330    3.4520   24.6170 C.3   1380  ANP1380     0.1813
     15  C4'       11.3810    2.8300   25.3710 C.3   1380  ANP1380     0.1821
     16  O4'       12.4960    3.0960   24.5150 O.3   1380  ANP1380    -0.3135
     17  C3'       11.8100    3.4110   26.7550 C.3   1380  ANP1380     0.2184
     18  O3'       12.2900    2.4390   27.6950 O.3   1380  ANP1380    -0.2174
     19  C2'       12.8640    4.4220   26.3610 C.3   1380  ANP1380     0.2570
     20  O2'       13.7820    4.8700   27.3520 O.3   1380  ANP1380    -0.2130
     21  C1'       13.5790    3.7470   25.2090 C.3   1380  ANP1380     0.3186
     22  N9        14.2870    4.7520   24.3180 N.pl3 1380  ANP1380    -0.1439
     23  C8        13.7470    5.8360   23.5970 C.3   1380  ANP1380     0.3377
     24  N7        14.6600    6.5080   22.9210 N.2   1380  ANP1380    -0.2095
     25  C5        15.8710    5.8470   23.2030 C.2   1380  ANP1380     0.2526
     26  C6        17.2550    6.0880   22.7730 C.2   1380  ANP1380     0.4393
     27  N6        17.6460    7.0680   21.9660 N.pl3 1380  ANP1380     0.2180
     28  N1        18.2320    5.1990   23.2670 N.2   1380  ANP1380     0.0021
     29  C2        17.8250    4.1590   24.1260 C.3   1380  ANP1380     0.5254
     30  N3        16.5620    3.8730   24.5700 N.2   1380  ANP1380    -0.0055
     31  C4        15.6450    4.7690   24.0590 C.2   1380  ANP1380     0.3518
@<TRIPOS>BOND
     1    10     9    2
     2    27    26    1
     3    11     9    1
     4     9    13    1
     5     9    12    1
     6    26    25    1
     7    26    28    2
     8     6     5    2
     9    24    25    2
    10    24    23    1
    11     3     1    2
    12    25    31    1
    13    28    29    1
    14    13    14    1
    15    23    22    1
    16    12     5    1
    17    31    22    1
    18    31    30    2
    19     5     8    1
    20     5     7    1
    21    29    30    1
    22    22    21    1
    23     1     4    1
    24     1     8    1
    25     1     2    1
    26    16    21    1
    27    16    15    1
    28    14    15    1
    29    21    19    1
    30    15    17    1
    31    19    17    1
    32    19    20    1
    33    17    18    1
