@<TRIPOS>MOLECULE
1nwl_964_A_1.pdb
 31 32 0 0 0
SMALL
GASTEIGER

@<TRIPOS>ATOM
      1  O31       49.0630   34.6970   40.0850 O.co2 501  964501     -0.2388
      2  C1        64.6830   31.1400   31.4810 C.3   501  964501      0.0964
      3  C2        64.0760   30.2340   32.5470 C.2   501  964501      0.2419
      4  N4        62.7840   30.3600   32.8530 N.am  501  964501     -0.2044
      5  O3        64.7920   29.4170   33.1020 O.2   501  964501     -0.2733
      6  C29       49.3350   33.4820   40.1650 C.2   501  964501      0.4067
      7  O30       49.5920   32.9380   41.2570 O.co2 501  964501     -0.2388
      8  C24       49.6870   32.7420   38.9110 C.ar  501  964501      0.1830
      9  N25       48.8090   31.8350   38.4190 N.ar  501  964501     -0.2340
     10  C26       49.0880   31.1520   37.2990 C.ar  501  964501      0.1197
     11  C27       50.2930   31.3780   36.6360 C.ar  501  964501      0.1197
     12  N28       51.1660   32.2750   37.1210 N.ar  501  964501     -0.2358
     13  C22       50.8940   32.9710   38.2530 C.ar  501  964501      0.1602
     14  C21       51.9830   33.8610   38.8560 C.2   501  964501      0.2842
     15  O23       52.1610   33.8640   40.0630 O.2   501  964501     -0.2667
     16  N20       52.9390   34.4840   37.9610 N.am  501  964501     -0.2021
     17  C17       54.3650   34.1790   38.0290 C.3   501  964501      0.0957
     18  C18       55.1120   35.4000   37.4790 C.3   501  964501      0.0222
     19  C19       54.9140   35.6230   35.9770 C.3   501  964501      0.0109
     20  C16       54.6070   32.9360   37.1670 C.3   501  964501      0.0222
     21  C15       54.4090   33.1840   35.6690 C.3   501  964501      0.0109
     22  C13       55.2330   34.3690   35.1610 C.3   501  964501      0.0783
     23  C12       54.9470   34.6260   33.6830 C.2   501  964501      0.2409
     24  O14       53.8030   34.6500   33.2500 O.2   501  964501     -0.2734
     25  N11       56.1040   34.8420   32.8380 N.am  501  964501     -0.2045
     26  C10       56.5060   33.8630   31.8480 C.3   501  964501      0.1276
     27  C9        57.6630   33.0370   32.3930 C.3   501  964501      0.0920
     28  S7        60.5830   32.4370   32.7560 S.3   501  964501     -0.0802
     29  C5        61.7380   30.1680   31.8640 C.3   501  964501      0.1276
     30  C6        60.4070   30.7290   32.3560 C.3   501  964501      0.0920
     31  S8        59.1630   33.5190   31.8580 S.3   501  964501     -0.0802
@<TRIPOS>BOND
     1     2     3    1
     2    26    27    1
     3    26    25    1
     4    31    27    1
     5    31    28    1
     6    29    30    1
     7    29     4    1
     8    30    28    1
     9     3     4   am
    10     3     5    2
    11    25    23   am
    12    24    23    2
    13    23    22    1
    14    22    21    1
    15    22    19    1
    16    21    20    1
    17    19    18    1
    18    11    12   ar
    19    11    10   ar
    20    12    13   ar
    21    20    17    1
    22    10     9   ar
    23    18    17    1
    24    16    17    1
    25    16    14   am
    26    13    14    1
    27    13     8   ar
    28     9     8   ar
    29    14    15    2
    30     8     6    1
    31     1     6   ar
    32     6     7   ar
