@<TRIPOS>MOLECULE
1nwn_HEM_A_1.pdb
 43 50 0 0 0
SMALL
GASTEIGER

@<TRIPOS>ATOM
      1 FE         42.7900   -2.2080   20.3210 Fe    147  HEM147      0.0000
      2  CHA       41.9070   -0.8740   17.2710 C.2   147  HEM147      0.0000
      3  CHB       39.5430   -1.9060   21.3960 C.2   147  HEM147      0.0000
      4  CHC       43.7210   -3.3230   23.4420 C.2   147  HEM147      0.0000
      5  CHD       45.9940   -2.6940   19.2040 C.2   147  HEM147      0.0000
      6  NA        41.0850   -1.4860   19.5200 N.2   147  HEM147      0.0000
      7  C1A       40.9040   -1.0070   18.2450 C.2   147  HEM147      0.0000
      8  C2A       39.5350   -0.5890   18.0590 C.2   147  HEM147      0.0000
      9  C3A       38.8610   -0.8620   19.1920 C.2   147  HEM147      0.0000
     10  C4A       39.8340   -1.4090   20.1210 C.2   147  HEM147      0.0000
     11  CMA       37.3710   -0.6680   19.4140 C.3   147  HEM147      0.0000
     12  CAA       39.0000    0.0460   16.7900 C.3   147  HEM147      0.0000
     13  CBA       38.6190   -1.0240   15.7880 C.3   147  HEM147      0.0000
     14  CGA       38.4600   -0.4770   14.3750 C.2   147  HEM147      0.0000
     15  O1A       37.3830    0.0830   14.0660 O.co2 147  HEM147      0.0000
     16  O2A       39.4130   -0.6100   13.5750 O.co2 147  HEM147      0.0000
     17  NB        41.8250   -2.5810   22.0450 N.ar  147  HEM147      0.0000
     18  C1B       40.4670   -2.4730   22.2810 C.ar  147  HEM147      0.0000
     19  C2B       40.1380   -2.9220   23.6190 C.ar  147  HEM147      0.0000
     20  C3B       41.3210   -3.2220   24.2480 C.ar  147  HEM147      0.0000
     21  C4B       42.3620   -3.0310   23.2420 C.ar  147  HEM147      0.0000
     22  CMB       38.7220   -3.1270   24.1410 C.3   147  HEM147      0.0000
     23  CAB       41.5730   -3.6700   25.5510 C.3   147  HEM147      0.0000
     24  CBB       40.9440   -3.2800   26.7920 C.3   147  HEM147      0.0000
     25  NC        44.5130   -2.8390   21.1830 N.2   147  HEM147      0.0000
     26  C1C       44.7090   -3.2740   22.4630 C.2   147  HEM147      0.0000
     27  C2C       46.1060   -3.6000   22.6850 C.2   147  HEM147      0.0000
     28  C3C       46.7850   -3.3180   21.5360 C.2   147  HEM147      0.0000
     29  C4C       45.7570   -2.9450   20.5690 C.2   147  HEM147      0.0000
     30  CMC       46.7020   -4.1870   23.9600 C.3   147  HEM147      0.0000
     31  CAC       48.1670   -3.1360   21.3910 C.3   147  HEM147      0.0000
     32  CBC       49.1290   -4.1530   21.0080 C.3   147  HEM147      0.0000
     33  ND        43.7510   -1.8210   18.5950 N.ar  147  HEM147      0.0000
     34  C1D       45.0840   -2.0970   18.3040 C.ar  147  HEM147      0.0000
     35  C2D       45.4310   -1.5600   16.9930 C.ar  147  HEM147      0.0000
     36  C3D       44.3360   -0.9470   16.5180 C.ar  147  HEM147      0.0000
     37  C4D       43.2460   -1.1980   17.4570 C.ar  147  HEM147      0.0000
     38  CMD       46.7800   -1.6300   16.2900 C.3   147  HEM147      0.0000
     39  CAD       44.3500   -0.0580   15.3020 C.3   147  HEM147      0.0000
     40  CBD       44.4310    1.4320   15.5890 C.3   147  HEM147      0.0000
     41  CGD       44.0300    2.2480   14.3800 C.2   147  HEM147      0.0000
     42  O1D       44.7590    2.2220   13.3670 O.co2 147  HEM147      0.0000
     43  O2D       42.9740    2.9080   14.4400 O.co2 147  HEM147      0.0000
@<TRIPOS>BOND
     1    42    41   ar
     2    16    14   ar
     3    15    14   ar
     4    14    13    1
     5    41    43   ar
     6    41    40    1
     7    39    40    1
     8    39    36    1
     9    13    12    1
    10    38    35    1
    11    36    35   ar
    12    36    37   ar
    13    12     8    1
    14    35    34   ar
    15     2    37    2
    16     2     7    1
    17    37    33   ar
    18     8     7    1
    19     8     9    2
    20     7     6    2
    21    34    33   ar
    22    34     5    2
    23    33     1    1
    24     9    11    1
    25     9    10    1
    26     5    29    1
    27     6    10    1
    28     6     1    1
    29    10     3    2
    30     1    25    1
    31     1    17    1
    32    29    25    2
    33    29    28    1
    34    32    31    1
    35    25    26    1
    36    31    28    1
    37     3    18    1
    38    28    27    2
    39    17    18   ar
    40    17    21   ar
    41    18    19   ar
    42    26    27    1
    43    26     4    2
    44    27    30    1
    45    21     4    1
    46    21    20   ar
    47    19    22    1
    48    19    20   ar
    49    20    23    1
    50    23    24    1
