@<TRIPOS>MOLECULE
1nwr_NAG_A_1.pdb
 14 14 0 0 0
SMALL
GASTEIGER

@<TRIPOS>ATOM
      1  C1        49.8440   -2.6620   41.5690 C.3   411  NAG411      0.1665
      2  C2        50.3910   -1.3580   40.9720 C.3   411  NAG411      0.1576
      3  C3        51.7180   -1.6080   40.2440 C.3   411  NAG411      0.2069
      4  C4        52.7140   -2.2960   41.1890 C.3   411  NAG411      0.2134
      5  C5        52.0690   -3.5750   41.7280 C.3   411  NAG411      0.1809
      6  C6        52.9550   -4.3480   42.6840 C.3   411  NAG411      0.2141
      7  C7        48.5680    0.1200   40.5030 C.2   411  NAG411      0.2420
      8  C8        47.6700    0.7920   39.4660 C.3   411  NAG411      0.0964
      9  N2        49.4270   -0.7910   40.0550 N.am  411  NAG411     -0.2019
     10  O3        52.2560   -0.3780   39.7710 O.3   411  NAG411     -0.2184
     11  O4        53.9130   -2.6290   40.4650 O.3   411  NAG411     -0.2176
     12  O5        50.8370   -3.2600   42.4280 O.3   411  NAG411     -0.3489
     13  O6        53.2900   -3.5750   43.8250 O.3   411  NAG411     -0.2176
     14  O7        48.4790    0.4280   41.7040 O.2   411  NAG411     -0.2733
@<TRIPOS>BOND
     1     8     7    1
     2    10     3    1
     3     9     7   am
     4     9     2    1
     5     3     2    1
     6     3     4    1
     7    11     4    1
     8     7    14    2
     9     2     1    1
    10     4     5    1
    11     1    12    1
    12     5    12    1
    13     5     6    1
    14     6    13    1
