@<TRIPOS>MOLECULE
1nws_NAG_A_1.pdb
 14 14 0 0 0
SMALL
GASTEIGER

@<TRIPOS>ATOM
      1  C1        50.3340   -2.7550   41.5560 C.3   411  NAG411      0.1665
      2  C2        50.8490   -1.4470   40.9330 C.3   411  NAG411      0.1576
      3  C3        52.1260   -1.7030   40.1410 C.3   411  NAG411      0.2069
      4  C4        53.1660   -2.4090   41.0180 C.3   411  NAG411      0.2134
      5  C5        52.5510   -3.6750   41.6180 C.3   411  NAG411      0.1809
      6  C6        53.5060   -4.3930   42.5570 C.3   411  NAG411      0.2141
      7  C7        49.2730    0.2600   40.3710 C.2   411  NAG411      0.2420
      8  C8        48.8990    1.1830   39.2200 C.3   411  NAG411      0.0964
      9  N2        49.8510   -0.8880   40.0520 N.am  411  NAG411     -0.2019
     10  O3        52.6450   -0.4710   39.6630 O.3   411  NAG411     -0.2184
     11  O4        54.3010   -2.7770   40.2130 O.3   411  NAG411     -0.2176
     12  O5        51.3570   -3.3510   42.3690 O.3   411  NAG411     -0.3489
     13  O6        53.4660   -3.8470   43.8690 O.3   411  NAG411     -0.2176
     14  O7        49.0420    0.5910   41.5420 O.2   411  NAG411     -0.2733
@<TRIPOS>BOND
     1     8     7    1
     2    10     3    1
     3     9     7   am
     4     9     2    1
     5     3     2    1
     6     3     4    1
     7    11     4    1
     8     7    14    2
     9     2     1    1
    10     4     5    1
    11     1    12    1
    12     5    12    1
    13     5     6    1
    14     6    13    1
