@<TRIPOS>MOLECULE
1nwt_NAG_A_1.pdb
 14 14 0 0 0
SMALL
GASTEIGER

@<TRIPOS>ATOM
      1  C1        50.0870   -2.1430   41.5620 C.3   411  NAG411      0.1665
      2  C2        50.6300   -0.8190   41.0160 C.3   411  NAG411      0.1576
      3  C3        51.9460   -1.0650   40.2730 C.3   411  NAG411      0.2069
      4  C4        52.9390   -1.8640   41.1260 C.3   411  NAG411      0.2134
      5  C5        52.2650   -3.1110   41.7140 C.3   411  NAG411      0.1809
      6  C6        53.1490   -3.8390   42.7100 C.3   411  NAG411      0.2141
      7  C7        49.0480    0.8940   40.4230 C.2   411  NAG411      0.2420
      8  C8        47.9760    1.3800   39.4590 C.3   411  NAG411      0.0964
      9  N2        49.6760   -0.2310   40.1000 N.am  411  NAG411     -0.2019
     10  O3        52.5290    0.1790   39.9170 O.3   411  NAG411     -0.2184
     11  O4        54.0490   -2.2710   40.3020 O.3   411  NAG411     -0.2176
     12  O5        51.0550   -2.7510   42.4170 O.3   411  NAG411     -0.3489
     13  O6        53.2880   -5.2100   42.3650 O.3   411  NAG411     -0.2176
     14  O7        49.2960    1.5370   41.4480 O.2   411  NAG411     -0.2733
@<TRIPOS>BOND
     1     8     7    1
     2    10     3    1
     3     9     7   am
     4     9     2    1
     5     3     2    1
     6     3     4    1
     7    11     4    1
     8     7    14    2
     9     2     1    1
    10     4     5    1
    11     1    12    1
    12     5    12    1
    13     5     6    1
    14    13     6    1
