@<TRIPOS>MOLECULE
1nwu_NAG_A_1.pdb
 15 15 0 0 0
SMALL
GASTEIGER

@<TRIPOS>ATOM
      1  C1        40.3720  -15.7400   23.5030 C.3     2  NAG2        0.2917
      2  C2        39.3460  -15.8840   24.6230 C.3     2  NAG2        0.1871
      3  C3        38.9430  -14.5140   25.1910 C.3     2  NAG2        0.2095
      4  C4        40.1610  -13.6000   25.4650 C.3     2  NAG2        0.2136
      5  C5        41.1700  -13.6390   24.3020 C.3     2  NAG2        0.1835
      6  C6        42.4720  -12.9250   24.6320 C.3     2  NAG2        0.2142
      7  C7        37.6680  -17.6040   24.7590 C.2     2  NAG2        0.2421
      8  C8        36.3230  -18.1380   24.2850 C.3     2  NAG2        0.0964
      9  N2        38.1720  -16.5610   24.1070 N.am    2  NAG2       -0.1991
     10  O1        40.8050  -16.9960   23.1120 O.3     2  NAG2       -0.1879
     11  O3        38.2240  -14.7070   26.4010 O.3     2  NAG2       -0.2183
     12  O4        39.7050  -12.2400   25.6380 O.3     2  NAG2       -0.2176
     13  O5        41.5060  -15.0040   23.9740 O.3     2  NAG2       -0.3242
     14  O6        43.4550  -13.1370   23.6290 O.3     2  NAG2       -0.2176
     15  O7        38.2430  -18.1330   25.7110 O.2     2  NAG2       -0.2733
@<TRIPOS>BOND
     1    10     1    1
     2     1    13    1
     3     1     2    1
     4    14     6    1
     5    13     5    1
     6     9     2    1
     7     9     7   am
     8     8     7    1
     9     5     6    1
    10     5     4    1
    11     2     3    1
    12     7    15    2
    13     3     4    1
    14     3    11    1
    15     4    12    1
