@<TRIPOS>MOLECULE
1nx0_III_E_1.pdb
 32 31 0 0 0
SMALL
GASTEIGER

@<TRIPOS>ATOM
      1  N         -8.1860   26.4240   33.9430 N.3   801  ALA801     -0.1231
      2  CA        -7.7200   25.3970   34.9070 C.3   801  ALA801      0.1694
      3  C         -8.9000   24.7620   35.6320 C.2   801  ALA801      0.2592
      4  O         -8.9000   24.7190   36.8630 O.2   801  ALA801     -0.2718
      5  CB        -6.7630   26.0350   35.9280 C.3   801  ALA801      0.0304
      6  N         -9.8880   24.2430   34.8930 N.am  802  LYS802     -0.1966
      7  CA       -11.0520   23.6630   35.5640 C.3   802  LYS802      0.1728
      8  C        -12.1810   23.0240   34.7470 C.2   802  LYS802      0.2616
      9  O        -12.6650   23.6090   33.7830 O.2   802  LYS802     -0.2715
     10  CB       -11.6870   24.7470   36.4370 C.3   802  LYS802      0.0311
     11  CG       -11.9670   24.3400   37.8530 C.3   802  LYS802      0.0038
     12  CD       -12.5590   25.5030   38.6160 C.3   802  LYS802      0.0206
     13  CE       -12.9310   25.0940   40.0210 C.3   802  LYS802      0.1093
     14  NZ       -11.7330   24.7000   40.8020 N.3   802  LYS802     -0.1314
     15  N        -12.5930   21.8240   35.1510 N.am  803  ALA803     -0.1963
     16  CA       -13.7430   21.1150   34.5690 C.3   803  ALA803      0.1728
     17  C        -13.7650   20.4100   33.2130 C.2   803  ALA803      0.2616
     18  O        -13.2250   20.8800   32.2140 O.2   803  ALA803     -0.2715
     19  CB       -14.9680   22.0310   34.6430 C.3   803  ALA803      0.0334
     20  N        -14.4680   19.2790   33.2250 N.am  804  ILE804     -0.1963
     21  CA       -14.7220   18.3980   32.0840 C.3   804  ILE804      0.1727
     22  C        -15.8810   17.5230   32.5670 C.2   804  ILE804      0.2616
     23  O        -15.8900   17.0850   33.7230 O.2   804  ILE804     -0.2715
     24  CB       -13.5280   17.4700   31.7620 C.3   804  ILE804      0.0290
     25  CG1      -12.3620   18.2760   31.1950 C.3   804  ILE804      0.0022
     26  CG2      -13.9510   16.4070   30.7580 C.3   804  ILE804      0.0023
     27  CD1      -12.6470   18.8860   29.8600 C.3   804  ILE804      0.0001
     28  N        -16.8600   17.2790   31.7000 N.am  805  ALA805     -0.1977
     29  CA       -18.0120   16.4580   32.0680 C.3   805  ALA805      0.1597
     30  C        -18.9870   16.3050   30.9020 C.2   805  ALA805      0.2287
     31  O        -20.1090   15.8070   31.1490 O.2   805  ALA805     -0.2864
     32  CB       -18.7290   17.0710   33.2740 C.3   805  ALA805      0.0319
@<TRIPOS>BOND
     1    27    25    1
     2    26    24    1
     3    30    31    2
     4    30    29    1
     5    25    24    1
     6    28    29    1
     7    28    22   am
     8    24    21    1
     9    29    32    1
    10    21    22    1
    11    21    20    1
    12    18    17    2
    13    22    23    2
    14    17    20   am
    15    17    16    1
    16     9     8    2
    17     1     2    1
    18    16    19    1
    19    16    15    1
    20     8    15   am
    21     8     7    1
    22     6     7    1
    23     6     3   am
    24     2     3    1
    25     2     5    1
    26     7    10    1
    27     3     4    2
    28    10    11    1
    29    11    12    1
    30    12    13    1
    31    13    14    1
