@<TRIPOS>MOLECULE
1nx3_ISA_A_1.pdb
 13 13 0 0 0
SMALL
GASTEIGER

@<TRIPOS>ATOM
      1  I        -10.0480   19.7090   -2.8190 I     267  ISA267     -0.0425
      2  CZ        -9.8020   20.1270   -4.7490 C.ar  267  ISA267      0.0300
      3  CE1      -10.9690   20.1620   -5.5850 C.ar  267  ISA267      0.0055
      4  CD1      -10.8630   20.4170   -6.9390 C.ar  267  ISA267     -0.0038
      5  CE2       -8.5470   20.3510   -5.2610 C.ar  267  ISA267      0.0055
      6  CD2       -8.4210   20.6150   -6.6640 C.ar  267  ISA267     -0.0038
      7  CG        -9.5820   20.6480   -7.5350 C.ar  267  ISA267     -0.0207
      8  C4        -9.4760   20.8950   -8.9950 C.3   267  ISA267      0.0494
      9  C3       -10.1170   19.7100   -9.8980 C.3   267  ISA267      0.1650
     10  S3       -11.6130   20.4080  -10.6000 S.3   267  ISA267     -0.0707
     11  C2        -9.8310   18.2930  -10.2070 C.2   267  ISA267      0.3754
     12  O3       -10.8290   17.5140  -10.3800 O.co2 267  ISA267     -0.2447
     13  O2        -8.6060   17.9230  -10.2800 O.co2 267  ISA267     -0.2447
@<TRIPOS>BOND
     1    10     9    1
     2    12    11   ar
     3    13    11   ar
     4    11     9    1
     5     9     8    1
     6     8     7    1
     7     7     4   ar
     8     7     6   ar
     9     4     3   ar
    10     6     5   ar
    11     3     2   ar
    12     5     2   ar
    13     2     1    1
