@<TRIPOS>MOLECULE
1nx4_AKG_A_1.pdb
 10 9 0 0 0
SMALL
GASTEIGER

@<TRIPOS>ATOM
      1  C1        25.7060   64.2400   12.3260 C.2   280  AKG280      0.4219
      2  O1        26.6140   63.7950   11.6470 O.co2 280  AKG280     -0.2373
      3  O2        25.2360   65.4850   12.0920 O.co2 280  AKG280     -0.2373
      4  C2        25.0520   63.3990   13.4610 C.2   280  AKG280      0.2526
      5  O5        24.1770   63.9530   14.0790 O.2   280  AKG280     -0.2843
      6  C3        25.4630   62.0330   13.9060 C.3   280  AKG280      0.0881
      7  C4        24.8070   60.8840   13.2120 C.3   280  AKG280      0.1224
      8  C5        25.4900   59.7150   13.8630 C.2   280  AKG280      0.3653
      9  O3        24.9240   59.0290   14.6820 O.co2 280  AKG280     -0.2456
     10  O4        26.7380   59.4210   13.5420 O.co2 280  AKG280     -0.2456
@<TRIPOS>BOND
     1     2     1   ar
     2     3     1   ar
     3     1     4    1
     4     7     8    1
     5     7     6    1
     6     4     6    1
     7     4     5    2
     8    10     8   ar
     9     8     9   ar
