@<TRIPOS>MOLECULE
1nx8_N7P_B_1.pdb
 11 11 0 0 0
SMALL
GASTEIGER

@<TRIPOS>ATOM
      1  O10       19.7280   75.9390   64.2700 O.co2 290  N7P290     -0.2438
      2  C1        20.4090   76.2970   63.2890 C.2   290  N7P290      0.3825
      3  O11       21.6620   76.3310   63.3020 O.co2 290  N7P290     -0.2438
      4  C2        19.6830   76.7220   62.0290 C.3   290  N7P290      0.1790
      5  N6        19.4240   78.1260   62.0210 N.am  290  N7P290     -0.2713
      6  C7        18.3360   78.6550   62.5950 C.2   290  N7P290      0.2265
      7  O9        17.7280   78.0240   63.4540 O.2   290  N7P290     -0.2748
      8  C8        17.9410   79.9750   62.2210 C.3   290  N7P290      0.0948
      9  C5        20.4920   78.8920   61.3820 C.3   290  N7P290      0.0939
     10  C4        21.0260   77.9350   60.3810 C.3   290  N7P290      0.0238
     11  C3        20.5970   76.5380   60.8240 C.3   290  N7P290      0.0332
@<TRIPOS>BOND
     1    10    11    1
     2    10     9    1
     3    11     4    1
     4     9     5    1
     5     5     4    1
     6     5     6   am
     7     4     2    1
     8     8     6    1
     9     6     7    2
    10     2     3   ar
    11     2     1   ar
