@<TRIPOS>MOLECULE
1nx8_AKG_A_1.pdb
 10 9 0 0 0
SMALL
GASTEIGER

@<TRIPOS>ATOM
      1  C1        25.8320   64.0670   12.3400 C.2   280  AKG280      0.4219
      2  O1        26.6280   63.4920   11.6110 O.co2 280  AKG280     -0.2373
      3  O2        25.5410   65.3570   12.1110 O.co2 280  AKG280     -0.2373
      4  C2        25.1060   63.3840   13.5410 C.2   280  AKG280      0.2526
      5  O5        24.3610   64.1240   14.1350 O.2   280  AKG280     -0.2843
      6  C3        25.2090   61.9970   14.0900 C.3   280  AKG280      0.0881
      7  C4        24.9720   60.8930   13.1140 C.3   280  AKG280      0.1224
      8  C5        25.5630   59.7030   13.8110 C.2   280  AKG280      0.3653
      9  O3        24.9630   59.1110   14.6850 O.co2 280  AKG280     -0.2456
     10  O4        26.7680   59.3040   13.4600 O.co2 280  AKG280     -0.2456
@<TRIPOS>BOND
     1     2     1   ar
     2     3     1   ar
     3     1     4    1
     4     7     8    1
     5     7     6    1
     6    10     8   ar
     7     4     6    1
     8     4     5    2
     9     8     9   ar
