@<TRIPOS>MOLECULE
1nx9_AIC_A_1.pdb
 24 26 0 0 0
SMALL
GASTEIGER

@<TRIPOS>ATOM
      1  C8        23.1540   55.2380  192.6460 C.ar  5001  AIC5001    -0.0003
      2  C5        25.1940   55.0980  191.3560 C.ar  5001  AIC5001     0.0038
      3  C6        23.8500   50.9450  186.1700 C.3   5001  AIC5001     0.0681
      4  N1        26.4160   53.3450  189.2200 N.am  5001  AIC5001    -0.1937
      5  C2        25.5170   49.2220  185.2530 C.2   5001  AIC5001     0.3833
      6  N3        26.0100   50.6060  187.2870 N.am  5001  AIC5001    -0.2594
      7  C4        26.6220   54.6320  191.2140 C.3   5001  AIC5001     0.1915
      8  C1        22.9330   49.7340  186.3400 C.3   5001  AIC5001     0.0131
      9  C3        26.6240   53.3340  190.5330 C.2   5001  AIC5001     0.2635
     10  C7        24.4750   54.8100  192.5160 C.ar  5001  AIC5001    -0.0024
     11  C9        22.5490   55.9550  191.6140 C.ar  5001  AIC5001    -0.0000
     12  C10       23.2640   56.2430  190.4540 C.ar  5001  AIC5001    -0.0003
     13  C11       24.5850   55.8160  190.3240 C.ar  5001  AIC5001    -0.0024
     14  C12       25.3210   50.5240  185.9880 C.3   5001  AIC5001     0.1888
     15  C13       25.2100   51.2360  188.3930 C.3   5001  AIC5001     0.1529
     16  C14       26.2790   52.2530  188.4690 C.3   5001  AIC5001     0.1996
     17  C15       27.0000   51.6370  187.4510 C.2   5001  AIC5001     0.2491
     18  C16       23.3910   51.8110  185.0010 C.3   5001  AIC5001     0.0131
     19  N2        27.1860   54.5210  192.4140 N.3   5001  AIC5001    -0.1182
     20  O1        25.2310   49.1920  184.0300 O.co2 5001  AIC5001    -0.2438
     21  O2        25.9570   48.2280  185.8780 O.co2 5001  AIC5001    -0.2438
     22  O3        26.7680   52.3060  191.1790 O.2   5001  AIC5001    -0.2714
     23  O4        28.0620   51.9070  186.9120 O.2   5001  AIC5001    -0.2729
     24  S1        23.7710   51.9070  187.6440 S.3   5001  AIC5001    -0.1184
@<TRIPOS>BOND
     1    20     5   ar
     2    18     3    1
     3     5    21   ar
     4     5    14    1
     5    14     3    1
     6    14     6    1
     7     3     8    1
     8     3    24    1
     9    23    17    2
    10     6    17   am
    11     6    15    1
    12    17    16    1
    13    24    15    1
    14    15    16    1
    15    16     4    1
    16     4     9   am
    17    13    12   ar
    18    13     2   ar
    19    12    11   ar
    20     9    22    2
    21     9     7    1
    22     7     2    1
    23     7    19    1
    24     2    10   ar
    25    11     1   ar
    26    10     1   ar
