@<TRIPOS>MOLECULE
1nxc_MAN_A_1.pdb
 11 11 0 0 0
SMALL
GASTEIGER

@<TRIPOS>ATOM
      1  C1        10.5220   49.6880   40.0220 C.3     8  MAN8        0.1777
      2  C2        12.0270   49.9150   39.8760 C.3     8  MAN8        0.2141
      3  C3        12.6770   49.9360   41.2610 C.3     8  MAN8        0.2173
      4  C4        12.0020   50.9400   42.1770 C.3     8  MAN8        0.2142
      5  C5        10.4970   50.7110   42.1790 C.3     8  MAN8        0.1810
      6  C6         9.7580   51.7370   43.0390 C.3     8  MAN8        0.2141
      7  O2        12.2770   51.1350   39.1930 O.3     8  MAN8       -0.2176
      8  O3        14.0390   50.2680   41.1540 O.3     8  MAN8       -0.2175
      9  O4        12.4850   50.7810   43.4980 O.3     8  MAN8       -0.2176
     10  O5         9.9890   50.7040   40.8470 O.3     8  MAN8       -0.3481
     11  O6        10.1520   53.0380   42.6670 O.3     8  MAN8       -0.2176
@<TRIPOS>BOND
     1     7     2    1
     2     2     1    1
     3     2     3    1
     4     1    10    1
     5    10     5    1
     6     8     3    1
     7     3     4    1
     8     4     5    1
     9     4     9    1
    10     5     6    1
    11    11     6    1
