@<TRIPOS>MOLECULE
1nxf_HEM_A_1.pdb
 43 50 0 0 0
SMALL
GASTEIGER

@<TRIPOS>ATOM
      1 FE         18.1570    7.5330   20.8160 Fe    147  HEM147      0.0000
      2  CHA       17.1680    9.1950   17.9000 C.2   147  HEM147      0.0000
      3  CHB       15.0370    8.0460   22.1180 C.2   147  HEM147      0.0000
      4  CHC       19.2340    6.2730   23.8370 C.2   147  HEM147      0.0000
      5  CHD       21.2680    7.0270   19.4730 C.2   147  HEM147      0.0000
      6  NA        16.4360    8.3990   20.1330 N.2   147  HEM147      0.0000
      7  C1A       16.1920    9.0040   18.8920 C.2   147  HEM147      0.0000
      8  C2A       14.8180    9.4620   18.8060 C.2   147  HEM147      0.0000
      9  C3A       14.2260    9.0990   19.9750 C.2   147  HEM147      0.0000
     10  C4A       15.2400    8.4850   20.8120 C.2   147  HEM147      0.0000
     11  CMA       12.7440    9.2680   20.3160 C.3   147  HEM147      0.0000
     12  CAA       14.1550   10.3420   17.7430 C.3   147  HEM147      0.0000
     13  CBA       13.2990    9.6060   16.7220 C.3   147  HEM147      0.0000
     14  CGA       14.1240    8.8250   15.7180 C.2   147  HEM147      0.0000
     15  O1A       14.7680    9.4550   14.8510 O.co2 147  HEM147      0.0000
     16  O2A       14.1330    7.5810   15.7980 O.co2 147  HEM147      0.0000
     17  NB        17.2970    7.1620   22.5950 N.ar  147  HEM147      0.0000
     18  C1B       15.9750    7.4080   22.9360 C.ar  147  HEM147      0.0000
     19  C2B       15.6930    6.9180   24.2740 C.ar  147  HEM147      0.0000
     20  C3B       16.8720    6.4570   24.7840 C.ar  147  HEM147      0.0000
     21  C4B       17.8690    6.6150   23.7280 C.ar  147  HEM147      0.0000
     22  CMB       14.3040    6.7950   24.9030 C.3   147  HEM147      0.0000
     23  CAB       17.0940    5.8950   26.0430 C.3   147  HEM147      0.0000
     24  CBB       16.5450    6.3820   27.2840 C.3   147  HEM147      0.0000
     25  NC        19.8890    6.7620   21.5090 N.2   147  HEM147      0.0000
     26  C1C       20.1640    6.3530   22.7960 C.2   147  HEM147      0.0000
     27  C2C       21.5760    6.0200   22.9260 C.2   147  HEM147      0.0000
     28  C3C       22.1490    6.1690   21.6980 C.2   147  HEM147      0.0000
     29  C4C       21.0870    6.6360   20.8120 C.2   147  HEM147      0.0000
     30  CMC       22.2420    5.5850   24.2250 C.3   147  HEM147      0.0000
     31  CAC       23.4560    5.8380   21.3170 C.3   147  HEM147      0.0000
     32  CBC       24.6350    6.2080   22.0400 C.3   147  HEM147      0.0000
     33  ND        19.0210    8.0140   19.0510 N.ar  147  HEM147      0.0000
     34  C1D       20.3270    7.7080   18.6750 C.ar  147  HEM147      0.0000
     35  C2D       20.6560    8.3420   17.4120 C.ar  147  HEM147      0.0000
     36  C3D       19.5470    9.0320   17.0090 C.ar  147  HEM147      0.0000
     37  C4D       18.5060    8.7720   18.0040 C.ar  147  HEM147      0.0000
     38  CMD       22.0230    8.2830   16.7150 C.3   147  HEM147      0.0000
     39  CAD       19.4410    9.9290   15.7820 C.3   147  HEM147      0.0000
     40  CBD       19.4760   11.4140   16.1100 C.3   147  HEM147      0.0000
     41  CGD       19.3010   12.2890   14.8840 C.2   147  HEM147      0.0000
     42  O1D       20.1690   12.2370   13.9890 O.co2 147  HEM147      0.0000
     43  O2D       18.2960   13.0240   14.8130 O.co2 147  HEM147      0.0000
@<TRIPOS>BOND
     1    42    41   ar
     2    43    41   ar
     3    15    14   ar
     4    41    40    1
     5    14    16   ar
     6    14    13    1
     7    39    40    1
     8    39    36    1
     9    38    35    1
    10    13    12    1
    11    36    35   ar
    12    36    37   ar
    13    35    34   ar
    14    12     8    1
    15     2    37    2
    16     2     7    1
    17    37    33   ar
    18    34    33   ar
    19    34     5    2
    20     8     7    1
    21     8     9    2
    22     7     6    2
    23    33     1    1
    24     5    29    1
    25     9    11    1
    26     9    10    1
    27     6    10    1
    28     6     1    1
    29    10     3    2
    30    29    25    2
    31    29    28    1
    32     1    25    1
    33     1    17    1
    34    31    28    1
    35    31    32    1
    36    25    26    1
    37    28    27    2
    38     3    18    1
    39    17    18   ar
    40    17    21   ar
    41    26    27    1
    42    26     4    2
    43    27    30    1
    44    18    19   ar
    45    21     4    1
    46    21    20   ar
    47    19    20   ar
    48    19    22    1
    49    20    23    1
    50    23    24    1
