@<TRIPOS>MOLECULE
1nxg_NAD_A_1.pdb
 44 48 0 0 0
SMALL
GASTEIGER

@<TRIPOS>ATOM
      1  PA        68.6450   36.7370   64.1140 P.3   3000  NAD3000     0.2189
      2  O1A       69.8870   36.0240   63.7510 O.3   3000  NAD3000    -0.4371
      3  O2A       67.9120   37.1220   62.8990 O.2   3000  NAD3000    -0.5170
      4  O5B       68.9490   38.0460   64.9060 O.3   3000  NAD3000    -0.3112
      5  C5B       69.6630   38.0700   66.1880 C.3   3000  NAD3000     0.1813
      6  C4B       70.5840   36.9120   66.5680 C.3   3000  NAD3000     0.1821
      7  O4B       71.0650   37.3850   67.8820 O.3   3000  NAD3000    -0.3135
      8  C3B       69.8350   35.6190   66.8630 C.3   3000  NAD3000     0.2184
      9  O3B       70.7010   34.4920   66.5180 O.3   3000  NAD3000    -0.2174
     10  C2B       69.4680   35.7550   68.3640 C.3   3000  NAD3000     0.2570
     11  O2B       69.3880   34.4920   69.0700 O.3   3000  NAD3000    -0.2130
     12  C1B       70.5630   36.6440   68.9520 C.3   3000  NAD3000     0.3186
     13  N9A       69.9960   37.6470   69.8340 N.pl3 3000  NAD3000    -0.1439
     14  C8A       69.0240   38.5810   69.5650 C.3   3000  NAD3000     0.3377
     15  N7A       68.7290   39.3770   70.6140 N.2   3000  NAD3000    -0.2095
     16  C5A       69.5660   38.9120   71.6040 C.2   3000  NAD3000     0.2526
     17  C6A       69.7400   39.3330   72.9390 C.2   3000  NAD3000     0.4393
     18  N6A       69.0420   40.3360   73.4860 N.pl3 3000  NAD3000     0.2180
     19  N1A       70.6700   38.6500   73.6770 N.2   3000  NAD3000     0.0021
     20  C2A       71.3640   37.6230   73.0650 C.3   3000  NAD3000     0.5254
     21  N3A       71.2640   37.1750   71.8340 N.2   3000  NAD3000    -0.0055
     22  C4A       70.3560   37.8510   71.1420 C.2   3000  NAD3000     0.3518
     23  O3        67.7580   35.8630   65.1010 O.3   3000  NAD3000    -0.2703
     24  PN        66.2290   36.1780   65.7610 P.3   3000  NAD3000     0.2189
     25  O1N       66.3280   36.7720   67.1610 O.3   3000  NAD3000    -0.4371
     26  O2N       65.3540   36.8470   64.9390 O.2   3000  NAD3000    -0.5170
     27  O5D       65.8750   34.6630   65.8950 O.3   3000  NAD3000    -0.3112
     28  C5D       65.7720   34.1070   67.2230 C.3   3000  NAD3000     0.1813
     29  C4D       65.3550   32.6680   67.1150 C.3   3000  NAD3000     0.1799
     30  O4D       64.5110   32.4440   68.2770 O.3   3000  NAD3000    -0.3327
     31  C3D       64.4890   32.3630   65.8990 C.3   3000  NAD3000     0.2158
     32  O3D       65.1750   31.7760   64.7830 O.3   3000  NAD3000    -0.2175
     33  C2D       63.3320   31.5040   66.4570 C.3   3000  NAD3000     0.2309
     34  O2D       63.6300   30.1090   66.2280 O.3   3000  NAD3000    -0.2158
     35  C1D       63.3170   31.8020   67.9060 C.3   3000  NAD3000     0.2263
     36  N1N       62.2500   32.6570   68.3340 N.pl3 3000  NAD3000    -0.2787
     37  C2N       61.6030   32.0040   69.2840 C.3   3000  NAD3000     0.1244
     38  C3N       60.6390   32.5890   69.7980 C.2   3000  NAD3000     0.0544
     39  C7N       59.8510   32.0340   70.8190 C.2   3000  NAD3000     0.2818
     40  O7N       60.2310   30.8900   71.1470 O.2   3000  NAD3000    -0.2670
     41  N7N       58.8230   32.6800   71.3580 N.am  3000  NAD3000    -0.0839
     42  C4N       60.1210   33.9780   69.4460 C.2   3000  NAD3000     0.0033
     43  C5N       60.8880   34.5580   68.4240 C.2   3000  NAD3000     0.0157
     44  C6N       61.9650   33.9630   67.8180 C.2   3000  NAD3000     0.0633
@<TRIPOS>BOND
     1     3     1    2
     2     2     1    1
     3     1     4    1
     4     1    23    1
     5    32    31    1
     6     4     5    1
     7    26    24    2
     8    23    24    1
     9    24    27    1
    10    24    25    1
    11    27    28    1
    12    31    33    1
    13    31    29    1
    14     5     6    1
    15    34    33    1
    16    33    35    1
    17     9     8    1
    18     6     8    1
    19     6     7    1
    20     8    10    1
    21    29    28    1
    22    29    30    1
    23    44    36    1
    24    44    43    2
    25     7    12    1
    26    35    30    1
    27    35    36    1
    28    36    37    1
    29    10    12    1
    30    10    11    1
    31    43    42    1
    32    12    13    1
    33    37    38    1
    34    42    38    2
    35    14    13    1
    36    14    15    1
    37    38    39    1
    38    13    22    1
    39    15    16    2
    40    39    40    2
    41    39    41   am
    42    22    16    1
    43    22    21    2
    44    16    17    1
    45    21    20    1
    46    17    18    1
    47    17    19    2
    48    20    19    1
