@<TRIPOS>MOLECULE
1nxk_STU_A_1.pdb
 35 42 0 0 0
SMALL
GASTEIGER

@<TRIPOS>ATOM
      1  O4       114.4750   21.2700   64.1790 O.3   401  STU401     -0.3186
      2  C25      115.7900   20.8110   64.5230 C.3   401  STU401      0.2078
      3  C24      116.8310   21.7010   63.7560 C.3   401  STU401      0.0739
      4  C23      116.1500   22.7950   62.8820 C.3   401  STU401      0.1086
      5  C22      115.0810   22.1690   61.9240 C.3   401  STU401      0.1761
      6  C21      113.9660   21.5690   62.8950 C.3   401  STU401      0.1915
      7  C26      112.8860   22.6270   63.1650 C.3   401  STU401      0.0566
      8  N2       113.3950   20.3130   62.2570 N.ar  401  STU401     -0.3054
      9  C18      114.0340   19.0450   62.5110 C.ar  401  STU401      0.0774
     10  C19      115.1100   18.6720   63.2630 C.ar  401  STU401      0.0783
     11  C6       115.5670   17.3030   63.3320 C.ar  401  STU401      0.0293
     12  C7       114.7770   16.3550   62.5320 C.ar  401  STU401      0.0822
     13  C10      113.7410   16.7070   61.8110 C.ar  401  STU401      0.0154
     14  C11      113.2810   18.0580   61.7330 C.ar  401  STU401      0.0173
     15  C12      112.2400   18.7250   61.0570 C.ar  401  STU401      0.0171
     16  C17      112.2960   20.1480   61.3880 C.ar  401  STU401      0.0617
     17  C16      111.3620   21.0180   60.8420 C.ar  401  STU401      0.0172
     18  C15      110.3910   20.5590   59.9940 C.ar  401  STU401      0.0015
     19  C14      110.3170   19.1500   59.6390 C.ar  401  STU401      0.0001
     20  C13      111.2500   18.2760   60.1890 C.ar  401  STU401      0.0015
     21  C9       113.1610   15.5010   61.1130 C.3   401  STU401      0.1650
     22  N1       114.0860   14.4990   61.6050 N.2   401  STU401     -0.1976
     23  C8       115.0360   14.9080   62.4190 C.1   401  STU401      0.1501
     24  O5       115.9060   14.2540   62.9410 O.2   401  STU401     -0.2222
     25  C5       116.6710   17.2240   64.1590 C.ar  401  STU401      0.0180
     26  C20      116.9230   18.5670   64.6250 C.ar  401  STU401      0.0618
     27  C1       117.9960   18.8610   65.5230 C.ar  401  STU401      0.0172
     28  C2       118.8070   17.8010   65.9440 C.ar  401  STU401      0.0015
     29  C3       118.5700   16.4650   65.4770 C.ar  401  STU401      0.0001
     30  C4       117.5230   16.1930   64.6050 C.ar  401  STU401      0.0015
     31  N3       115.9950   19.4070   64.0820 N.ar  401  STU401     -0.3039
     32  O6       115.7810   21.1200   61.1970 O.3   401  STU401     -0.3478
     33  C27      115.4110   21.0640   59.8410 C.3   401  STU401      0.1743
     34  N4       117.2970   23.5290   62.0850 N.3   401  STU401     -0.2152
     35  C28      116.6900   24.5280   61.1160 C.3   401  STU401      0.1075
@<TRIPOS>BOND
     1    19    18   ar
     2    19    20   ar
     3    33    32    1
     4    18    17   ar
     5    20    15   ar
     6    17    16   ar
     7    15    16   ar
     8    15    14   ar
     9    21    22    1
    10    21    13    1
    11    35    34    1
    12    32     5    1
    13    16     8   ar
    14    22    23    2
    15    14    13   ar
    16    14     9   ar
    17    13    12   ar
    18     5     4    1
    19     5     6    1
    20    34     4    1
    21     8     9   ar
    22     8     6    1
    23    23    12    1
    24    23    24    2
    25     9    10   ar
    26    12    11   ar
    27     4     3    1
    28     6     7    1
    29     6     1    1
    30    10    11   ar
    31    10    31   ar
    32    11    25   ar
    33     3     2    1
    34    31     2    1
    35    31    26   ar
    36    25    30   ar
    37    25    26   ar
    38     1     2    1
    39    30    29   ar
    40    26    27   ar
    41    29    28   ar
    42    27    28   ar
