@<TRIPOS>MOLECULE
1nxy_SM2_A_1.pdb
 22 23 0 0 0
SMALL
GASTEIGER

@<TRIPOS>ATOM
      1  CAF       23.2690    7.2890   32.4740 C.ar  500  SM2500      0.0000
      2  CAC       23.3980    8.0520   31.2790 C.ar  500  SM2500      0.0000
      3  CAB       24.7090    8.2800   30.9480 C.ar  500  SM2500      0.0000
      4  SAD       25.7700    7.5660   32.0920 S.2   500  SM2500      0.0000
      5  CAE       24.4690    6.9500   33.0300 C.ar  500  SM2500      0.0000
      6  CAG       24.7110    6.1440   34.2910 C.3   500  SM2500      0.0000
      7  CAH       23.4590    5.6560   35.0120 C.2   500  SM2500      0.0000
      8  OAI       23.1610    6.0320   36.1540 O.2   500  SM2500      0.0000
      9  NAJ       22.7230    4.7360   34.2810 N.am  500  SM2500      0.0000
     10  CAK       21.5060    4.1180   34.8190 C.3   500  SM2500      0.0000
     11  B         21.4880    2.5450   34.4150 B     500  SM2500      0.0000
     12  OAT       21.6040    2.3730   32.9410 O.3   500  SM2500      0.0000
     13  OAO       22.6760    1.8850   35.0320 O.3   500  SM2500      0.0000
     14  CAL       20.2770    4.8620   34.2970 C.ar  500  SM2500      0.0000
     15  CAQ       19.5810    4.4980   33.1100 C.ar  500  SM2500      0.0000
     16  CAM       19.8220    5.9790   35.0450 C.ar  500  SM2500      0.0000
     17  CAN       18.6960    6.7200   34.6200 C.ar  500  SM2500      0.0000
     18  CAS       18.0070    6.3610   33.4460 C.ar  500  SM2500      0.0000
     19  CAR       18.4450    5.2520   32.6900 C.ar  500  SM2500      0.0000
     20  CAU       17.6960    4.8780   31.4440 C.2   500  SM2500      0.0000
     21  OAW       17.3780    3.6940   31.2880 O.co2 500  SM2500      0.0000
     22  OAV       17.4070    5.7710   30.6220 O.co2 500  SM2500      0.0000
@<TRIPOS>BOND
     1    22    20   ar
     2     3     2   ar
     3     3     4   ar
     4     2     1   ar
     5    21    20   ar
     6    20    19    1
     7     4     5   ar
     8     1     5   ar
     9    19    15   ar
    10    19    18   ar
    11    12    11    1
    12     5     6    1
    13    15    14   ar
    14    18    17   ar
    15     9    10    1
    16     9     7   am
    17     6     7    1
    18    14    10    1
    19    14    16   ar
    20    11    10    1
    21    11    13    1
    22    17    16   ar
    23     7     8    2
