@<TRIPOS>MOLECULE
1ny0_NBF_A_1.pdb
 20 21 0 0 0
SMALL
GASTEIGER

@<TRIPOS>ATOM
      1  C25       12.6370   13.9380   38.3770 C.3   300  NBF300      0.0000
      2  C24       11.7010   12.8560   37.7910 C.3   300  NBF300      0.0000
      3  O23       12.2230   12.2330   36.5920 O.3   300  NBF300      0.0000
      4  C15       13.5790   11.9770   36.4200 C.ar  300  NBF300      0.0000
      5  C13       14.2200   10.8630   37.1130 C.ar  300  NBF300      0.0000
      6  C11       13.3990    9.9650   38.0270 C.2   300  NBF300      0.0000
      7  O12       13.6030    9.9170   39.2460 O.2   300  NBF300      0.0000
      8  N10       12.4690    9.2610   37.3920 N.am  300  NBF300      0.0000
      9  C7        11.5490    8.3230   38.0170 C.3   300  NBF300      0.0000
     10  B         10.7550    7.8440   36.7220 B     300  NBF300      0.0000
     11  O1        11.6810    7.2260   35.7170 O.3   300  NBF300      0.0000
     12  O2        10.0300    8.9730   36.0720 O.3   300  NBF300      0.0000
     13  C14       15.6280   10.6200   36.9150 C.ar  300  NBF300      0.0000
     14  C16       16.3910   11.4940   36.0250 C.ar  300  NBF300      0.0000
     15  C18       17.7790   11.2640   35.8240 C.ar  300  NBF300      0.0000
     16  C20       18.4400   10.1720   36.4970 C.ar  300  NBF300      0.0000
     17  C22       17.7030    9.3090   37.3700 C.ar  300  NBF300      0.0000
     18  C17       16.2990    9.5260   37.5830 C.ar  300  NBF300      0.0000
     19  C19       15.7450   12.5790   35.3540 C.ar  300  NBF300      0.0000
     20  C21       14.3500   12.8210   35.5480 C.ar  300  NBF300      0.0000
@<TRIPOS>BOND
     1    19    20   ar
     2    19    14   ar
     3    20     4   ar
     4    11    10    1
     5    15    14   ar
     6    15    16   ar
     7    14    13   ar
     8    12    10    1
     9     4     3    1
    10     4     5   ar
    11    16    17   ar
    12     3     2    1
    13    10     9    1
    14    13     5   ar
    15    13    18   ar
    16     5     6    1
    17    17    18   ar
    18     8     9    1
    19     8     6   am
    20     2     1    1
    21     6     7    2
