@<TRIPOS>MOLECULE
1ny2_III_4_1.pdb
 29 30 0 0 0
SMALL
GASTEIGER

@<TRIPOS>ATOM
      1  N         36.1170   36.3640    4.8030 N.3   380  ARG380     -0.1231
      2  CA        35.8490   37.7380    5.2290 C.3   380  ARG380      0.1679
      3  C         35.7220   38.7130    4.0620 C.2   380  ARG380      0.2434
      4  O         36.4200   39.8060    4.1540 O.2   380  ARG380     -0.2733
      5  CB        36.9400   38.2470    6.2070 C.3   380  ARG380      0.0321
      6  CG        36.5200   38.5600    7.6140 C.3   380  ARG380      0.0489
      7  CD        35.3070   39.3540    7.8150 C.3   380  ARG380      0.2205
      8  NE        35.3310   40.7580    8.0730 N.pl3 380  ARG380     -0.0865
      9  CZ        35.3360   41.6330    9.0630 C.cat 380  ARG380      0.5346
     10  NH1       35.3160   41.3610   10.3820 N.pl3 380  ARG380      0.1354
     11  NH2       35.3690   42.9590    8.7740 N.pl3 380  ARG380      0.1354
     12  N         34.7900   38.4870    3.1250 N.am  381  PRO381     -0.2718
     13  CA        34.6230   39.3280    1.9390 C.3   381  PRO381      0.1520
     14  C         33.9030   40.6240    2.1560 C.2   381  PRO381      0.2440
     15  O         32.8600   40.6840    2.7630 O.2   381  PRO381     -0.2731
     16  CB        33.9550   38.4520    0.8680 C.3   381  PRO381      0.0310
     17  CG        34.1710   37.0540    1.3990 C.3   381  PRO381      0.0237
     18  CD        34.0210   37.2510    2.9350 C.3   381  PRO381      0.0939
     19  N         34.5050   41.6800    1.6430 N.am  382  PRO382     -0.2716
     20  CA        33.9040   43.0220    1.5980 C.3   382  PRO382      0.1535
     21  C         32.8600   43.0590    0.4340 C.2   382  PRO382      0.2595
     22  O         32.9680   42.4120   -0.6460 O.2   382  PRO382     -0.2716
     23  CB        35.1210   43.9260    1.3020 C.3   382  PRO382      0.0310
     24  CG        35.8030   43.0820    0.2180 C.3   382  PRO382      0.0237
     25  CD        35.8080   41.6790    0.8970 C.3   382  PRO382      0.0939
     26  N         31.8680   43.9370    0.6770 N.am  383  GLY383     -0.2012
     27  CA        30.7580   44.2180   -0.2360 C.3   383  GLY383      0.1506
     28  C         31.1530   45.4580   -1.0650 C.3   383  GLY383      0.2054
     29  O         32.1810   45.3900   -1.8350 O.3   383  GLY383     -0.2184
@<TRIPOS>BOND
     1    29    28    1
     2    28    27    1
     3    22    21    2
     4    27    26    1
     5    24    25    1
     6    24    23    1
     7    21    26   am
     8    21    20    1
     9    16    17    1
    10    16    13    1
    11    25    19    1
    12    23    20    1
    13    17    18    1
    14    20    19    1
    15    19    14   am
    16    13    14    1
    17    13    12    1
    18    14    15    2
    19    18    12    1
    20    12     3   am
    21     3     4    2
    22     3     2    1
    23     1     2    1
    24     2     5    1
    25     5     6    1
    26     6     7    1
    27     7     8    1
    28     8     9    2
    29    11     9    1
    30     9    10    1
