@<TRIPOS>MOLECULE
1ny3_ADP_A_1.pdb
 27 29 0 0 0
SMALL
GASTEIGER

@<TRIPOS>ATOM
      1  PB       229.4140   75.9300  184.6380 P.3   401  ADP401      0.5373
      2  O1B      228.0950   75.6380  184.0200 O.2   401  ADP401     -0.2221
      3  O2B      229.2820   76.0050  186.2380 O.3   401  ADP401     -0.1143
      4  O3B      230.4440   74.9460  184.2180 O.3   401  ADP401     -0.1143
      5  PA       230.7060   78.4910  184.9890 P.3   401  ADP401      0.2231
      6  O1A      230.2760   79.8160  184.5430 O.2   401  ADP401     -0.5169
      7  O2A      230.5240   78.3800  186.4350 O.3   401  ADP401     -0.4370
      8  O3A      229.8780   77.3810  184.2340 O.3   401  ADP401     -0.2261
      9  O5'      232.2450   78.2640  184.6820 O.3   401  ADP401     -0.3111
     10  C5'      232.8740   77.1590  184.0300 C.3   401  ADP401      0.1813
     11  C4'      234.3960   77.4000  184.2600 C.3   401  ADP401      0.1821
     12  O4'      234.8740   78.0780  183.0940 O.3   401  ADP401     -0.3135
     13  C3'      234.7010   78.3660  185.4180 C.3   401  ADP401      0.2184
     14  O3'      234.9730   77.6770  186.6500 O.3   401  ADP401     -0.2174
     15  C2'      235.9120   79.1550  184.9520 C.3   401  ADP401      0.2570
     16  O2'      237.1630   78.6090  185.4030 O.3   401  ADP401     -0.2130
     17  C1'      235.7080   79.2120  183.4420 C.3   401  ADP401      0.3186
     18  N9       234.9760   80.4390  182.9960 N.pl3 401  ADP401     -0.1439
     19  C8       233.6490   80.4890  182.7700 C.3   401  ADP401      0.3377
     20  N7       233.3140   81.7050  182.3870 N.2   401  ADP401     -0.2095
     21  C5       234.4010   82.4260  182.2940 C.2   401  ADP401      0.2526
     22  C6       234.6880   83.7260  181.9050 C.2   401  ADP401      0.4393
     23  N6       233.7020   84.5380  181.5130 N.pl3 401  ADP401      0.2180
     24  N1       235.9790   84.1830  181.9280 N.2   401  ADP401      0.0021
     25  C2       237.0020   83.3960  182.3260 C.3   401  ADP401      0.5254
     26  N3       236.7420   82.1220  182.6810 N.2   401  ADP401     -0.0055
     27  C4       235.4820   81.6110  182.6900 C.2   401  ADP401      0.3518
@<TRIPOS>BOND
     1    23    22    1
     2    22    24    2
     3    22    21    1
     4    24    25    1
     5    21    20    2
     6    21    27    1
     7    25    26    1
     8    20    19    1
     9    26    27    2
    10    27    18    1
    11    19    18    1
    12    18    17    1
    13    12    17    1
    14    12    11    1
    15    17    15    1
    16     2     1    2
    17    10    11    1
    18    10     9    1
    19     4     1    1
    20     8     1    1
    21     8     5    1
    22    11    13    1
    23     6     5    2
    24     1     3    1
    25     9     5    1
    26    15    16    1
    27    15    13    1
    28     5     7    1
    29    13    14    1
