@<TRIPOS>MOLECULE
1ny5_ADP_A_1.pdb
 27 29 0 0 0
SMALL
GASTEIGER

@<TRIPOS>ATOM
      1  PB       -37.4040  -18.3980  -23.2760 P.3   604  ADP604      0.5373
      2  O1B      -37.7200  -17.5250  -24.4480 O.2   604  ADP604     -0.2221
      3  O2B      -37.6620  -19.9360  -23.6540 O.3   604  ADP604     -0.1143
      4  O3B      -36.0110  -18.1840  -22.8230 O.3   604  ADP604     -0.1143
      5  PA       -39.1890  -19.0980  -21.1510 P.3   604  ADP604      0.2231
      6  O1A      -40.3230  -19.7220  -21.8370 O.2   604  ADP604     -0.5169
      7  O2A      -38.2830  -20.1270  -20.6560 O.3   604  ADP604     -0.4370
      8  O3A      -38.3860  -18.1330  -22.0880 O.3   604  ADP604     -0.2261
      9  O5'      -39.5890  -18.3430  -19.8570 O.3   604  ADP604     -0.3111
     10  C5'      -39.3210  -17.0190  -19.4140 C.3   604  ADP604      0.1813
     11  C4'      -39.9980  -16.9800  -18.0140 C.3   604  ADP604      0.1821
     12  O4'      -41.1870  -16.2260  -18.2080 O.3   604  ADP604     -0.3135
     13  C3'      -40.4700  -18.3580  -17.4840 C.3   604  ADP604      0.2184
     14  O3'      -40.2240  -18.5190  -16.0840 O.3   604  ADP604     -0.2174
     15  C2'      -41.9600  -18.4410  -17.8470 C.3   604  ADP604      0.2570
     16  O2'      -42.7350  -19.2790  -16.9910 O.3   604  ADP604     -0.2130
     17  C1'      -42.3640  -16.9750  -17.8800 C.3   604  ADP604      0.3186
     18  N9       -43.3710  -16.6450  -18.9360 N.pl3 604  ADP604     -0.1439
     19  C8       -43.0890  -16.5260  -20.2570 C.3   604  ADP604      0.3377
     20  N7       -44.1830  -16.2230  -20.9180 N.2   604  ADP604     -0.2095
     21  C5       -45.1730  -16.1420  -20.0680 C.2   604  ADP604      0.2526
     22  C6       -46.5350  -15.8470  -20.1590 C.2   604  ADP604      0.4393
     23  N6       -47.0670  -15.5740  -21.3530 N.pl3 604  ADP604      0.2180
     24  N1       -47.3280  -15.8440  -19.0370 N.2   604  ADP604      0.0021
     25  C2       -46.8210  -16.1190  -17.7870 C.3   604  ADP604      0.5254
     26  N3       -45.4970  -16.3980  -17.6830 N.2   604  ADP604     -0.0055
     27  C4       -44.6520  -16.4150  -18.7760 C.2   604  ADP604      0.3518
@<TRIPOS>BOND
     1     2     1    2
     2     3     1    1
     3     1     4    1
     4     1     8    1
     5     8     5    1
     6     6     5    2
     7    23    22    1
     8     5     7    1
     9     5     9    1
    10    20    19    1
    11    20    21    2
    12    19    18    1
    13    22    21    1
    14    22    24    2
    15    21    27    1
    16     9    10    1
    17    10    11    1
    18    24    25    1
    19    18    27    1
    20    18    17    1
    21    27    26    2
    22    12    11    1
    23    12    17    1
    24    11    13    1
    25    17    15    1
    26    15    13    1
    27    15    16    1
    28    25    26    1
    29    13    14    1
