@<TRIPOS>MOLECULE
1ny6_ADP_A_1.pdb
 27 29 0 0 0
SMALL
GASTEIGER

@<TRIPOS>ATOM
      1  PB        72.0790  144.8320   18.9250 P.3     6  ADP6        0.5373
      2  O1B       72.8780  145.0140   17.6900 O.2     6  ADP6       -0.2221
      3  O2B       70.5140  145.0080   18.6160 O.3     6  ADP6       -0.1143
      4  O3B       72.3370  143.5020   19.5310 O.3     6  ADP6       -0.1143
      5  PA        71.4950  147.1440   20.4760 P.3     6  ADP6        0.2231
      6  O1A       71.1950  148.0480   19.3750 O.2     6  ADP6       -0.5169
      7  O2A       70.2510  146.6380   21.0460 O.3     6  ADP6       -0.4370
      8  O3A       72.3880  145.9670   19.9560 O.3     6  ADP6       -0.2261
      9  O5'       72.2490  147.9150   21.6050 O.3     6  ADP6       -0.3111
     10  C5'       73.5300  147.6970   22.1750 C.3     6  ADP6        0.1813
     11  C4'       73.6710  148.8430   23.2420 C.3     6  ADP6        0.1821
     12  O4'       74.8180  149.5650   22.8240 O.3     6  ADP6       -0.3135
     13  C3'       72.5020  149.8690   23.2620 C.3     6  ADP6        0.2184
     14  O3'       71.8630  149.9530   24.5500 O.3     6  ADP6       -0.2174
     15  C2'       73.0590  151.2240   22.8220 C.3     6  ADP6        0.2570
     16  O2'       72.8040  152.2780   23.7680 O.3     6  ADP6       -0.2130
     17  C1'       74.5360  150.9560   22.5370 C.3     6  ADP6        0.3186
     18  N9        74.9660  151.1550   21.1050 N.pl3   6  ADP6       -0.1439
     19  C8        74.8160  150.2300   20.1220 C.3     6  ADP6        0.3377
     20  N7        75.2910  150.6780   18.9970 N.2     6  ADP6       -0.2095
     21  C5        75.7440  151.8700   19.1960 C.2     6  ADP6        0.2526
     22  C6        76.3490  152.8140   18.3920 C.2     6  ADP6        0.4393
     23  N6        76.5610  152.5140   17.1090 N.pl3   6  ADP6        0.2180
     24  N1        76.7300  154.0420   18.9160 N.2     6  ADP6        0.0021
     25  C2        76.5210  154.3650   20.2350 C.3     6  ADP6        0.5254
     26  N3        75.9310  153.4370   21.0400 N.2     6  ADP6       -0.0055
     27  C4        75.5270  152.2080   20.5650 C.2     6  ADP6        0.3518
@<TRIPOS>BOND
     1    23    22    1
     2     2     1    2
     3    22    24    2
     4    22    21    1
     5     3     1    1
     6    24    25    1
     7     1     4    1
     8     1     8    1
     9    20    21    2
    10    20    19    1
    11    21    27    1
    12     6     5    2
    13     8     5    1
    14    19    18    1
    15    25    26    1
    16     5     7    1
    17     5     9    1
    18    27    26    2
    19    27    18    1
    20    18    17    1
    21     9    10    1
    22    10    11    1
    23    17    15    1
    24    17    12    1
    25    15    13    1
    26    15    16    1
    27    12    11    1
    28    11    13    1
    29    13    14    1
