@<TRIPOS>MOLECULE
1nym_CXB_A_1.pdb
 17 17 0 0 0
SMALL
GASTEIGER

@<TRIPOS>ATOM
      1  C18       11.2940   13.0400   37.6420 C.3   300  CXB300      0.0000
      2  O17       12.4410   12.2120   37.6320 O.3   300  CXB300      0.0000
      3  N16       13.6050   11.9970   36.9950 N.4   300  CXB300      0.0000
      4  C13       13.9000   10.7740   37.1970 C.3   300  CXB300      0.0000
      5  C11       13.0300    9.7150   37.8180 C.2   300  CXB300      0.0000
      6  O12       13.3210    9.3380   38.9290 O.2   300  CXB300      0.0000
      7  N10       12.0730    9.2510   37.1080 N.am  300  CXB300      0.0000
      8  C7        11.1490    8.2170   37.5760 C.3   300  CXB300      0.0000
      9  B         10.3560    7.6360   36.3000 B     300  CXB300      0.0000
     10  OB1       11.2450    7.1170   35.2320 O.3   300  CXB300      0.0000
     11  OB2        9.3900    8.5970   35.7140 O.3   300  CXB300      0.0000
     12  C14       15.3080   10.3820   36.9080 C.2   300  CXB300      0.0000
     13  C15       15.9100    9.2540   37.3880 C.3   300  CXB300      0.0000
     14  S16       17.5650    9.1870   36.9100 S.3   300  CXB300      0.0000
     15  C17       17.3300   10.6540   36.0700 C.2   300  CXB300      0.0000
     16  N18       18.3910   11.2020   35.3630 N.pl3 300  CXB300      0.0000
     17  N19       16.1150   11.1890   36.1320 N.2   300  CXB300      0.0000
@<TRIPOS>BOND
     1    10     9    1
     2    16    15    1
     3    11     9    1
     4    15    17    2
     5    15    14    1
     6    17    12    2
     7     9     8    1
     8    12     4    1
     9    12    13    1
    10    14    13    1
    11     3     4    1
    12     3     2    1
    13     7     8    1
    14     7     5   am
    15     4     5    1
    16     2     1    1
    17     5     6    2
