@<TRIPOS>MOLECULE
1nyw_DAU_A_1.pdb
 36 38 0 0 0
SMALL
GASTEIGER

@<TRIPOS>ATOM
      1  O6        -4.2250   -2.7050   23.4070 O.3   9001  DAU9001    -0.2176
      2  C6        -4.1160   -3.7540   22.4310 C.3   9001  DAU9001     0.2142
      3  C5        -5.4910   -4.1520   21.9190 C.3   9001  DAU9001     0.1835
      4  O5        -6.0080   -2.9940   21.3100 O.3   9001  DAU9001    -0.3254
      5  C4        -5.4640   -5.2490   20.8830 C.3   9001  DAU9001     0.2144
      6  O4        -4.8530   -6.3510   21.5990 O.3   9001  DAU9001    -0.2176
      7  C3        -6.9020   -5.3860   20.3070 C.3   9001  DAU9001     0.2198
      8  O3        -6.9520   -6.2170   19.1200 O.3   9001  DAU9001    -0.2174
      9  C2        -7.5350   -4.0520   19.8830 C.3   9001  DAU9001     0.2409
     10  O2        -8.9360   -4.1110   19.6250 O.3   9001  DAU9001    -0.2149
     11  C1        -7.3620   -3.0120   20.9640 C.3   9001  DAU9001     0.2742
     12  O1        -8.2100   -3.2690   22.0630 O.3   9001  DAU9001    -0.2857
     13  P2        -8.2920   -2.2660   23.3110 P.3   9001  DAU9001     0.2208
     14  O3P       -9.2980   -2.8870   24.3250 O.3   9001  DAU9001    -0.4371
     15  O4P       -6.8540   -1.9730   23.8280 O.2   9001  DAU9001    -0.5170
     16  OPP       -8.8370   -0.9920   22.5530 O.3   9001  DAU9001    -0.2703
     17  P        -10.3150   -0.3760   22.3960 P.3   9001  DAU9001     0.2189
     18  O1P      -11.0530   -1.1710   21.2160 O.2   9001  DAU9001    -0.5170
     19  O2P      -10.9360   -0.2280   23.8310 O.3   9001  DAU9001    -0.4371
     20  O5'       -9.9000    1.0590   21.8100 O.3   9001  DAU9001    -0.3112
     21  C5'       -9.1950    2.0050   22.5660 C.3   9001  DAU9001     0.1812
     22  C4'       -9.2610    3.4050   21.9240 C.3   9001  DAU9001     0.1773
     23  O4'       -8.5240    3.3560   20.6940 O.3   9001  DAU9001    -0.3339
     24  C3'      -10.6730    3.7800   21.5720 C.3   9001  DAU9001     0.1857
     25  O3'      -10.8790    5.1900   21.8550 O.3   9001  DAU9001    -0.2203
     26  C2'      -10.8100    3.4770   20.0930 C.3   9001  DAU9001     0.0874
     27  C1'       -9.3820    3.6580   19.5900 C.3   9001  DAU9001     0.2090
     28  N11       -8.9160    2.7570   18.5100 N.am  9001  DAU9001    -0.1794
     29  C61       -8.9080    1.4240   18.7220 C.2   9001  DAU9001     0.0877
     30  C51       -8.3910    0.6110   17.7140 C.2   9001  DAU9001     0.0891
     31  C5A       -8.3920   -0.9190   17.8570 C.3   9001  DAU9001     0.0462
     32  C21       -8.3910    3.2860   17.3950 C.1   9001  DAU9001     0.2844
     33  O21       -8.3360    4.5760   17.2090 O.2   9001  DAU9001    -0.1918
     34  N31       -7.8730    2.5430   16.4180 N.2   9001  DAU9001    -0.2455
     35  C41       -7.8760    1.2180   16.5720 C.1   9001  DAU9001     0.2134
     36  O41       -7.3460    0.5400   15.5470 O.2   9001  DAU9001    -0.2088
@<TRIPOS>BOND
     1    36    35    2
     2    34    35    2
     3    34    32    2
     4    35    30    1
     5    33    32    2
     6    32    28   am
     7    30    31    1
     8    30    29    2
     9    28    29    1
    10    28    27    1
    11     8     7    1
    12    27    26    1
    13    27    23    1
    14    10     9    1
    15     9     7    1
    16     9    11    1
    17    26    24    1
    18     7     5    1
    19    23    22    1
    20     5     6    1
    21     5     3    1
    22    11     4    1
    23    11    12    1
    24    18    17    2
    25     4     3    1
    26    24    25    1
    27    24    22    1
    28    20    17    1
    29    20    21    1
    30     3     2    1
    31    22    21    1
    32    12    13    1
    33    17    16    1
    34    17    19    1
    35     2     1    1
    36    16    13    1
    37    13    15    2
    38    13    14    1
