@<TRIPOS>MOLECULE
1nyx_DRF_A_1.pdb
 31 34 0 0 0
SMALL
GASTEIGER

@<TRIPOS>ATOM
      1  O45       18.1290   63.1530   21.2310 O.co2 101  DRF101     -0.2429
      2  C44       18.9010   63.0530   20.2510 C.2   101  DRF101      0.3917
      3  O55       19.9750   62.7220   20.8990 O.co2 101  DRF101     -0.2429
      4  C41       18.7300   63.2370   18.9670 C.3   101  DRF101      0.2220
      5  O46       20.0370   63.7800   18.3210 O.3   101  DRF101     -0.3448
      6  C48       19.8480   65.0350   17.7230 C.3   101  DRF101      0.1429
      7  C49       21.1320   65.5140   17.1070 C.3   101  DRF101      0.0347
      8  C40       18.2960   62.1510   18.1620 C.3   101  DRF101      0.0676
      9  C33       17.8290   61.8270   16.8800 C.ar  101  DRF101     -0.0190
     10  C34       18.8240   61.5670   15.9080 C.ar  101  DRF101     -0.0011
     11  C35       18.4500   61.2540   14.5860 C.ar  101  DRF101      0.0366
     12  C30       17.0820   61.2000   14.2370 C.ar  101  DRF101      0.1386
     13  O27       16.7120   60.9010   12.9320 O.3   101  DRF101     -0.4736
     14  C24       16.2430   62.0960   12.3240 C.3   101  DRF101      0.2271
     15  C23       16.0920   61.9160   10.8160 C.3   101  DRF101      0.1429
     16  N22       15.8650   63.2260   10.1840 N.pl3 101  DRF101     -0.2783
     17  C11       14.5870   63.7110    9.9910 C.ar  101  DRF101      0.0868
     18  C16       14.4060   65.1380    9.8510 C.ar  101  DRF101      0.1588
     19  O21       15.4990   65.9450    9.9100 O.3   101  DRF101     -0.4510
     20  C4        16.7290   65.4170    9.6440 C.ar  101  DRF101      0.1588
     21  C3        16.9260   63.9950    9.7850 C.ar  101  DRF101      0.0868
     22  C2        18.2120   63.4480    9.5100 C.ar  101  DRF101      0.0179
     23  C1        19.2720   64.2820    9.1050 C.ar  101  DRF101      0.0015
     24  C6        19.0680   65.6740    8.9700 C.ar  101  DRF101      0.0032
     25  C5        17.8020   66.2370    9.2380 C.ar  101  DRF101      0.0388
     26  C15       13.1140   65.6760    9.6600 C.ar  101  DRF101      0.0388
     27  C14       11.9920   64.8180    9.6070 C.ar  101  DRF101      0.0032
     28  C13       12.1550   63.4170    9.7410 C.ar  101  DRF101      0.0015
     29  C12       13.4400   62.8660    9.9320 C.ar  101  DRF101      0.0179
     30  C31       16.0900   61.4570   15.2210 C.ar  101  DRF101      0.0366
     31  C32       16.4690   61.7680   16.5330 C.ar  101  DRF101     -0.0011
@<TRIPOS>BOND
     1    24    23   ar
     2    24    25   ar
     3    23    22   ar
     4    25    20   ar
     5    22    21   ar
     6    27    26   ar
     7    27    28   ar
     8    20    21   ar
     9    20    19    1
    10    26    18   ar
    11    28    29   ar
    12    21    16    1
    13    18    19    1
    14    18    17   ar
    15    29    17   ar
    16    17    16    1
    17    16    15    1
    18    15    14    1
    19    14    13    1
    20    13    12    1
    21    12    11   ar
    22    12    30   ar
    23    11    10   ar
    24    30    31   ar
    25    10     9   ar
    26    31     9   ar
    27     9     8    1
    28     7     6    1
    29     6     5    1
    30     8     4    1
    31     5     4    1
    32     4     2    1
    33     2     3   ar
    34     2     1   ar
