@<TRIPOS>MOLECULE
1nyy_105_A_1.pdb
 20 21 0 0 0
SMALL
GASTEIGER

@<TRIPOS>ATOM
      1  B         10.2750    7.7210   36.4050 B     300  105300      0.0000
      2  O1        11.1290    7.2940   35.2830 O.3   300  105300      0.0000
      3  O2         9.3310    8.7720   35.9420 O.3   300  105300      0.0000
      4  C3        11.1780    8.2920   37.5680 C.3   300  105300      0.0000
      5  N4        11.5090    9.7200   37.3810 N.am  300  105300      0.0000
      6  C5        12.2880   10.3280   38.2820 C.2   300  105300      0.0000
      7  O6        12.7120    9.6710   39.2380 O.2   300  105300      0.0000
      8  C7        12.6820   11.8250   38.1720 C.ar  300  105300      0.0000
      9  N11       12.6580   14.0360   37.6640 N.ar  300  105300      0.0000
     10  O10       13.8370   13.7460   38.5580 O.2   300  105300      0.0000
     11  C8        13.7040   12.4080   38.7570 C.ar  300  105300      0.0000
     12  C12       12.0360   12.8860   37.4620 C.ar  300  105300      0.0000
     13  C9        14.7010   11.6600   39.6050 C.3   300  105300      0.0000
     14  C13       10.8380   12.7870   36.5700 C.ar  300  105300      0.0000
     15  C14       10.9760   13.0310   35.1620 C.ar  300  105300      0.0000
     16 CL1        12.5310   13.3580   34.4890 Cl    300  105300      0.0000
     17  C15        9.8390   13.0160   34.3090 C.ar  300  105300      0.0000
     18  C16        8.5560   12.7510   34.8520 C.ar  300  105300      0.0000
     19  C17        8.4090   12.4980   36.2470 C.ar  300  105300      0.0000
     20  C18        9.5490   12.5150   37.1060 C.ar  300  105300      0.0000
@<TRIPOS>BOND
     1    17    18   ar
     2    17    15   ar
     3    16    15    1
     4    18    19   ar
     5    15    14   ar
     6     2     1    1
     7     3     1    1
     8    19    20   ar
     9     1     4    1
    10    14    20   ar
    11    14    12    1
    12     5     4    1
    13     5     6   am
    14    12     9   ar
    15    12     8   ar
    16     9    10   ar
    17     8     6    1
    18     8    11   ar
    19     6     7    2
    20    10    11   ar
    21    11    13    1
