@<TRIPOS>MOLECULE
1nz2_HEM_A_1.pdb
 43 50 0 0 0
SMALL
GASTEIGER

@<TRIPOS>ATOM
      1 FE         14.3340   29.6310    4.9480 Fe    154  HEM154      0.0000
      2  CHA       15.5720   32.8540    5.1590 C.2   154  HEM154      0.0000
      3  CHB       13.7470   29.6540    8.2970 C.2   154  HEM154      0.0000
      4  CHC       13.2350   26.4450    4.7670 C.2   154  HEM154      0.0000
      5  CHD       15.1980   29.5480    1.6080 C.2   154  HEM154      0.0000
      6  NA        14.6000   30.9890    6.4380 N.2   154  HEM154      0.0000
      7  C1A       15.0800   32.2900    6.2970 C.2   154  HEM154      0.0000
      8  C2A       14.9720   32.9340    7.5950 C.2   154  HEM154      0.0000
      9  C3A       14.4610   32.0680    8.4590 C.2   154  HEM154      0.0000
     10  C4A       14.2850   30.7880    7.7490 C.2   154  HEM154      0.0000
     11  CMA       14.0970   32.3050    9.9530 C.3   154  HEM154      0.0000
     12  CAA       15.3050   34.4300    7.7730 C.3   154  HEM154      0.0000
     13  CBA       14.1030   35.3840    8.0260 C.3   154  HEM154      0.0000
     14  CGA       13.2630   35.4350    6.7380 C.2   154  HEM154      0.0000
     15  O1A       13.7690   35.8280    5.6870 O.co2 154  HEM154      0.0000
     16  O2A       12.1360   34.8440    6.8240 O.co2 154  HEM154      0.0000
     17  NB        13.6320   28.3270    6.2540 N.ar  154  HEM154      0.0000
     18  C1B       13.4420   28.5100    7.6290 C.ar  154  HEM154      0.0000
     19  C2B       12.8780   27.3320    8.2280 C.ar  154  HEM154      0.0000
     20  C3B       12.7130   26.4210    7.2470 C.ar  154  HEM154      0.0000
     21  C4B       13.2230   27.0110    6.0270 C.ar  154  HEM154      0.0000
     22  CMB       12.5780   27.1780    9.7410 C.3   154  HEM154      0.0000
     23  CAB       12.2250   24.9910    7.3260 C.2   154  HEM154      0.0000
     24  CBB       12.6110   24.0830    8.2620 C.2   154  HEM154      0.0000
     25  NC        14.1860   28.2680    3.4480 N.2   154  HEM154      0.0000
     26  C1C       13.7890   26.9540    3.6100 C.2   154  HEM154      0.0000
     27  C2C       14.0000   26.2380    2.3570 C.2   154  HEM154      0.0000
     28  C3C       14.5010   27.1130    1.4770 C.2   154  HEM154      0.0000
     29  C4C       14.6820   28.4180    2.1840 C.2   154  HEM154      0.0000
     30  CMC       13.6250   24.7890    2.1320 C.3   154  HEM154      0.0000
     31  CAC       14.9970   26.9710    0.0090 C.2   154  HEM154      0.0000
     32  CBC       15.1950   25.8150   -0.5290 C.2   154  HEM154      0.0000
     33  ND        15.1700   30.9200    3.6520 N.ar  154  HEM154      0.0000
     34  C1D       15.4680   30.7200    2.3050 C.ar  154  HEM154      0.0000
     35  C2D       16.1310   31.8600    1.7510 C.ar  154  HEM154      0.0000
     36  C3D       16.2160   32.7970    2.7290 C.ar  154  HEM154      0.0000
     37  C4D       15.6380   32.2170    3.9180 C.ar  154  HEM154      0.0000
     38  CMD       16.5460   32.0230    0.2550 C.3   154  HEM154      0.0000
     39  CAD       16.8880   34.1980    2.6820 C.3   154  HEM154      0.0000
     40  CBD       18.3380   33.9920    3.1970 C.3   154  HEM154      0.0000
     41  CGD       19.2190   35.1670    3.3730 C.2   154  HEM154      0.0000
     42  O1D       19.5260   35.8230    2.3250 O.co2 154  HEM154      0.0000
     43  O2D       19.7270   35.4260    4.5030 O.co2 154  HEM154      0.0000
@<TRIPOS>BOND
     1    32    31    2
     2    31    28    1
     3    38    35    1
     4    28    29    1
     5    28    27    2
     6     5    29    1
     7     5    34    2
     8    35    34   ar
     9    35    36   ar
    10    30    27    1
    11    29    25    2
    12    34    33   ar
    13    42    41   ar
    14    27    26    1
    15    39    36    1
    16    39    40    1
    17    36    37   ar
    18    40    41    1
    19    41    43   ar
    20    25    26    1
    21    25     1    1
    22    26     4    2
    23    33    37   ar
    24    33     1    1
    25    37     2    2
    26     4    21    1
    27     1    17    1
    28     1     6    1
    29     2     7    1
    30    15    14   ar
    31    21    17   ar
    32    21    20   ar
    33    17    18   ar
    34     7     6    2
    35     7     8    1
    36     6    10    1
    37    14    16   ar
    38    14    13    1
    39    20    23    1
    40    20    19   ar
    41    23    24    2
    42     8    12    1
    43     8     9    2
    44    18    19   ar
    45    18     3    1
    46    10     3    2
    47    10     9    1
    48    12    13    1
    49    19    22    1
    50     9    11    1
