@<TRIPOS>MOLECULE
1nz3_HEM_A_1.pdb
 43 50 0 0 0
SMALL
GASTEIGER

@<TRIPOS>ATOM
      1 FE         32.6870    9.4920   15.3160 Fe    154  HEM154      0.0000
      2  CHA       35.8790    9.3070   16.5180 C.2   154  HEM154      0.0000
      3  CHB       32.7470   12.9040   15.6670 C.2   154  HEM154      0.0000
      4  CHC       29.5540    9.6910   14.1480 C.2   154  HEM154      0.0000
      5  CHD       32.5340    6.0970   15.1820 C.2   154  HEM154      0.0000
      6  NA        34.0490   10.8360   15.9640 N.2   154  HEM154      0.0000
      7  C1A       35.3660   10.5930   16.3870 C.2   154  HEM154      0.0000
      8  C2A       36.0070   11.8650   16.6950 C.2   154  HEM154      0.0000
      9  C3A       35.1300   12.8240   16.4950 C.2   154  HEM154      0.0000
     10  C4A       33.8800   12.1940   16.0600 C.2   154  HEM154      0.0000
     11  CMA       35.3250   14.3480   16.6310 C.3   154  HEM154      0.0000
     12  CAA       37.4800   12.0340   17.1160 C.3   154  HEM154      0.0000
     13  CBA       38.4040   12.4030   15.9180 C.3   154  HEM154      0.0000
     14  CGA       38.3270   11.4770   14.6880 C.2   154  HEM154      0.0000
     15  O1A       38.7820   10.3320   14.8130 O.co2 154  HEM154      0.0000
     16  O2A       37.7770   12.0680   13.6850 O.co2 154  HEM154      0.0000
     17  NB        31.4280   10.9830   14.9170 N.ar  154  HEM154      0.0000
     18  C1B       31.5880   12.3520   15.1390 C.ar  154  HEM154      0.0000
     19  C2B       30.4220   13.1260   14.7600 C.ar  154  HEM154      0.0000
     20  C3B       29.4830   12.2130   14.3750 C.ar  154  HEM154      0.0000
     21  C4B       30.0930   10.9030   14.4720 C.ar  154  HEM154      0.0000
     22  CMB       30.2710   14.6640   14.8580 C.3   154  HEM154      0.0000
     23  CAB       28.0530   12.4400   13.8220 C.3   154  HEM154      0.0000
     24  CBB       27.2130   13.3950   14.3890 C.3   154  HEM154      0.0000
     25  NC        31.3090    8.1300   14.7010 N.2   154  HEM154      0.0000
     26  C1C       30.0030    8.3910   14.3370 C.2   154  HEM154      0.0000
     27  C2C       29.2580    7.1280   14.2220 C.2   154  HEM154      0.0000
     28  C3C       30.0820    6.1390   14.4520 C.2   154  HEM154      0.0000
     29  C4C       31.4030    6.7650   14.7940 C.2   154  HEM154      0.0000
     30  CMC       27.7860    7.1100   13.7500 C.3   154  HEM154      0.0000
     31  CAC       29.9240    4.6120   14.4810 C.2   154  HEM154      0.0000
     32  CBC       28.8400    3.8840   14.5120 C.2   154  HEM154      0.0000
     33  ND        33.9380    7.9850   15.7590 N.ar  154  HEM154      0.0000
     34  C1D       33.7070    6.6530   15.6800 C.ar  154  HEM154      0.0000
     35  C2D       34.8660    5.9000   16.1700 C.ar  154  HEM154      0.0000
     36  C3D       35.7610    6.7980   16.5380 C.ar  154  HEM154      0.0000
     37  C4D       35.2280    8.1190   16.2920 C.ar  154  HEM154      0.0000
     38  CMD       34.9150    4.3740   16.2710 C.3   154  HEM154      0.0000
     39  CAD       37.1900    6.6240   17.1950 C.3   154  HEM154      0.0000
     40  CBD       36.9700    6.2550   18.6600 C.3   154  HEM154      0.0000
     41  CGD       37.8870    6.3750   19.7810 C.2   154  HEM154      0.0000
     42  O1D       37.7330    5.5740   20.7760 O.co2 154  HEM154      0.0000
     43  O2D       38.7010    7.3500   19.7890 O.co2 154  HEM154      0.0000
@<TRIPOS>BOND
     1    16    14   ar
     2    30    27    1
     3    23    20    1
     4    23    24    1
     5     4    26    2
     6     4    21    1
     7    27    26    1
     8    27    28    2
     9    26    25    1
    10    20    21   ar
    11    20    19   ar
    12    28    31    1
    13    28    29    1
    14    21    17   ar
    15    31    32    2
    16    14    15   ar
    17    14    13    1
    18    25    29    2
    19    25     1    1
    20    19    22    1
    21    19    18   ar
    22    29     5    1
    23    17    18   ar
    24    17     1    1
    25    18     3    1
    26     5    34    2
    27     1    33    1
    28     1     6    1
    29     3    10    2
    30    34    33   ar
    31    34    35   ar
    32    33    37   ar
    33    13    12    1
    34     6    10    1
    35     6     7    2
    36    10     9    1
    37    35    38    1
    38    35    36   ar
    39    37     2    2
    40    37    36   ar
    41     7     2    1
    42     7     8    1
    43     9    11    1
    44     9     8    2
    45    36    39    1
    46     8    12    1
    47    39    40    1
    48    40    41    1
    49    41    43   ar
    50    41    42   ar
