@<TRIPOS>MOLECULE
1nz4_HEM_A_1.pdb
 43 50 0 0 0
SMALL
GASTEIGER

@<TRIPOS>ATOM
      1 FE         32.4750    9.5340   15.1800 Fe    154  HEM154      0.0000
      2  CHA       35.7170    9.3650   16.3400 C.2   154  HEM154      0.0000
      3  CHB       32.4990   12.9080   15.5760 C.2   154  HEM154      0.0000
      4  CHC       29.2800    9.6790   13.9950 C.2   154  HEM154      0.0000
      5  CHD       32.3630    6.1560   15.0530 C.2   154  HEM154      0.0000
      6  NA        33.8170   10.8670   15.8270 N.2   154  HEM154      0.0000
      7  C1A       35.1340   10.6580   16.2150 C.2   154  HEM154      0.0000
      8  C2A       35.7530   11.9020   16.5350 C.2   154  HEM154      0.0000
      9  C3A       34.8530   12.8810   16.3610 C.2   154  HEM154      0.0000
     10  C4A       33.6180   12.2370   15.9190 C.2   154  HEM154      0.0000
     11  CMA       35.0160   14.3900   16.4960 C.3   154  HEM154      0.0000
     12  CAA       37.2260   12.1170   16.9700 C.3   154  HEM154      0.0000
     13  CBA       38.1400   12.6210   15.8050 C.3   154  HEM154      0.0000
     14  CGA       38.1300   11.6420   14.5950 C.2   154  HEM154      0.0000
     15  O1A       38.5170   10.4660   14.8310 O.co2 154  HEM154      0.0000
     16  O2A       37.6340   12.0620   13.5360 O.co2 154  HEM154      0.0000
     17  NB        31.1240   11.0020   14.8110 N.ar  154  HEM154      0.0000
     18  C1B       31.3340   12.3610   15.0250 C.ar  154  HEM154      0.0000
     19  C2B       30.1790   13.1050   14.6460 C.ar  154  HEM154      0.0000
     20  C3B       29.2620   12.2050   14.2300 C.ar  154  HEM154      0.0000
     21  C4B       29.8860   10.8920   14.3180 C.ar  154  HEM154      0.0000
     22  CMB       30.0230   14.6250   14.7860 C.3   154  HEM154      0.0000
     23  CAB       27.8410   12.4600   13.6640 C.3   154  HEM154      0.0000
     24  CBB       26.9350   13.4350   14.3900 C.3   154  HEM154      0.0000
     25  NC        31.0630    8.1680   14.6000 N.2   154  HEM154      0.0000
     26  C1C       29.7800    8.4080   14.2290 C.2   154  HEM154      0.0000
     27  C2C       29.0470    7.1260   14.0970 C.2   154  HEM154      0.0000
     28  C3C       29.9240    6.1470   14.3670 C.2   154  HEM154      0.0000
     29  C4C       31.1960    6.8070   14.7190 C.2   154  HEM154      0.0000
     30  CMC       27.5670    7.0500   13.6410 C.3   154  HEM154      0.0000
     31  CAC       29.8080    4.6260   14.4060 C.3   154  HEM154      0.0000
     32  CBC       28.6050    3.8080   14.3390 C.3   154  HEM154      0.0000
     33  ND        33.7620    8.0340   15.5760 N.ar  154  HEM154      0.0000
     34  C1D       33.5030    6.7000   15.5180 C.ar  154  HEM154      0.0000
     35  C2D       34.6680    5.9500   16.0280 C.ar  154  HEM154      0.0000
     36  C3D       35.5930    6.8430   16.3350 C.ar  154  HEM154      0.0000
     37  C4D       35.0290    8.1520   16.1550 C.ar  154  HEM154      0.0000
     38  CMD       34.6970    4.4210   16.1470 C.3   154  HEM154      0.0000
     39  CAD       36.9500    6.5860   17.0990 C.3   154  HEM154      0.0000
     40  CBD       36.6470    6.5040   18.5750 C.3   154  HEM154      0.0000
     41  CGD       37.4890    6.4210   19.7550 C.2   154  HEM154      0.0000
     42  O1D       36.9470    6.1080   20.8570 O.co2 154  HEM154      0.0000
     43  O2D       38.7000    6.6280   19.6120 O.co2 154  HEM154      0.0000
@<TRIPOS>BOND
     1    16    14   ar
     2    30    27    1
     3    23    20    1
     4    23    24    1
     5     4    26    2
     6     4    21    1
     7    27    26    1
     8    27    28    2
     9    26    25    1
    10    20    21   ar
    11    20    19   ar
    12    21    17   ar
    13    32    31    1
    14    28    31    1
    15    28    29    1
    16    14    15   ar
    17    14    13    1
    18    25    29    2
    19    25     1    1
    20    19    22    1
    21    19    18   ar
    22    29     5    1
    23    17    18   ar
    24    17     1    1
    25    18     3    1
    26     5    34    2
    27     1    33    1
    28     1     6    1
    29    34    33   ar
    30    34    35   ar
    31     3    10    2
    32    33    37   ar
    33    13    12    1
    34     6    10    1
    35     6     7    2
    36    10     9    1
    37    35    38    1
    38    35    36   ar
    39    37    36   ar
    40    37     2    2
    41     7     2    1
    42     7     8    1
    43    36    39    1
    44     9    11    1
    45     9     8    2
    46     8    12    1
    47    39    40    1
    48    40    41    1
    49    43    41   ar
    50    41    42   ar
