@<TRIPOS>MOLECULE
1nz5_HEM_A_1.pdb
 43 50 0 0 0
SMALL
GASTEIGER

@<TRIPOS>ATOM
      1 FE         32.9070    9.5450   15.2350 Fe    154  HEM154      0.0000
      2  CHA       36.1010    9.3610   16.3960 C.2   154  HEM154      0.0000
      3  CHB       33.0290   12.9820   15.5470 C.2   154  HEM154      0.0000
      4  CHC       29.7840    9.7230   14.0310 C.2   154  HEM154      0.0000
      5  CHD       32.7800    6.0770   15.0750 C.2   154  HEM154      0.0000
      6  NA        34.2690   10.8940   15.8120 N.2   154  HEM154      0.0000
      7  C1A       35.6010   10.6390   16.2770 C.2   154  HEM154      0.0000
      8  C2A       36.2470   11.8650   16.6110 C.2   154  HEM154      0.0000
      9  C3A       35.3820   12.8580   16.3740 C.2   154  HEM154      0.0000
     10  C4A       34.1440   12.2670   15.9180 C.2   154  HEM154      0.0000
     11  CMA       35.5940   14.3730   16.5460 C.3   154  HEM154      0.0000
     12  CAA       37.6940   12.0200   17.0380 C.3   154  HEM154      0.0000
     13  CBA       38.7450   12.3760   15.9150 C.3   154  HEM154      0.0000
     14  CGA       38.6960   11.4420   14.7010 C.2   154  HEM154      0.0000
     15  O1A       39.0760   10.2550   14.7960 O.co2 154  HEM154      0.0000
     16  O2A       38.1720   11.9620   13.6490 O.co2 154  HEM154      0.0000
     17  NB        31.6940   11.0250   14.8330 N.ar  154  HEM154      0.0000
     18  C1B       31.8630   12.3710   15.0630 C.ar  154  HEM154      0.0000
     19  C2B       30.6720   13.1010   14.7430 C.ar  154  HEM154      0.0000
     20  C3B       29.7940   12.2220   14.3020 C.ar  154  HEM154      0.0000
     21  C4B       30.3890   10.9260   14.3600 C.ar  154  HEM154      0.0000
     22  CMB       30.5830   14.6530   14.8710 C.3   154  HEM154      0.0000
     23  CAB       28.3340   12.4210   13.7890 C.3   154  HEM154      0.0000
     24  CBB       27.4290   13.4490   14.3950 C.3   154  HEM154      0.0000
     25  NC        31.5740    8.1780   14.6240 N.2   154  HEM154      0.0000
     26  C1C       30.2550    8.4460   14.2440 C.2   154  HEM154      0.0000
     27  C2C       29.5180    7.2100   14.1100 C.2   154  HEM154      0.0000
     28  C3C       30.3310    6.2010   14.4010 C.2   154  HEM154      0.0000
     29  C4C       31.6330    6.7920   14.7110 C.2   154  HEM154      0.0000
     30  CMC       28.0160    7.1630   13.6840 C.3   154  HEM154      0.0000
     31  CAC       30.0880    4.6880   14.4520 C.3   154  HEM154      0.0000
     32  CBC       28.8270    3.9660   14.4300 C.3   154  HEM154      0.0000
     33  ND        34.1540    8.0530   15.6090 N.ar  154  HEM154      0.0000
     34  C1D       33.9310    6.6950   15.5400 C.ar  154  HEM154      0.0000
     35  C2D       35.1020    5.9840   16.0340 C.ar  154  HEM154      0.0000
     36  C3D       35.9920    6.8920   16.3930 C.ar  154  HEM154      0.0000
     37  C4D       35.4570    8.1660   16.1410 C.ar  154  HEM154      0.0000
     38  CMD       35.2120    4.4460   16.1090 C.3   154  HEM154      0.0000
     39  CAD       37.4110    6.6620   17.0090 C.3   154  HEM154      0.0000
     40  CBD       37.2680    6.5980   18.5710 C.3   154  HEM154      0.0000
     41  CGD       38.4870    6.0630   19.2760 C.2   154  HEM154      0.0000
     42  O1D       38.6020    4.8090   19.3580 O.co2 154  HEM154      0.0000
     43  O2D       39.3030    6.8700   19.7450 O.co2 154  HEM154      0.0000
@<TRIPOS>BOND
     1    16    14   ar
     2    30    27    1
     3    23    20    1
     4    23    24    1
     5     4    26    2
     6     4    21    1
     7    27    26    1
     8    27    28    2
     9    26    25    1
    10    20    21   ar
    11    20    19   ar
    12    21    17   ar
    13    28    31    1
    14    28    29    1
    15    32    31    1
    16    25    29    2
    17    25     1    1
    18    14    15   ar
    19    14    13    1
    20    29     5    1
    21    19    22    1
    22    19    18   ar
    23    17    18   ar
    24    17     1    1
    25    18     3    1
    26     5    34    2
    27     1    33    1
    28     1     6    1
    29    34    33   ar
    30    34    35   ar
    31     3    10    2
    32    33    37   ar
    33     6    10    1
    34     6     7    2
    35    13    12    1
    36    10     9    1
    37    35    38    1
    38    35    36   ar
    39    37    36   ar
    40    37     2    2
    41     7     2    1
    42     7     8    1
    43     9    11    1
    44     9     8    2
    45    36    39    1
    46     8    12    1
    47    39    40    1
    48    40    41    1
    49    41    42   ar
    50    41    43   ar
