@<TRIPOS>MOLECULE
1nz7_901_A_1.pdb
 47 48 0 0 0
SMALL
GASTEIGER

@<TRIPOS>ATOM
      1  O6        35.7960   30.0420   23.4430 O.co2 322  901322     -0.2354
      2  C24       34.8560   29.2950   23.7270 C.2   322  901322      0.4411
      3  O7        33.9830   29.6860   24.4570 O.co2 322  901322     -0.2354
      4  C8        34.7810   27.8570   23.1240 C.2   322  901322      0.3367
      5  O5        35.0950   26.9380   23.9000 O.2   322  901322     -0.2620
      6  N4        34.3740   27.6280   21.7530 N.am  322  901322     -0.2285
      7  C26       34.3520   26.3200   21.1990 C.ar  322  901322      0.0649
      8  C27       33.1090   25.9260   20.5740 C.ar  322  901322      0.0155
      9  C28       32.9290   24.6680   19.9780 C.ar  322  901322      0.0013
     10  C29       33.9690   23.7240   19.9810 C.ar  322  901322      0.0003
     11  C30       35.2050   24.0410   20.5750 C.ar  322  901322      0.0078
     12  C25       35.4480   25.3150   21.2040 C.ar  322  901322      0.0937
     13  C31       36.8440   25.4580   21.7700 C.2   322  901322      0.3890
     14  O9        37.6800   24.5540   21.7180 O.co2 322  901322     -0.2405
     15  O10       37.2040   26.4580   22.3010 O.co2 322  901322     -0.2405
     16  C2        33.8780   28.7270   20.9920 C.ar  322  901322      0.0546
     17  C3        32.5840   29.2390   21.3870 C.ar  322  901322      0.0146
     18  C4        31.9140   30.3380   20.7780 C.ar  322  901322     -0.0029
     19  C5        32.5260   31.0410   19.7040 C.ar  322  901322     -0.0202
     20  C6        33.8780   30.4990   19.3010 C.ar  322  901322     -0.0072
     21  C1        34.5700   29.3730   19.9080 C.ar  322  901322     -0.0085
     22  C32       35.9420   28.8750   19.4460 C.3   322  901322      0.0276
     23  C33       37.0400   29.9520   19.3760 C.3   322  901322      0.0051
     24  C7        31.9740   32.2570   18.7980 C.3   322  901322      0.0574
     25  C9        31.1950   31.4670   17.6480 C.3   322  901322      0.1770
     26  N1        31.2010   32.2800   16.4480 N.am  322  901322     -0.1974
     27  C10       31.1170   33.3250   15.6150 C.2   322  901322      0.2423
     28  O4        31.5570   32.9620   14.4230 O.2   322  901322     -0.2733
     29  C23       30.8810   34.7290   15.9670 C.3   322  901322      0.0964
     30  C11       29.9780   30.5910   17.9600 C.2   322  901322      0.2616
     31  O8        30.3820   29.4080   17.8860 O.2   322  901322     -0.2715
     32  N2        28.7940   31.0600   18.1140 N.am  322  901322     -0.2040
     33  C12       27.6640   30.2030   18.2510 C.3   322  901322      0.1152
     34  C13       26.7540   30.7360   19.3630 C.3   322  901322      0.0239
     35  C15       27.4040   30.6850   20.7750 C.3   322  901322      0.0114
     36  C14       26.4990   31.2100   21.9140 C.3   322  901322      0.0869
     37  C16       25.3580   30.2310   22.2820 C.2   322  901322      0.2418
     38  O1        25.3270   29.0480   22.6160 O.2   322  901322     -0.2733
     39  N3        24.2710   31.0360   22.1280 N.am  322  901322     -0.1956
     40  C17       22.8930   30.5330   22.2650 C.3   322  901322      0.1986
     41  C22       22.6240   29.4330   21.2090 C.2   322  901322      0.3842
     42  O2        22.1050   28.3740   21.5520 O.co2 322  901322     -0.2437
     43  O3        22.9420   29.6080   20.0560 O.co2 322  901322     -0.2437
     44  C18       21.9070   31.7010   22.0810 C.3   322  901322      0.0453
     45  C34       21.9880   32.7600   23.1930 C.3   322  901322      0.0646
     46  S1        21.0650   32.2890   24.6740 S.3   322  901322     -0.1126
     47  C35       19.6410   31.7210   25.0580 C.2   322  901322      0.0375
@<TRIPOS>BOND
     1    28    27    2
     2    27    29    1
     3    27    26   am
     4    26    25    1
     5    25    30    1
     6    25    24    1
     7    31    30    2
     8    30    32   am
     9    32    33    1
    10    33    34    1
    11    24    19    1
    12    20    19   ar
    13    20    21   ar
    14    34    35    1
    15    23    22    1
    16    22    21    1
    17    19    18   ar
    18    21    16   ar
    19     9    10   ar
    20     9     8   ar
    21    10    11   ar
    22    43    41   ar
    23     8     7   ar
    24    11    12   ar
    25    35    36    1
    26    18    17   ar
    27    16    17   ar
    28    16     6    1
    29     7    12   ar
    30     7     6    1
    31    12    13    1
    32    41    42   ar
    33    41    40    1
    34    14    13   ar
    35     6     4   am
    36    13    15   ar
    37    36    37    1
    38    44    40    1
    39    44    45    1
    40    39    40    1
    41    39    37   am
    42    37    38    2
    43     4     2    1
    44     4     5    2
    45    45    46    1
    46     1     2   ar
    47     2     3   ar
    48    46    47    2
