@<TRIPOS>MOLECULE
1nzc_TDX_A_1.pdb
 34 36 0 0 0
SMALL
GASTEIGER

@<TRIPOS>ATOM
      1  O4         5.4730   -6.6220   -1.9010 O.2   9002  TDX9002    -0.2088
      2  C4         6.1800   -5.9310   -2.6520 C.1   9002  TDX9002     0.2134
      3  N3         7.5180   -6.0380   -2.6510 N.2   9002  TDX9002    -0.2455
      4  C2         8.2930   -5.2910   -3.4570 C.1   9002  TDX9002     0.2844
      5  O2         9.5520   -5.4320   -3.3830 O.2   9002  TDX9002    -0.1918
      6  C5         5.5690   -4.9810   -3.6190 C.2   9002  TDX9002     0.0891
      7  C5M        4.0960   -4.7900   -3.7430 C.3   9002  TDX9002     0.0462
      8  C6         6.4170   -4.2530   -4.4340 C.2   9002  TDX9002     0.0877
      9  N1         7.7450   -4.4290   -4.3550 N.am  9002  TDX9002    -0.1794
     10  C1B        8.5920   -3.5710   -5.1880 C.3   9002  TDX9002     0.2090
     11  C2B        8.3360   -3.5390   -6.6870 C.3   9002  TDX9002     0.0874
     12  C3B        8.6810   -2.1040   -7.0340 C.3   9002  TDX9002     0.1857
     13  O3B       10.0770   -1.9430   -7.2550 O.3   9002  TDX9002    -0.2203
     14  O4B        8.3230   -2.2350   -4.7220 O.3   9002  TDX9002    -0.3339
     15  C4B        8.3160   -1.2940   -5.8140 C.3   9002  TDX9002     0.1773
     16  C5B        6.9730   -0.5830   -5.9990 C.3   9002  TDX9002     0.1812
     17  O5B        5.9940   -1.5660   -6.3860 O.3   9002  TDX9002    -0.3112
     18  PA         4.5550   -1.1110   -6.8910 P.3   9002  TDX9002     0.2189
     19  O1A        3.8560   -2.3310   -7.3820 O.3   9002  TDX9002    -0.4371
     20  O2A        4.7620    0.0900   -7.8170 O.2   9002  TDX9002    -0.5170
     21  O3A        3.8820   -0.6090   -5.5130 O.3   9002  TDX9002    -0.2703
     22  PB         2.7290    0.4640   -5.2000 P.3   9002  TDX9002     0.2208
     23  O1B        2.1120    1.0610   -6.4460 O.2   9002  TDX9002    -0.5170
     24  O2B        3.3030    1.3030   -4.1020 O.3   9002  TDX9002    -0.4371
     25  O1'        1.6020   -0.4760   -4.5130 O.3   9002  TDX9002    -0.2857
     26  C1'        1.8500   -1.1820   -3.2910 C.3   9002  TDX9002     0.2742
     27  O5'        1.2920   -0.4730   -2.1780 O.3   9002  TDX9002    -0.3255
     28  C5'       -0.1310   -0.2830   -2.2780 C.3   9002  TDX9002     0.1803
     29  C2'        1.2540   -2.5790   -3.3940 C.3   9002  TDX9002     0.2409
     30  O2'        1.6400   -3.1880   -4.6490 O.3   9002  TDX9002    -0.2149
     31  C3'       -0.2660   -2.5440   -3.3360 C.3   9002  TDX9002     0.2198
     32  O3'       -0.7560   -3.8690   -3.1110 O.3   9002  TDX9002    -0.2174
     33  C4'       -0.8320   -1.6380   -2.2550 C.3   9002  TDX9002     0.2143
     34  O4'       -2.2510   -1.5370   -2.5050 O.3   9002  TDX9002    -0.2176
@<TRIPOS>BOND
     1    20    18    2
     2    19    18    1
     3    13    12    1
     4    12    11    1
     5    12    15    1
     6    18    17    1
     7    18    21    1
     8    11    10    1
     9    23    22    2
    10    17    16    1
    11    16    15    1
    12    15    14    1
    13    21    22    1
    14    22    25    1
    15    22    24    1
    16    10    14    1
    17    10     9    1
    18    30    29    1
    19    25    26    1
    20     8     9    1
    21     8     6    2
    22     9     4   am
    23     7     6    1
    24     6     2    1
    25     4     5    2
    26     4     3    2
    27    29    31    1
    28    29    26    1
    29    31    32    1
    30    31    33    1
    31    26    27    1
    32     2     3    2
    33     2     1    2
    34    34    33    1
    35    28    33    1
    36    28    27    1
