@<TRIPOS>MOLECULE
1nzd_UPG_A_1.pdb
 36 38 0 0 0
SMALL
GASTEIGER

@<TRIPOS>ATOM
      1  N1         5.2690    4.4060   29.6070 N.am  354  UPG354     -0.1766
      2  C2         5.6700    5.6870   29.9400 C.1   354  UPG354      0.2845
      3  N3         5.0470    6.2230   31.0340 N.2   354  UPG354     -0.2452
      4  C4         4.0800    5.6280   31.8110 C.1   354  UPG354      0.2182
      5  C5         3.7080    4.3090   31.3970 C.2   354  UPG354      0.1242
      6  C6         4.3010    3.7580   30.3310 C.2   354  UPG354      0.0929
      7  O2         6.5150    6.3040   29.3070 O.2   354  UPG354     -0.1918
      8  O4         3.6070    6.2530   32.7620 O.2   354  UPG354     -0.2085
      9  C1C        5.9450    3.7800   28.4640 C.3   354  UPG354      0.2401
     10  C2C        6.8260    2.5730   28.8140 C.3   354  UPG354      0.2319
     11  O2C        8.1260    2.8170   28.3100 O.3   354  UPG354     -0.2157
     12  C3C        6.0970    1.4240   28.1070 C.3   354  UPG354      0.2158
     13  C4C        5.5000    2.1340   26.9050 C.3   354  UPG354      0.1799
     14  O4C        4.9950    3.3470   27.5100 O.3   354  UPG354     -0.3320
     15  O3C        7.0070    0.4070   27.6940 O.3   354  UPG354     -0.2175
     16  C5C        4.4330    1.4320   26.0940 C.3   354  UPG354      0.1813
     17  O5C        3.3660    0.9950   26.9210 O.3   354  UPG354     -0.3112
     18  PA         1.9280    0.7260   26.2930 P.3   354  UPG354      0.2189
     19  O1A        1.1310   -0.0820   27.2480 O.3   354  UPG354     -0.4371
     20  O2A        1.3940    2.0080   25.7940 O.2   354  UPG354     -0.5170
     21  O3A        2.2530   -0.1760   24.9750 O.3   354  UPG354     -0.2703
     22  PB         2.8860   -1.6710   24.8430 P.3   354  UPG354      0.2208
     23  O1B        1.8880   -2.5180   24.1440 O.2   354  UPG354     -0.5170
     24  O2B        3.4440   -2.1050   26.1510 O.3   354  UPG354     -0.4371
     25  O3B        4.1070   -1.4270   23.8540 O.3   354  UPG354     -0.2857
     26  C1'        4.0050   -0.6750   22.6520 C.3   354  UPG354      0.2742
     27  C2'        4.2290   -1.5360   21.4220 C.3   354  UPG354      0.2409
     28  C3'        5.5900   -2.2090   21.5850 C.3   354  UPG354      0.2198
     29  C4'        6.6820   -1.1410   21.7240 C.3   354  UPG354      0.2144
     30  C5'        6.3460   -0.1530   22.8600 C.3   354  UPG354      0.1835
     31  C6'        7.2680    1.0520   22.8250 C.3   354  UPG354      0.2142
     32  O2'        3.2010   -2.5120   21.3470 O.3   354  UPG354     -0.2149
     33  O3'        5.8550   -3.0340   20.4640 O.3   354  UPG354     -0.2174
     34  O4'        7.9310   -1.7640   21.9920 O.3   354  UPG354     -0.2176
     35  O5'        4.9960    0.3590   22.7180 O.3   354  UPG354     -0.3254
     36  O6'        7.0790    1.7950   21.6250 O.3   354  UPG354     -0.2176
@<TRIPOS>BOND
     1    33    28    1
     2    32    27    1
     3    27    28    1
     4    27    26    1
     5    28    29    1
     6    36    31    1
     7    29    34    1
     8    29    30    1
     9    26    35    1
    10    26    25    1
    11    35    30    1
    12    31    30    1
    13    25    22    1
    14    23    22    2
    15    22    21    1
    16    22    24    1
    17    21    18    1
    18    20    18    2
    19    16    13    1
    20    16    17    1
    21    18    17    1
    22    18    19    1
    23    13    14    1
    24    13    12    1
    25    14     9    1
    26    15    12    1
    27    12    10    1
    28    11    10    1
    29     9    10    1
    30     9     1    1
    31     7     2    2
    32     1     2   am
    33     1     6    1
    34     2     3    2
    35     6     5    2
    36     3     4    2
    37     5     4    1
    38     4     8    2
