@<TRIPOS>MOLECULE
1nzf_UPG_A_1.pdb
 36 38 0 0 0
SMALL
GASTEIGER

@<TRIPOS>ATOM
      1  N1        23.1910   12.7750   14.8390 N.am  354  UPG354     -0.1766
      2  C2        23.4570   12.0080   13.7180 C.1   354  UPG354      0.2845
      3  N3        24.7500   11.5660   13.6070 N.2   354  UPG354     -0.2452
      4  C4        25.7930   11.8220   14.4680 C.1   354  UPG354      0.2182
      5  C5        25.4490   12.6390   15.6000 C.2   354  UPG354      0.1242
      6  C6        24.1850   13.0770   15.7440 C.2   354  UPG354      0.0929
      7  O2        22.6080   11.7450   12.8750 O.2   354  UPG354     -0.1918
      8  O4        26.9170   11.3970   14.1900 O.2   354  UPG354     -0.2085
      9  C1C       21.8020   13.2270   15.0100 C.3   354  UPG354      0.2401
     10  C2C       21.0540   12.6140   16.2020 C.3   354  UPG354      0.2319
     11  O2C       19.8510   12.0580   15.7250 O.3   354  UPG354     -0.2157
     12  C3C       20.8230   13.8320   17.1030 C.3   354  UPG354      0.2158
     13  C4C       20.6980   14.9530   16.0850 C.3   354  UPG354      0.1799
     14  O4C       21.7610   14.6330   15.1580 O.3   354  UPG354     -0.3320
     15  O3C       19.6170   13.6910   17.8490 O.3   354  UPG354     -0.2175
     16  C5C       20.8070   16.3830   16.5650 C.3   354  UPG354      0.1813
     17  O5C       21.9850   16.5750   17.3360 O.3   354  UPG354     -0.3112
     18  PA        22.5880   18.0380   17.5330 P.3   354  UPG354      0.2189
     19  O1A       23.5870   17.9940   18.6320 O.3   354  UPG354     -0.4371
     20  O2A       22.9780   18.5650   16.2030 O.2   354  UPG354     -0.5170
     21  O3A       21.3120   18.9200   18.0210 O.3   354  UPG354     -0.2703
     22  PB        20.4020   18.8080   19.3660 P.3   354  UPG354      0.2208
     23  O1B       20.5120   20.1060   20.0720 O.2   354  UPG354     -0.5170
     24  O2B       20.7230   17.5500   20.0900 O.3   354  UPG354     -0.4371
     25  O3B       18.9430   18.6700   18.7540 O.3   354  UPG354     -0.2857
     26  C1'       18.4450   19.4790   17.6860 C.3   354  UPG354      0.2742
     27  C2'       17.2760   20.3520   18.1090 C.3   354  UPG354      0.2409
     28  C3'       16.2030   19.4350   18.7050 C.3   354  UPG354      0.2198
     29  C4'       15.7870   18.3920   17.6550 C.3   354  UPG354      0.2144
     30  C5'       17.0210   17.6460   17.0970 C.3   354  UPG354      0.1835
     31  C6'       16.6640   16.7930   15.8940 C.3   354  UPG354      0.2142
     32  O2'       17.7140   21.3010   19.0680 O.3   354  UPG354     -0.2149
     33  O3'       15.0740   20.2040   19.0990 O.3   354  UPG354     -0.2174
     34  O4'       14.8800   17.4610   18.2290 O.3   354  UPG354     -0.2176
     35  O5'       18.0270   18.5870   16.6490 O.3   354  UPG354     -0.3254
     36  O6'       16.0910   17.5870   14.8600 O.3   354  UPG354     -0.2176
@<TRIPOS>BOND
     1     7     2    2
     2     3     2    2
     3     3     4    2
     4     2     1   am
     5     8     4    2
     6     4     5    1
     7     1     9    1
     8     1     6    1
     9    36    31    1
    10     9    14    1
    11     9    10    1
    12    14    13    1
    13     5     6    2
    14    11    10    1
    15    31    30    1
    16    13    16    1
    17    13    12    1
    18    10    12    1
    19    20    18    2
    20    16    17    1
    21    35    30    1
    22    35    26    1
    23    30    29    1
    24    12    15    1
    25    17    18    1
    26    18    21    1
    27    18    19    1
    28    29    34    1
    29    29    28    1
    30    26    27    1
    31    26    25    1
    32    21    22    1
    33    27    28    1
    34    27    32    1
    35    28    33    1
    36    25    22    1
    37    22    23    2
    38    22    24    1
