@<TRIPOS>MOLECULE
1nzq_162_H_1.pdb
 33 35 0 0 0
SMALL
GASTEIGER

@<TRIPOS>ATOM
      1  C12       17.4130   19.6270   22.7030 C.2   248  162248      0.2423
      2  O1        16.5320   20.3120   23.1870 O.2   248  162248     -0.2733
      3  C13       17.6080   18.2190   23.2290 C.3   248  162248      0.1495
      4  C14       18.2220   18.2510   24.6530 C.3   248  162248      0.0267
      5  C15       19.6100   18.9040   24.6510 C.3   248  162248      0.0019
      6  C16       19.8920   19.5320   26.0300 C.3   248  162248      0.0001
      7  C17       21.2730   20.2400   26.0150 C.3   248  162248      0.0000
      8  C18       22.3940   19.2370   25.6420 C.3   248  162248      0.0000
      9  C19       22.0830   18.5470   24.2870 C.3   248  162248      0.0000
     10  C20       20.6970   17.8530   24.3330 C.3   248  162248      0.0001
     11  N5        16.2780   17.5780   23.2610 N.3   248  162248     -0.1988
     12  C21       16.3760   16.1250   23.4350 C.3   248  162248      0.2033
     13  C22       14.9790   15.5680   23.5110 C.2   248  162248      0.3823
     14  O2        14.8070   14.3900   23.7850 O.co2 248  162248     -0.2440
     15  O3        14.0160   16.2950   23.2970 O.co2 248  162248     -0.2440
     16  O         16.1710   20.8500   19.8900 O.2   248  162248     -0.2712
     17  C7        16.6940   21.7070   20.5950 C.2   248  162248      0.2641
     18  C8        18.1070   21.4900   21.0880 C.3   248  162248      0.1762
     19  C9        19.0890   21.5310   19.9410 C.2   248  162248     -0.0003
     20  C10       19.7600   20.4080   19.8760 C.2   248  162248     -0.0071
     21  C11       19.3130   19.4720   20.9700 C.3   248  162248      0.1204
     22  N4        18.1970   20.1370   21.6970 N.am  248  162248     -0.2643
     23  N         10.1960   21.2160   24.3680 N.pl3 248  162248      0.2064
     24  C         11.0810   22.1810   24.0600 C.2   248  162248      0.4920
     25  N1        11.0320   23.3550   24.7010 N.pl3 248  162248      0.2064
     26  C1        12.0940   21.9700   23.0090 C.ar  248  162248      0.1585
     27  N2        12.5350   20.7590   22.4820 N.ar  248  162248     -0.3180
     28  C2        12.0890   19.4010   22.8550 C.3   248  162248      0.1307
     29  C3        13.4670   21.0240   21.5430 C.ar  248  162248      0.0735
     30  C4        12.7820   22.9660   22.3700 C.ar  248  162248      0.0243
     31  C5        13.6410   22.3610   21.4520 C.ar  248  162248      0.0184
     32  C6        14.6040   23.0750   20.5230 C.3   248  162248      0.1431
     33  N3        16.0090   22.8310   20.9630 N.am  248  162248     -0.1988
@<TRIPOS>BOND
     1    20    19    2
     2    20    21    1
     3    16    17    2
     4    19    18    1
     5    32    33    1
     6    32    31    1
     7    17    33   am
     8    17    18    1
     9    21    22    1
    10    18    22    1
    11    31    29   ar
    12    31    30   ar
    13    29    27   ar
    14    22     1   am
    15    30    26   ar
    16    27    28    1
    17    27    26   ar
    18     1     2    2
    19     1     3    1
    20    26    24    1
    21     3    11    1
    22     3     4    1
    23    11    12    1
    24    15    13   ar
    25    12    13    1
    26    13    14   ar
    27    24    23    2
    28    24    25    1
    29     9    10    1
    30     9     8    1
    31    10     5    1
    32     5     4    1
    33     5     6    1
    34     8     7    1
    35     7     6    1
