@<TRIPOS>MOLECULE
1nzw_NAD_A_1.pdb
 44 48 0 0 0
SMALL
GASTEIGER

@<TRIPOS>ATOM
      1  PA        75.1160   66.1580   56.8100 P.3   1502  NAD1502     0.2189
      2  O1A       74.3630   64.9720   56.3540 O.3   1502  NAD1502    -0.4371
      3  O2A       75.3340   67.1020   55.6900 O.2   1502  NAD1502    -0.5170
      4  O5B       76.5720   65.7310   57.3710 O.3   1502  NAD1502    -0.3112
      5  C5B       76.8800   64.3670   57.8060 C.3   1502  NAD1502     0.1813
      6  C4B       78.0980   63.7130   57.1440 C.3   1502  NAD1502     0.1821
      7  O4B       77.9040   63.5930   55.7190 O.3   1502  NAD1502    -0.3135
      8  C3B       79.3800   64.5430   57.4040 C.3   1502  NAD1502     0.2184
      9  O3B       80.5320   63.6990   57.2690 O.3   1502  NAD1502    -0.2174
     10  C2B       79.2840   65.4700   56.1910 C.3   1502  NAD1502     0.2570
     11  O2B       80.5790   65.9960   55.8890 O.3   1502  NAD1502    -0.2130
     12  C1B       78.8880   64.4350   55.1220 C.3   1502  NAD1502     0.3186
     13  N9A       78.3330   65.1210   53.9520 N.pl3 1502  NAD1502    -0.1439
     14  C8A       77.7930   66.4080   53.8430 C.3   1502  NAD1502     0.3377
     15  N7A       77.4600   66.7340   52.5270 N.2   1502  NAD1502    -0.2095
     16  C5A       77.8130   65.5990   51.8210 C.2   1502  NAD1502     0.2526
     17  C6A       77.7250   65.3640   50.4480 C.2   1502  NAD1502     0.4393
     18  N6A       77.2540   66.3280   49.6040 N.pl3 1502  NAD1502     0.2180
     19  N1A       78.1740   64.1250   49.9850 N.2   1502  NAD1502     0.0021
     20  C2A       78.6840   63.1800   50.8630 C.3   1502  NAD1502     0.5254
     21  N3A       78.7790   63.4080   52.2430 N.2   1502  NAD1502    -0.0055
     22  C4A       78.3230   64.6490   52.6590 C.2   1502  NAD1502     0.3518
     23  O3        74.3080   66.8690   58.0600 O.3   1502  NAD1502    -0.2703
     24  PN        74.7560   68.2480   58.8100 P.3   1502  NAD1502     0.2189
     25  O1N       74.8320   69.3530   57.8190 O.2   1502  NAD1502    -0.5170
     26  O2N       76.0540   68.1290   59.5030 O.3   1502  NAD1502    -0.4371
     27  O5D       73.6200   68.5030   59.9010 O.3   1502  NAD1502    -0.3112
     28  C5D       72.2950   68.9730   59.4190 C.3   1502  NAD1502     0.1813
     29  C4D       71.1070   68.2070   60.0090 C.3   1502  NAD1502     0.1799
     30  O4D       71.1690   66.8300   59.6580 O.3   1502  NAD1502    -0.3327
     31  C3D       71.1840   68.2030   61.5500 C.3   1502  NAD1502     0.2158
     32  O3D       70.6870   69.4440   62.0700 O.3   1502  NAD1502    -0.2175
     33  C2D       70.1930   67.0720   61.8590 C.3   1502  NAD1502     0.2309
     34  O2D       68.8610   67.4940   61.5410 O.3   1502  NAD1502    -0.2158
     35  C1D       70.6890   66.0790   60.7830 C.3   1502  NAD1502     0.2263
     36  N1N       71.7350   65.1800   61.2980 N.pl3 1502  NAD1502    -0.2787
     37  C2N       71.3260   63.9880   61.6590 C.3   1502  NAD1502     0.1244
     38  C3N       72.2060   63.0960   62.1230 C.2   1502  NAD1502     0.0544
     39  C7N       71.7660   61.8790   62.4870 C.2   1502  NAD1502     0.2818
     40  O7N       72.0640   61.4030   63.6090 O.2   1502  NAD1502    -0.2670
     41  N7N       71.0000   61.1720   61.6560 N.am  1502  NAD1502    -0.0839
     42  C4N       73.5100   63.4060   62.2270 C.2   1502  NAD1502     0.0033
     43  C5N       73.9720   64.5960   61.8770 C.2   1502  NAD1502     0.0157
     44  C6N       73.0290   65.4880   61.4010 C.2   1502  NAD1502     0.0633
@<TRIPOS>BOND
     1    18    17    1
     2    19    17    2
     3    19    20    1
     4    17    16    1
     5    20    21    1
     6    16    15    2
     7    16    22    1
     8    21    22    2
     9    15    14    1
    10    22    13    1
    11    14    13    1
    12    13    12    1
    13    12     7    1
    14    12    10    1
    15     3     1    2
    16     7     6    1
    17    11    10    1
    18    10     8    1
    19     2     1    1
    20     1     4    1
    21     1    23    1
    22     6     8    1
    23     6     5    1
    24     9     8    1
    25     4     5    1
    26    25    24    2
    27    23    24    1
    28    24    26    1
    29    24    27    1
    30    28    27    1
    31    28    29    1
    32    30    29    1
    33    30    35    1
    34    29    31    1
    35    35    36    1
    36    35    33    1
    37    36    44    1
    38    36    37    1
    39    44    43    2
    40    34    33    1
    41    31    33    1
    42    31    32    1
    43    41    39   am
    44    37    38    1
    45    43    42    1
    46    38    42    2
    47    38    39    1
    48    39    40    2
