@<TRIPOS>MOLECULE
1nzx_NAD_A_1.pdb
 27 29 0 0 0
SMALL
GASTEIGER

@<TRIPOS>ATOM
      1  PA        75.1040   66.0530   57.7860 P.3   1502  NAD1502     0.2231
      2  O1A       74.2510   65.3780   56.8120 O.2   1502  NAD1502    -0.5169
      3  O2A       75.0650   67.5220   57.5720 O.3   1502  NAD1502    -0.4370
      4  O5B       76.5810   65.5400   57.6700 O.3   1502  NAD1502    -0.3111
      5  C5B       76.9350   64.2040   58.1210 C.3   1502  NAD1502     0.1813
      6  C4B       78.1220   63.5760   57.3920 C.3   1502  NAD1502     0.1821
      7  O4B       77.8670   63.5650   55.9830 O.3   1502  NAD1502    -0.3135
      8  C3B       79.4130   64.3890   57.6410 C.3   1502  NAD1502     0.2184
      9  O3B       80.5540   63.5260   57.5130 O.3   1502  NAD1502    -0.2174
     10  C2B       79.2820   65.2950   56.3900 C.3   1502  NAD1502     0.2570
     11  O2B       80.5510   65.8700   56.0640 O.3   1502  NAD1502    -0.2130
     12  C1B       78.8810   64.2910   55.3080 C.3   1502  NAD1502     0.3186
     13  N9A       78.2950   64.9520   54.1620 N.pl3 1502  NAD1502    -0.1439
     14  C8A       77.7370   66.2180   54.0630 C.3   1502  NAD1502     0.3377
     15  N7A       77.3350   66.5370   52.7670 N.2   1502  NAD1502    -0.2095
     16  C5A       77.6690   65.4100   52.0610 C.2   1502  NAD1502     0.2526
     17  C6A       77.4950   65.1590   50.7200 C.2   1502  NAD1502     0.4393
     18  N6A       76.9530   66.0930   49.9020 N.pl3 1502  NAD1502     0.2180
     19  N1A       77.9090   63.9270   50.2190 N.2   1502  NAD1502     0.0021
     20  C2A       78.4800   62.9900   51.0780 C.3   1502  NAD1502     0.5254
     21  N3A       78.6610   63.2300   52.4380 N.2   1502  NAD1502    -0.0055
     22  C4A       78.2310   64.4720   52.8740 C.2   1502  NAD1502     0.3518
     23  O3        74.5860   65.6800   59.2560 O.3   1502  NAD1502    -0.2261
     24  PN        75.1220   66.4050   60.5990 P.3   1502  NAD1502     0.5373
     25  O1N       74.7820   67.8690   60.5510 O.2   1502  NAD1502    -0.2221
     26  O2N       76.6080   66.2530   60.6420 O.3   1502  NAD1502    -0.1143
     27  O5D       74.4100   65.6460   61.8620 O.3   1502  NAD1502    -0.1143
@<TRIPOS>BOND
     1    18    17    1
     2    19    17    2
     3    19    20    1
     4    17    16    1
     5    20    21    1
     6    16    15    2
     7    16    22    1
     8    21    22    2
     9    15    14    1
    10    22    13    1
    11    14    13    1
    12    13    12    1
    13    12     7    1
    14    12    10    1
    15     7     6    1
    16    11    10    1
    17    10     8    1
    18     2     1    2
    19     6     8    1
    20     6     5    1
    21     9     8    1
    22     3     1    1
    23     4     1    1
    24     4     5    1
    25     1    23    1
    26    23    24    1
    27    25    24    2
    28    24    26    1
    29    24    27    1
