@<TRIPOS>MOLECULE
1nzz_NAD_A_1.pdb
 44 48 0 0 0
SMALL
GASTEIGER

@<TRIPOS>ATOM
      1  PA        74.8520   66.1210   57.2460 P.3   1502  NAD1502     0.2189
      2  O1A       74.0430   64.9080   56.9510 O.3   1502  NAD1502    -0.4371
      3  O2A       74.6540   67.0930   56.1550 O.2   1502  NAD1502    -0.5170
      4  O5B       76.4380   65.8260   57.3420 O.3   1502  NAD1502    -0.3112
      5  C5B       76.8950   64.6230   58.0530 C.3   1502  NAD1502     0.1813
      6  C4B       78.0890   63.9030   57.4220 C.3   1502  NAD1502     0.1821
      7  O4B       77.9100   63.8120   55.9990 O.3   1502  NAD1502    -0.3135
      8  C3B       79.3970   64.6940   57.6710 C.3   1502  NAD1502     0.2184
      9  O3B       80.5270   63.8180   57.5460 O.3   1502  NAD1502    -0.2174
     10  C2B       79.3050   65.5930   56.4310 C.3   1502  NAD1502     0.2570
     11  O2B       80.5920   66.1450   56.1480 O.3   1502  NAD1502    -0.2130
     12  C1B       78.9420   64.5520   55.3580 C.3   1502  NAD1502     0.3186
     13  N9A       78.3690   65.1680   54.1640 N.pl3 1502  NAD1502    -0.1439
     14  C8A       77.9380   66.4810   53.9530 C.3   1502  NAD1502     0.3377
     15  N7A       77.5690   66.7200   52.6340 N.2   1502  NAD1502    -0.2095
     16  C5A       77.7850   65.5020   52.0260 C.2   1502  NAD1502     0.2526
     17  C6A       77.6160   65.1610   50.6930 C.2   1502  NAD1502     0.4393
     18  N6A       77.2240   66.0670   49.7460 N.pl3 1502  NAD1502     0.2180
     19  N1A       77.9380   63.8470   50.3320 N.2   1502  NAD1502     0.0021
     20  C2A       78.4100   62.9260   51.2660 C.3   1502  NAD1502     0.5254
     21  N3A       78.5810   63.2770   52.5980 N.2   1502  NAD1502    -0.0055
     22  C4A       78.2490   64.5850   52.9220 C.2   1502  NAD1502     0.3518
     23  O3        74.4450   66.7850   58.7060 O.3   1502  NAD1502    -0.2703
     24  PN        74.8870   68.3130   59.1810 P.3   1502  NAD1502     0.2189
     25  O1N       74.9190   69.2180   57.9980 O.2   1502  NAD1502    -0.5170
     26  O2N       76.2340   68.3410   59.8310 O.3   1502  NAD1502    -0.4371
     27  O5D       73.7430   68.7450   60.2120 O.3   1502  NAD1502    -0.3112
     28  C5D       72.4300   69.1830   59.6490 C.3   1502  NAD1502     0.1813
     29  C4D       71.2520   68.4030   60.2400 C.3   1502  NAD1502     0.1799
     30  O4D       71.3030   67.0130   59.8980 O.3   1502  NAD1502    -0.3327
     31  C3D       71.3430   68.3950   61.7740 C.3   1502  NAD1502     0.2158
     32  O3D       70.8990   69.6550   62.2930 O.3   1502  NAD1502    -0.2175
     33  C2D       70.3160   67.3010   62.0930 C.3   1502  NAD1502     0.2309
     34  O2D       68.9970   67.7580   61.7540 O.3   1502  NAD1502    -0.2158
     35  C1D       70.8020   66.2810   61.0330 C.3   1502  NAD1502     0.2263
     36  N1N       71.8300   65.3350   61.5410 N.pl3 1502  NAD1502    -0.2787
     37  C2N       71.3800   64.1550   61.9420 C.3   1502  NAD1502     0.1244
     38  C3N       72.2410   63.2290   62.4000 C.2   1502  NAD1502     0.0544
     39  C7N       71.7940   62.0030   62.8190 C.2   1502  NAD1502     0.2818
     40  O7N       72.1110   61.5510   63.9510 O.2   1502  NAD1502    -0.2670
     41  N7N       71.0070   61.2770   62.0140 N.am  1502  NAD1502    -0.0839
     42  C4N       73.5550   63.5270   62.4450 C.2   1502  NAD1502     0.0033
     43  C5N       74.0420   64.7070   62.0500 C.2   1502  NAD1502     0.0157
     44  C6N       73.1290   65.6190   61.5870 C.2   1502  NAD1502     0.0633
@<TRIPOS>BOND
     1    18    17    1
     2    19    17    2
     3    19    20    1
     4    17    16    1
     5    20    21    1
     6    16    15    2
     7    16    22    1
     8    21    22    2
     9    15    14    1
    10    22    13    1
    11    14    13    1
    12    13    12    1
    13    12     7    1
    14    12    10    1
    15     7     6    1
    16    11    10    1
    17     3     1    2
    18    10     8    1
    19     2     1    1
    20     1     4    1
    21     1    23    1
    22     4     5    1
    23     6     8    1
    24     6     5    1
    25     9     8    1
    26    25    24    2
    27    23    24    1
    28    24    26    1
    29    24    27    1
    30    28    27    1
    31    28    29    1
    32    30    29    1
    33    30    35    1
    34    29    31    1
    35    35    36    1
    36    35    33    1
    37    36    44    1
    38    36    37    1
    39    44    43    2
    40    34    33    1
    41    31    33    1
    42    31    32    1
    43    37    38    1
    44    41    39   am
    45    43    42    1
    46    38    42    2
    47    38    39    1
    48    39    40    2
