@<TRIPOS>MOLECULE
1o00_NAD_A_1.pdb
 44 48 0 0 0
SMALL
GASTEIGER

@<TRIPOS>ATOM
      1  PA        74.9540   65.5730   57.5180 P.3   1502  NAD1502     0.2189
      2  O1A       74.1230   64.3780   57.3340 O.3   1502  NAD1502    -0.4371
      3  O2A       74.8770   66.3790   56.2870 O.2   1502  NAD1502    -0.5170
      4  O5B       76.4590   65.1590   57.8850 O.3   1502  NAD1502    -0.3112
      5  C5B       76.8170   63.7780   58.2400 C.3   1502  NAD1502     0.1813
      6  C4B       78.0890   63.3070   57.5340 C.3   1502  NAD1502     0.1821
      7  O4B       77.9130   63.2810   56.1070 O.3   1502  NAD1502    -0.3135
      8  C3B       79.2560   64.2840   57.8200 C.3   1502  NAD1502     0.2184
      9  O3B       80.4860   63.5550   57.8530 O.3   1502  NAD1502    -0.2174
     10  C2B       79.2270   65.1720   56.5580 C.3   1502  NAD1502     0.2570
     11  O2B       80.5370   65.7100   56.3200 O.3   1502  NAD1502    -0.2130
     12  C1B       78.8970   64.1220   55.5060 C.3   1502  NAD1502     0.3186
     13  N9A       78.3460   64.7900   54.3460 N.pl3 1502  NAD1502    -0.1439
     14  C8A       77.7810   66.0650   54.2140 C.3   1502  NAD1502     0.3377
     15  N7A       77.4260   66.3390   52.8950 N.2   1502  NAD1502    -0.2095
     16  C5A       77.8030   65.1710   52.2210 C.2   1502  NAD1502     0.2526
     17  C6A       77.6620   64.9160   50.8800 C.2   1502  NAD1502     0.4393
     18  N6A       77.1980   65.8860   50.0790 N.pl3 1502  NAD1502     0.2180
     19  N1A       78.0990   63.6650   50.4110 N.2   1502  NAD1502     0.0021
     20  C2A       78.6360   62.7660   51.3300 C.3   1502  NAD1502     0.5254
     21  N3A       78.7830   63.0330   52.6920 N.2   1502  NAD1502    -0.0055
     22  C4A       78.3260   64.2850   53.0810 C.2   1502  NAD1502     0.3518
     23  O3        74.4260   66.4070   58.7860 O.3   1502  NAD1502    -0.2703
     24  PN        74.8230   67.9610   59.0410 P.3   1502  NAD1502     0.2189
     25  O1N       74.7370   68.7220   57.7760 O.2   1502  NAD1502    -0.5170
     26  O2N       76.2010   68.0490   59.5640 O.3   1502  NAD1502    -0.4371
     27  O5D       73.7950   68.5060   60.1220 O.3   1502  NAD1502    -0.3112
     28  C5D       72.4550   68.9390   59.7080 C.3   1502  NAD1502     0.1813
     29  C4D       71.3330   68.1390   60.3800 C.3   1502  NAD1502     0.1799
     30  O4D       71.3670   66.7450   60.0710 O.3   1502  NAD1502    -0.3327
     31  C3D       71.4980   68.1760   61.9010 C.3   1502  NAD1502     0.2158
     32  O3D       71.0390   69.4370   62.4100 O.3   1502  NAD1502    -0.2175
     33  C2D       70.5080   67.0760   62.2760 C.3   1502  NAD1502     0.2309
     34  O2D       69.1710   67.5510   62.0890 O.3   1502  NAD1502    -0.2158
     35  C1D       70.8360   66.0140   61.2030 C.3   1502  NAD1502     0.2263
     36  N1N       71.8230   65.0180   61.6860 N.pl3 1502  NAD1502    -0.2787
     37  C2N       71.4400   63.8190   62.1140 C.3   1502  NAD1502     0.1244
     38  C3N       72.3620   62.9040   62.4730 C.2   1502  NAD1502     0.0544
     39  C7N       71.9850   61.7020   62.9020 C.2   1502  NAD1502     0.2818
     40  O7N       72.4240   61.2670   63.9890 O.2   1502  NAD1502    -0.2670
     41  N7N       71.1340   60.9680   62.1890 N.am  1502  NAD1502    -0.0839
     42  C4N       73.6580   63.1880   62.4120 C.2   1502  NAD1502     0.0033
     43  C5N       74.0770   64.3740   61.9960 C.2   1502  NAD1502     0.0157
     44  C6N       73.1100   65.2910   61.6300 C.2   1502  NAD1502     0.0633
@<TRIPOS>BOND
     1    18    17    1
     2    19    17    2
     3    19    20    1
     4    17    16    1
     5    20    21    1
     6    16    15    2
     7    16    22    1
     8    21    22    2
     9    15    14    1
    10    22    13    1
    11    14    13    1
    12    13    12    1
    13    12     7    1
    14    12    10    1
    15     7     6    1
    16     3     1    2
    17    11    10    1
    18    10     8    1
    19     2     1    1
    20     1     4    1
    21     1    23    1
    22     6     8    1
    23     6     5    1
    24    25    24    2
    25     8     9    1
    26     4     5    1
    27    23    24    1
    28    24    26    1
    29    24    27    1
    30    28    27    1
    31    28    29    1
    32    30    29    1
    33    30    35    1
    34    29    31    1
    35    35    36    1
    36    35    33    1
    37    44    36    1
    38    44    43    2
    39    36    37    1
    40    31    33    1
    41    31    32    1
    42    43    42    1
    43    34    33    1
    44    37    38    1
    45    41    39   am
    46    42    38    2
    47    38    39    1
    48    39    40    2
