@<TRIPOS>MOLECULE
1o01_NAD_A_1.pdb
 44 48 0 0 0
SMALL
GASTEIGER

@<TRIPOS>ATOM
      1  PA        75.2590   65.7520   57.1950 P.3   5501  NAD5501     0.2189
      2  O1A       74.3170   64.7020   56.7350 O.3   5501  NAD5501    -0.4371
      3  O2A       75.4450   66.7780   56.1480 O.2   5501  NAD5501    -0.5170
      4  O5B       76.7010   65.1790   57.4950 O.3   5501  NAD5501    -0.3112
      5  C5B       76.9800   63.8030   57.8240 C.3   5501  NAD5501     0.1813
      6  C4B       78.2530   63.2390   57.1850 C.3   5501  NAD5501     0.1821
      7  O4B       78.0960   63.1960   55.7640 O.3   5501  NAD5501    -0.3135
      8  C3B       79.4820   64.1260   57.5030 C.3   5501  NAD5501     0.2184
      9  O3B       80.6680   63.3250   57.4430 O.3   5501  NAD5501    -0.2174
     10  C2B       79.3910   65.0330   56.2450 C.3   5501  NAD5501     0.2570
     11  O2B       80.6530   65.6560   55.9880 O.3   5501  NAD5501    -0.2130
     12  C1B       79.0940   64.0090   55.1470 C.3   5501  NAD5501     0.3186
     13  N9A       78.5240   64.6830   53.9800 N.pl3 5501  NAD5501    -0.1439
     14  C8A       77.9440   65.9500   53.8630 C.3   5501  NAD5501     0.3377
     15  N7A       77.5480   66.2300   52.5530 N.2   5501  NAD5501    -0.2095
     16  C5A       77.9010   65.0950   51.8550 C.2   5501  NAD5501     0.2526
     17  C6A       77.7200   64.8020   50.5120 C.2   5501  NAD5501     0.4393
     18  N6A       77.2570   65.7030   49.6190 N.pl3 5501  NAD5501     0.2180
     19  N1A       78.1320   63.5500   50.0680 N.2   5501  NAD5501     0.0021
     20  C2A       78.7100   62.6460   50.9610 C.3   5501  NAD5501     0.5254
     21  N3A       78.9030   62.9320   52.3050 N.2   5501  NAD5501    -0.0055
     22  C4A       78.4730   64.1820   52.6960 C.2   5501  NAD5501     0.3518
     23  O3        74.7240   66.3990   58.5610 O.3   5501  NAD5501    -0.2703
     24  PN        75.1280   67.9030   59.0880 P.3   5501  NAD5501     0.2189
     25  O1N       75.2700   68.8840   57.9900 O.2   5501  NAD5501    -0.5170
     26  O2N       76.3920   67.8540   59.8470 O.3   5501  NAD5501    -0.4371
     27  O5D       73.8960   68.3220   60.0420 O.3   5501  NAD5501    -0.3112
     28  C5D       72.6190   68.7780   59.4510 C.3   5501  NAD5501     0.1813
     29  C4D       71.4790   67.9900   60.0930 C.3   5501  NAD5501     0.1799
     30  O4D       71.6730   66.5920   59.9050 O.3   5501  NAD5501    -0.3327
     31  C3D       71.5600   68.0890   61.6270 C.3   5501  NAD5501     0.2158
     32  O3D       71.0240   69.3450   62.0660 O.3   5501  NAD5501    -0.2175
     33  C2D       70.6200   66.9470   62.0340 C.3   5501  NAD5501     0.2309
     34  O2D       69.2630   67.3220   61.7650 O.3   5501  NAD5501    -0.2158
     35  C1D       71.0770   65.8760   61.0080 C.3   5501  NAD5501     0.2263
     36  N1N       72.0560   64.8990   61.5410 N.pl3 5501  NAD5501    -0.2787
     37  C2N       71.6320   63.6800   61.8700 C.3   5501  NAD5501     0.1244
     38  C3N       72.5110   62.8020   62.3820 C.2   5501  NAD5501     0.0544
     39  C7N       72.1640   61.5520   62.7490 C.2   5501  NAD5501     0.2818
     40  O7N       72.6590   61.0330   63.7750 O.2   5501  NAD5501    -0.2670
     41  N7N       71.2960   60.8230   62.0520 N.am  5501  NAD5501    -0.0839
     42  C4N       73.7870   63.1590   62.5510 C.2   5501  NAD5501     0.0033
     43  C5N       74.2490   64.3650   62.2320 C.2   5501  NAD5501     0.0157
     44  C6N       73.3310   65.2450   61.7110 C.2   5501  NAD5501     0.0633
@<TRIPOS>BOND
     1    18    17    1
     2    19    17    2
     3    19    20    1
     4    17    16    1
     5    20    21    1
     6    16    15    2
     7    16    22    1
     8    21    22    2
     9    15    14    1
    10    22    13    1
    11    14    13    1
    12    13    12    1
    13    12     7    1
    14    12    10    1
    15     7     6    1
    16    11    10    1
    17     3     1    2
    18    10     8    1
    19     2     1    1
    20     6     8    1
    21     6     5    1
    22     1     4    1
    23     1    23    1
    24     9     8    1
    25     4     5    1
    26    25    24    2
    27    23    24    1
    28    24    26    1
    29    24    27    1
    30    28    27    1
    31    28    29    1
    32    30    29    1
    33    30    35    1
    34    29    31    1
    35    35    36    1
    36    35    33    1
    37    36    44    1
    38    36    37    1
    39    31    33    1
    40    31    32    1
    41    44    43    2
    42    34    33    1
    43    37    38    1
    44    41    39   am
    45    43    42    1
    46    38    42    2
    47    38    39    1
    48    39    40    2
