@<TRIPOS>MOLECULE
1o02_NAD_A_1.pdb
 44 48 0 0 0
SMALL
GASTEIGER

@<TRIPOS>ATOM
      1  PA        74.9400   66.2200   57.1370 P.3   5501  NAD5501     0.2189
      2  O1A       74.0340   65.1170   56.7390 O.3   5501  NAD5501    -0.4371
      3  O2A       75.0650   67.2210   56.0390 O.2   5501  NAD5501    -0.5170
      4  O5B       76.3960   65.7370   57.4150 O.3   5501  NAD5501    -0.3112
      5  C5B       76.6420   64.4520   58.0490 C.3   5501  NAD5501     0.1813
      6  C4B       77.8640   63.7370   57.4650 C.3   5501  NAD5501     0.1821
      7  O4B       77.7100   63.6100   56.0530 O.3   5501  NAD5501    -0.3135
      8  C3B       79.1670   64.5460   57.7150 C.3   5501  NAD5501     0.2184
      9  O3B       80.2890   63.6530   57.6860 O.3   5501  NAD5501    -0.2174
     10  C2B       79.1580   65.4110   56.4250 C.3   5501  NAD5501     0.2570
     11  O2B       80.4870   65.8450   56.1190 O.3   5501  NAD5501    -0.2130
     12  C1B       78.7270   64.3600   55.3990 C.3   5501  NAD5501     0.3186
     13  N9A       78.1920   65.0190   54.2220 N.pl3 5501  NAD5501    -0.1439
     14  C8A       77.5910   66.2780   54.0890 C.3   5501  NAD5501     0.3377
     15  N7A       77.2520   66.5440   52.7580 N.2   5501  NAD5501    -0.2095
     16  C5A       77.6590   65.4200   52.0620 C.2   5501  NAD5501     0.2526
     17  C6A       77.5320   65.1190   50.7090 C.2   5501  NAD5501     0.4393
     18  N6A       77.1080   66.0300   49.7720 N.pl3 5501  NAD5501     0.2180
     19  N1A       77.9800   63.8610   50.2960 N.2   5501  NAD5501     0.0021
     20  C2A       78.5340   62.9620   51.2030 C.3   5501  NAD5501     0.5254
     21  N3A       78.6680   63.2670   52.5490 N.2   5501  NAD5501    -0.0055
     22  C4A       78.2120   64.5150   52.9310 C.2   5501  NAD5501     0.3518
     23  O3        74.3570   66.8670   58.4750 O.3   5501  NAD5501    -0.2703
     24  PN        74.7620   68.2890   59.1710 P.3   5501  NAD5501     0.2189
     25  O1N       74.8270   69.3670   58.1600 O.2   5501  NAD5501    -0.5170
     26  O2N       76.0340   68.1840   59.8750 O.3   5501  NAD5501    -0.4371
     27  O5D       73.5320   68.5450   60.1830 O.3   5501  NAD5501    -0.3112
     28  C5D       72.2270   69.0100   59.6250 C.3   5501  NAD5501     0.1813
     29  C4D       71.0730   68.2360   60.2640 C.3   5501  NAD5501     0.1799
     30  O4D       71.2710   66.8650   60.0060 O.3   5501  NAD5501    -0.3327
     31  C3D       71.1530   68.3020   61.8050 C.3   5501  NAD5501     0.2158
     32  O3D       70.5660   69.5250   62.2800 O.3   5501  NAD5501    -0.2175
     33  C2D       70.2580   67.1170   62.1860 C.3   5501  NAD5501     0.2309
     34  O2D       68.8880   67.4510   61.9330 O.3   5501  NAD5501    -0.2158
     35  C1D       70.7490   66.1180   61.1170 C.3   5501  NAD5501     0.2263
     36  N1N       71.7610   65.1820   61.6310 N.pl3 5501  NAD5501    -0.2787
     37  C2N       71.3470   63.9530   61.9510 C.3   5501  NAD5501     0.1244
     38  C3N       72.2020   63.0850   62.5310 C.2   5501  NAD5501     0.0544
     39  C7N       71.8260   61.8320   62.8870 C.2   5501  NAD5501     0.2818
     40  O7N       72.2630   61.3330   63.9510 O.2   5501  NAD5501    -0.2670
     41  N7N       70.9920   61.0930   62.1590 N.am  5501  NAD5501    -0.0839
     42  C4N       73.4770   63.4830   62.7750 C.2   5501  NAD5501     0.0033
     43  C5N       73.9260   64.7050   62.4550 C.2   5501  NAD5501     0.0157
     44  C6N       73.0220   65.5650   61.8660 C.2   5501  NAD5501     0.0633
@<TRIPOS>BOND
     1    18    17    1
     2    19    17    2
     3    19    20    1
     4    17    16    1
     5    20    21    1
     6    16    15    2
     7    16    22    1
     8    21    22    2
     9    15    14    1
    10    22    13    1
    11    14    13    1
    12    13    12    1
    13    12     7    1
    14    12    10    1
    15     3     1    2
    16     7     6    1
    17    11    10    1
    18    10     8    1
    19     2     1    1
    20     1     4    1
    21     1    23    1
    22     4     5    1
    23     6     8    1
    24     6     5    1
    25     9     8    1
    26    25    24    2
    27    23    24    1
    28    24    26    1
    29    24    27    1
    30    28    27    1
    31    28    29    1
    32    30    29    1
    33    30    35    1
    34    29    31    1
    35    35    36    1
    36    35    33    1
    37    36    44    1
    38    36    37    1
    39    31    33    1
    40    31    32    1
    41    44    43    2
    42    34    33    1
    43    37    38    1
    44    41    39   am
    45    43    42    1
    46    38    42    2
    47    38    39    1
    48    39    40    2
