@<TRIPOS>MOLECULE
1o03_G16_A_1.pdb
 20 20 0 0 0
SMALL
GASTEIGER

@<TRIPOS>ATOM
      1  C1        12.4670   21.5620   12.5880 C.3   501  G16501      0.2781
      2  C2        11.3660   20.6950   11.9330 C.3   501  G16501      0.2410
      3  C3        11.2630   19.3800   12.6940 C.3   501  G16501      0.2198
      4  C4        12.6130   18.6410   12.6570 C.3   501  G16501      0.2143
      5  C5        13.6760   19.5220   13.3120 C.3   501  G16501      0.1807
      6  C6        15.1080   18.9610   13.3820 C.3   501  G16501      0.1859
      7  O1        12.5700   22.7720   11.8870 O.3   501  G16501     -0.2416
      8  O2        10.1160   21.3790   11.9930 O.3   501  G16501     -0.2149
      9  O3        10.2600   18.5730   12.0730 O.3   501  G16501     -0.2174
     10  O4        12.5280   17.4170   13.3910 O.3   501  G16501     -0.2176
     11  O5        13.7600   20.8150   12.5440 O.3   501  G16501     -0.3254
     12  O6        15.5850   18.9310   12.0230 O.3   501  G16501     -0.2675
     13  P         16.8930   18.1050   11.5850 P.3   501  G16501      0.5327
     14  O1P       17.9770   18.6390   12.4330 O.3   501  G16501     -0.1145
     15  O2P       17.0000   18.4010   10.1280 O.2   501  G16501     -0.2224
     16  O3P       16.5050   16.7000   11.8350 O.3   501  G16501     -0.1145
     17  P'        11.8430   24.5040   11.8650 P.3   501  G16501      0.5346
     18  O1X       12.3280   24.6270   13.3770 O.3   501  G16501     -0.1145
     19  O2X       10.6280   24.0790   11.6720 O.3   501  G16501     -0.1145
     20  O3X       12.6830   24.9950   10.7040 O.2   501  G16501     -0.2223
@<TRIPOS>BOND
     1    15    13    2
     2    20    17    2
     3    13    16    1
     4    13    12    1
     5    13    14    1
     6    19    17    1
     7    17     7    1
     8    17    18    1
     9     7     1    1
    10     2     8    1
    11     2     1    1
    12     2     3    1
    13    12     6    1
    14     9     3    1
    15    11     1    1
    16    11     5    1
    17     4     3    1
    18     4     5    1
    19     4    10    1
    20     5     6    1
