@<TRIPOS>MOLECULE
1o04_NAD_A_1.pdb
 44 48 0 0 0
SMALL
GASTEIGER

@<TRIPOS>ATOM
      1  PA        75.1710   66.1720   57.8590 P.3   6501  NAD6501     0.2189
      2  O1A       74.1930   65.5010   56.9600 O.2   6501  NAD6501    -0.5170
      3  O2A       75.3740   67.6700   57.5840 O.3   6501  NAD6501    -0.4371
      4  O5B       76.6550   65.5370   57.6920 O.3   6501  NAD6501    -0.3112
      5  C5B       76.9260   64.1820   58.0820 C.3   6501  NAD6501     0.1813
      6  C4B       78.2330   63.7510   57.4130 C.3   6501  NAD6501     0.1821
      7  O4B       78.0480   63.7960   56.0130 O.3   6501  NAD6501    -0.3135
      8  C3B       79.4700   64.6060   57.7040 C.3   6501  NAD6501     0.2184
      9  O3B       80.6420   63.7980   57.7340 O.3   6501  NAD6501    -0.2174
     10  C2B       79.4740   65.5550   56.5090 C.3   6501  NAD6501     0.2570
     11  O2B       80.7290   66.1220   56.1720 O.3   6501  NAD6501    -0.2130
     12  C1B       79.0180   64.6230   55.4050 C.3   6501  NAD6501     0.3186
     13  N9A       78.4650   65.3490   54.2580 N.pl3 6501  NAD6501    -0.1439
     14  C8A       77.9370   66.6170   54.2030 C.3   6501  NAD6501     0.3377
     15  N7A       77.6180   66.9040   52.9170 N.2   6501  NAD6501    -0.2095
     16  C5A       77.9160   65.8350   52.1350 C.2   6501  NAD6501     0.2526
     17  C6A       77.8000   65.5670   50.7730 C.2   6501  NAD6501     0.4393
     18  N6A       77.2910   66.4540   49.8980 N.pl3 6501  NAD6501     0.2180
     19  N1A       78.2130   64.3350   50.3170 N.2   6501  NAD6501     0.0021
     20  C2A       78.7300   63.4050   51.1990 C.3   6501  NAD6501     0.5254
     21  N3A       78.8960   63.6800   52.5350 N.2   6501  NAD6501    -0.0055
     22  C4A       78.4460   64.8670   52.9840 C.2   6501  NAD6501     0.3518
     23  O3        74.7230   65.8300   59.3760 O.3   6501  NAD6501    -0.2703
     24  PN        75.4350   66.3660   60.7210 P.3   6501  NAD6501     0.2189
     25  O1N       75.0700   67.8040   60.9030 O.3   6501  NAD6501    -0.4371
     26  O2N       76.8630   65.9390   60.7940 O.2   6501  NAD6501    -0.5170
     27  O5D       74.6420   65.5400   61.8650 O.3   6501  NAD6501    -0.3112
     28  C5D       73.3450   65.8780   62.3060 C.3   6501  NAD6501     0.1813
     29  C4D       72.3070   64.9990   61.6050 C.3   6501  NAD6501     0.1799
     30  O4D       72.6530   63.6300   61.7360 O.3   6501  NAD6501    -0.3327
     31  C3D       70.9280   65.1170   62.2300 C.3   6501  NAD6501     0.2158
     32  O3D       69.9830   65.1170   61.1840 O.3   6501  NAD6501    -0.2175
     33  C2D       70.7820   63.8470   63.0590 C.3   6501  NAD6501     0.2309
     34  O2D       69.4670   63.3970   63.2750 O.3   6501  NAD6501    -0.2158
     35  C1D       71.5620   62.8550   62.2160 C.3   6501  NAD6501     0.2263
     36  N1N       72.0620   61.6880   62.9690 N.pl3 6501  NAD6501    -0.2787
     37  C2N       71.4270   60.4820   62.7640 C.3   6501  NAD6501     0.1244
     38  C3N       71.8660   59.3670   63.4780 C.2   6501  NAD6501     0.0544
     39  C7N       71.2020   58.0320   63.3230 C.2   6501  NAD6501     0.2818
     40  O7N       71.7650   56.9600   64.0190 O.2   6501  NAD6501    -0.2670
     41  N7N       70.1330   57.8670   62.5370 N.am  6501  NAD6501    -0.0839
     42  C4N       72.9590   59.4910   64.3480 C.2   6501  NAD6501     0.0033
     43  C5N       73.6020   60.7220   64.5300 C.2   6501  NAD6501     0.0157
     44  C6N       73.1300   61.8310   63.8170 C.2   6501  NAD6501     0.0633
@<TRIPOS>BOND
     1    18    17    1
     2    19    17    2
     3    19    20    1
     4    17    16    1
     5    20    21    1
     6    16    15    2
     7    16    22    1
     8    21    22    2
     9    15    14    1
    10    22    13    1
    11    14    13    1
    12    13    12    1
    13    12     7    1
    14    12    10    1
    15     7     6    1
    16    11    10    1
    17    10     8    1
    18     2     1    2
    19     6     8    1
    20     6     5    1
    21     3     1    1
    22     4     1    1
    23     4     5    1
    24     8     9    1
    25     1    23    1
    26    23    24    1
    27    24    26    2
    28    24    25    1
    29    24    27    1
    30    32    31    1
    31    29    30    1
    32    29    31    1
    33    29    28    1
    34    30    35    1
    35    27    28    1
    36    35    36    1
    37    35    33    1
    38    31    33    1
    39    41    39   am
    40    37    36    1
    41    37    38    1
    42    36    44    1
    43    33    34    1
    44    39    38    1
    45    39    40    2
    46    38    42    2
    47    44    43    2
    48    42    43    1
