@<TRIPOS>MOLECULE
1o07_MXG_A_1.pdb
 40 40 0 0 0
SMALL
GASTEIGER

@<TRIPOS>ATOM
      1  O34       14.7770    6.6660   10.7550 O.2   400  MXG400     -0.2733
      2  C33       15.5230    5.7040   10.6430 C.2   400  MXG400      0.2423
      3  C35       14.9600    4.3180   10.5310 C.3   400  MXG400      0.0964
      4  N32       16.8520    5.8350   10.5820 N.am  400  MXG400     -0.1978
      5  C30       17.4440    7.1640   10.6560 C.3   400  MXG400      0.1728
      6  C31       18.1920    7.3920   11.9710 C.3   400  MXG400      0.0334
      7  C28       18.2310    7.5040    9.4080 C.2   400  MXG400      0.2617
      8  O29       17.7430    8.3430    8.6670 O.2   400  MXG400     -0.2715
      9  N27       19.3850    6.9110    9.0600 N.am  400  MXG400     -0.1941
     10  C23       20.1840    5.9020    9.7570 C.3   400  MXG400      0.1983
     11  C24       19.8370    4.4690    9.4230 C.2   400  MXG400      0.3842
     12  O26       19.6130    3.7000   10.3750 O.co2 400  MXG400     -0.2437
     13  O25       19.8090    4.0450    8.2510 O.co2 400  MXG400     -0.2437
     14  C22       21.5930    6.3050    9.3260 C.3   400  MXG400      0.0429
     15  C21       22.6990    5.3890    9.8310 C.3   400  MXG400      0.0892
     16  C19       22.9350    5.4800   11.3240 C.2   400  MXG400      0.2418
     17  O20       23.0650    4.4380   11.9410 O.2   400  MXG400     -0.2733
     18  N18       23.0720    6.6970   11.8810 N.am  400  MXG400     -0.1978
     19  C12       23.3280    7.0330   13.2990 C.3   400  MXG400      0.1727
     20  C13       22.1800    6.4740   14.1620 C.3   400  MXG400      0.0311
     21  C14       21.1720    7.5340   14.6160 C.3   400  MXG400      0.0038
     22  C15       20.1580    6.9810   15.6150 C.3   400  MXG400      0.0206
     23  C16       18.7800    7.6450   15.4960 C.3   400  MXG400      0.1093
     24  N17       18.8660    9.0640   15.1980 N.3   400  MXG400     -0.1314
     25  C10       24.7090    6.6500   13.8050 C.2   400  MXG400      0.2616
     26  O11       25.4910    6.0040   13.1300 O.2   400  MXG400     -0.2715
     27  N9        25.0360    7.0870   15.0230 N.am  400  MXG400     -0.1948
     28  C7        26.3300    6.9520   15.7020 C.3   400  MXG400      0.1920
     29  C8        26.6470    5.6190   16.3720 C.2   400  MXG400      0.2316
     30  O8A       25.8270    4.9790   16.9690 O.2   400  MXG400     -0.2863
     31  C6        26.3660    8.0690   16.7510 C.3   400  MXG400      0.1784
     32  S1        27.6460    9.2110   16.3230 S.3   400  MXG400     -0.1100
     33  N5        25.1540    8.9020   16.8110 N.2   400  MXG400     -0.2528
     34  C4        25.0870    9.8910   17.6150 C.2   400  MXG400      0.1534
     35  C4A       23.8910   10.7460   17.6370 C.2   400  MXG400      0.4044
     36  O4B       24.0040   11.9660   17.9310 O.co2 400  MXG400     -0.2389
     37  O4A       22.7800   10.2530   17.3420 O.co2 400  MXG400     -0.2389
     38  C3        26.2520   10.1210   18.4790 C.2   400  MXG400      0.0125
     39  C3A       26.1020   10.3740   19.7680 C.2   400  MXG400     -0.0020
     40  C2        27.6470   10.0180   17.8980 C.3   400  MXG400      0.0873
@<TRIPOS>BOND
     1    13    11   ar
     2     8     7    2
     3     9     7   am
     4     9    10    1
     5    14    10    1
     6    14    15    1
     7     7     5    1
     8    11    10    1
     9    11    12   ar
    10    15    16    1
    11     3     2    1
    12     4     2   am
    13     4     5    1
    14     2     1    2
    15     5     6    1
    16    16    18   am
    17    16    17    2
    18    18    19    1
    19    26    25    2
    20    19    25    1
    21    19    20    1
    22    25    27   am
    23    20    21    1
    24    21    22    1
    25    27    28    1
    26    24    23    1
    27    23    22    1
    28    28    29    1
    29    28    31    1
    30    32    31    1
    31    32    40    1
    32    29    30    2
    33    31    33    1
    34    33    34    2
    35    37    35   ar
    36    34    35    1
    37    34    38    1
    38    35    36   ar
    39    40    38    1
    40    38    39    2
