@<TRIPOS>MOLECULE
1o08_G16_A_1.pdb
 20 20 0 0 0
SMALL
GASTEIGER

@<TRIPOS>ATOM
      1  C1        12.2480   21.6260   12.6150 C.3   501  G16501      0.2781
      2  C2        11.1560   20.7090   12.0480 C.3   501  G16501      0.2410
      3  C3        11.0770   19.3470   12.7460 C.3   501  G16501      0.2198
      4  C4        12.4380   18.7010   12.7460 C.3   501  G16501      0.2143
      5  C5        13.4870   19.6360   13.3400 C.3   501  G16501      0.1807
      6  C6        14.9280   19.0960   13.3910 C.3   501  G16501      0.1859
      7  O1        12.3960   22.7860   11.8170 O.3   501  G16501     -0.2416
      8  O2         9.9190   21.3940   12.1830 O.3   501  G16501     -0.2149
      9  O3        10.1040   18.5810   12.0080 O.3   501  G16501     -0.2174
     10  O4        12.3900   17.4790   13.4940 O.3   501  G16501     -0.2176
     11  O5        13.5110   20.8830   12.5770 O.3   501  G16501     -0.3254
     12  O6        15.3220   18.8770   12.0020 O.3   501  G16501     -0.2675
     13  P         16.6670   18.1100   11.6250 P.3   501  G16501      0.5327
     14  O1P       17.7950   18.6300   12.4630 O.3   501  G16501     -0.1145
     15  O2P       16.7780   18.4330   10.1540 O.2   501  G16501     -0.2224
     16  O3P       16.4260   16.6580   11.8610 O.3   501  G16501     -0.1145
     17  P'        11.5870   24.5590   11.9820 P.3   501  G16501      0.5346
     18  O1X       12.4990   25.1030   10.6070 O.2   501  G16501     -0.2223
     19  O2X       10.1800   23.8800   11.3210 O.3   501  G16501     -0.1145
     20  O3X       12.0500   24.5690   13.5790 O.3   501  G16501     -0.1145
@<TRIPOS>BOND
     1    15    13    2
     2    18    17    2
     3    19    17    1
     4    13    16    1
     5    13    12    1
     6    13    14    1
     7     7    17    1
     8     7     1    1
     9    17    20    1
    10    12     6    1
    11     9     3    1
    12     2     8    1
    13     2     1    1
    14     2     3    1
    15    11     1    1
    16    11     5    1
    17     4     3    1
    18     4     5    1
    19     4    10    1
    20     5     6    1
