@<TRIPOS>MOLECULE
1o0a_RET_A_1.pdb
 20 21 0 0 0
SMALL
GASTEIGER

@<TRIPOS>ATOM
      1  C1        14.9290   45.2420    0.2780 C.3   301  RET301      0.0183
      2  C2        14.6820   46.1640   -0.9060 C.3   301  RET301      0.0044
      3  C3        14.0290   47.4430   -0.5640 C.3   301  RET301      0.0047
      4  C4        14.7820   48.1660    0.5280 C.3   301  RET301      0.0217
      5  C5        14.9810   47.2820    1.7370 C.2   301  RET301     -0.0479
      6  C6        15.1410   45.9580    1.6190 C.2   301  RET301     -0.0307
      7  C7        15.5410   45.1820    2.7950 C.2   301  RET301     -0.0052
      8  C8        15.7930   43.8790    3.0900 C.2   301  RET301     -0.0049
      9  C9        16.2930   43.5490    4.4310 C.2   301  RET301     -0.0261
     10  C10       16.4630   42.2230    4.1820 C.2   301  RET301     -0.0304
     11  C11       16.9540   41.2660    5.1860 C.3   301  RET301      0.0257
     12  C12       17.1080   39.9330    4.8780 C.3   301  RET301      0.0047
     13  C13       17.5690   39.0940    5.9920 C.3   301  RET301      0.0003
     14  C14       17.4830   37.8160    6.4390 C.3   301  RET301      0.0000
     15  C15       17.3690   36.9510    5.2510 C.3   301  RET301      0.0000
     16  C16       13.6600   44.3380    0.3730 C.3   301  RET301      0.0043
     17  C17       16.1590   44.3760   -0.1420 C.3   301  RET301      0.0043
     18  C18       15.2450   48.0850    2.9870 C.3   301  RET301      0.0260
     19  C19       16.4680   43.9950    5.8470 C.3   301  RET301      0.0307
     20  C20       18.0330   39.3340    7.4020 C.3   301  RET301      0.0000
@<TRIPOS>BOND
     1     2     3    1
     2     2     1    1
     3     3     4    1
     4    17     1    1
     5     1    16    1
     6     1     6    1
     7     4     5    1
     8     6     5    2
     9     6     7    1
    10     5    18    1
    11     7     8    2
    12     8     9    1
    13    10     9    2
    14    10    11    1
    15     9    19    1
    16    12    11    1
    17    12    13    1
    18    15    14    1
    19    13    14    1
    20    13    20    1
    21    14    20    1
