@<TRIPOS>MOLECULE
1o0b_AMP_A_1.pdb
 19 21 0 0 0
SMALL
GASTEIGER

@<TRIPOS>ATOM
      1  O5'       43.8100   27.0940   15.3610 O.3   998  AMP998     -0.2176
      2  C5'       43.3530   27.4620   14.0340 C.3   998  AMP998      0.2143
      3  C4'       41.8960   27.8580   14.0750 C.3   998  AMP998      0.1851
      4  O4'       41.1230   26.7180   14.5310 O.3   998  AMP998     -0.3134
      5  C3'       41.5890   28.9830   15.0510 C.3   998  AMP998      0.2186
      6  O3'       41.6180   30.2430   14.3860 O.3   998  AMP998     -0.2174
      7  C2'       40.1760   28.6690   15.5240 C.3   998  AMP998      0.2570
      8  O2'       39.1930   29.2470   14.6850 O.3   998  AMP998     -0.2130
      9  C1'       40.1510   27.1380   15.4670 C.3   998  AMP998      0.3186
     10  N9        40.4270   26.4560   16.7320 N.pl3 998  AMP998     -0.1439
     11  C8        41.6480   26.2280   17.3260 C.3   998  AMP998      0.3377
     12  N7        41.5770   25.5190   18.4290 N.2   998  AMP998     -0.2095
     13  C5        40.2170   25.2800   18.5820 C.2   998  AMP998      0.2526
     14  C6        39.4850   24.5620   19.5470 C.2   998  AMP998      0.4393
     15  N6        40.0550   23.9010   20.5620 N.pl3 998  AMP998      0.2180
     16  N1        38.1330   24.5300   19.4190 N.2   998  AMP998      0.0021
     17  C2        37.5710   25.1600   18.3740 C.3   998  AMP998      0.5254
     18  N3        38.1560   25.8470   17.3870 N.2   998  AMP998     -0.0055
     19  C4        39.4950   25.8700   17.5540 C.2   998  AMP998      0.3518
@<TRIPOS>BOND
     1     2     3    1
     2     2     1    1
     3     3     4    1
     4     3     5    1
     5     6     5    1
     6     4     9    1
     7     8     7    1
     8     5     7    1
     9     9     7    1
    10     9    10    1
    11    10    11    1
    12    10    19    1
    13    11    12    1
    14    18    19    2
    15    18    17    1
    16    19    13    1
    17    17    16    1
    18    12    13    2
    19    13    14    1
    20    16    14    2
    21    14    15    1
