@<TRIPOS>MOLECULE
1o0b_GLN_A_1.pdb
 10 9 0 0 0
SMALL
GASTEIGER

@<TRIPOS>ATOM
      1  N         46.3010   31.3830   13.5620 N.3   996  GLN996     -0.1208
      2  CA        45.3670   31.6800   14.6450 C.3   996  GLN996      0.1948
      3  C         44.9840   30.3740   15.3600 C.2   996  GLN996      0.3819
      4  O         44.3850   30.4110   16.4680 O.co2 996  GLN996     -0.2441
      5  CB        44.1280   32.3580   14.0780 C.3   996  GLN996      0.0403
      6  CG        43.2290   32.9150   15.1090 C.3   996  GLN996      0.0906
      7  CD        42.0050   33.5360   14.5160 C.2   996  GLN996      0.2608
      8  OE1       41.1960   32.8680   13.8710 O.2   996  GLN996     -0.2717
      9  NE2       41.8490   34.8330   14.7280 N.am  996  GLN996     -0.0878
     10  OXT       45.3310   29.3120   14.8020 O.co2 996  GLN996     -0.2441
@<TRIPOS>BOND
     1     1     2    1
     2     8     7    2
     3     5     2    1
     4     5     6    1
     5     7     9   am
     6     7     6    1
     7     2     3    1
     8    10     3   ar
     9     3     4   ar
