@<TRIPOS>MOLECULE
1o0c_GLU_A_1.pdb
 10 9 0 0 0
SMALL
GASTEIGER

@<TRIPOS>ATOM
      1  N         46.4590   32.6220   14.2260 N.3   996  GLU996     -0.1208
      2  CA        45.2640   32.8350   15.0480 C.3   996  GLU996      0.1949
      3  C         44.9660   31.6030   15.9120 C.2   996  GLU996      0.3819
      4  O         43.8360   31.4500   16.4190 O.co2 996  GLU996     -0.2441
      5  CB        44.0670   33.1500   14.1580 C.3   996  GLU996      0.0424
      6  CG        42.8270   33.5780   14.8900 C.3   996  GLU996      0.1161
      7  CD        42.3570   34.9370   14.4610 C.2   996  GLU996      0.3649
      8  OE1       41.3330   35.0200   13.7470 O.co2 996  GLU996     -0.2457
      9  OE2       43.0130   35.9320   14.8220 O.co2 996  GLU996     -0.2457
     10  OXT       45.8860   30.7910   16.1060 O.co2 996  GLU996     -0.2441
@<TRIPOS>BOND
     1     8     7   ar
     2     5     6    1
     3     5     2    1
     4     1     2    1
     5     7     9   ar
     6     7     6    1
     7     2     3    1
     8     3    10   ar
     9     3     4   ar
