@<TRIPOS>MOLECULE
1o0c_AMP_A_1.pdb
 23 25 0 0 0
SMALL
GASTEIGER

@<TRIPOS>ATOM
      1  P         46.3980   27.9210   15.5570 P.3   998  AMP998      0.5327
      2  O1P       45.8650   28.0890   16.9100 O.3   998  AMP998     -0.1145
      3  O2P       47.2440   28.9720   14.9940 O.2   998  AMP998     -0.2224
      4  O3P       47.3580   26.6870   15.2370 O.3   998  AMP998     -0.1145
      5  O5'       45.2040   27.6550   14.6600 O.3   998  AMP998     -0.2675
      6  C5'       44.3430   28.7930   14.1190 C.3   998  AMP998      0.1860
      7  C4'       42.8580   28.4790   14.1680 C.3   998  AMP998      0.1823
      8  O4'       42.6920   27.2250   14.8620 O.3   998  AMP998     -0.3135
      9  C3'       42.0360   29.5500   14.9390 C.3   998  AMP998      0.2184
     10  O3'       41.2960   30.4280   14.0990 O.3   998  AMP998     -0.2174
     11  C2'       41.0600   28.7990   15.7840 C.3   998  AMP998      0.2570
     12  O2'       39.9560   28.5920   15.2210 O.3   998  AMP998     -0.2130
     13  C1'       41.8530   27.5060   15.9560 C.3   998  AMP998      0.3186
     14  N9        41.8010   26.6420   17.1290 N.pl3 998  AMP998     -0.1439
     15  C8        42.8630   26.0860   17.7830 C.3   998  AMP998      0.3377
     16  N7        42.5090   25.3530   18.7960 N.2   998  AMP998     -0.2095
     17  C5        41.1250   25.3940   18.8530 C.2   998  AMP998      0.2526
     18  C6        40.1680   24.8160   19.7130 C.2   998  AMP998      0.4393
     19  N6        40.5270   24.0120   20.7570 N.pl3 998  AMP998      0.2180
     20  N1        38.8540   25.0990   19.4410 N.2   998  AMP998      0.0021
     21  C2        38.5300   25.8860   18.4190 C.3   998  AMP998      0.5254
     22  N3        39.3410   26.5030   17.5240 N.2   998  AMP998     -0.0055
     23  C4        40.6650   26.2270   17.7830 C.2   998  AMP998      0.3518
@<TRIPOS>BOND
     1    10     9    1
     2     6     7    1
     3     6     5    1
     4     7     8    1
     5     7     9    1
     6     5     1    1
     7     8    13    1
     8     9    11    1
     9     3     1    2
    10    12    11    1
    11     4     1    1
    12     1     2    1
    13    11    13    1
    14    13    14    1
    15    14    15    1
    16    14    23    1
    17    22    23    2
    18    22    21    1
    19    15    16    1
    20    23    17    1
    21    21    20    1
    22    16    17    2
    23    17    18    1
    24    20    18    2
    25    18    19    1
