@<TRIPOS>MOLECULE
1o0d_163_H_1.pdb
 33 35 0 0 0
SMALL
GASTEIGER

@<TRIPOS>ATOM
      1  C12       17.2280   19.6440   22.7510 C.2   248  163248      0.2423
      2  O1        16.3490   20.3130   23.2630 O.2   248  163248     -0.2733
      3  C13       17.5060   18.2500   23.2910 C.3   248  163248      0.1495
      4  C14       18.1890   18.3340   24.6740 C.3   248  163248      0.0267
      5  C15       19.6680   18.7370   24.5350 C.3   248  163248      0.0019
      6  C16       20.1410   19.4300   25.8330 C.3   248  163248      0.0001
      7  C17       21.6290   19.8410   25.7070 C.3   248  163248      0.0000
      8  C18       22.5080   18.6000   25.4120 C.3   248  163248      0.0000
      9  C19       22.0220   17.8880   24.1260 C.3   248  163248      0.0000
     10  C20       20.5360   17.4820   24.2680 C.3   248  163248      0.0001
     11  N5        16.2410   17.5120   23.4180 N.3   248  163248     -0.1988
     12  C21       15.7640   16.6570   22.3240 C.3   248  163248      0.2033
     13  C22       14.7640   15.6560   22.8530 C.2   248  163248      0.3823
     14  O2        14.7490   15.3700   24.0400 O.co2 248  163248     -0.2440
     15  O3        13.9700   15.1290   22.0920 O.co2 248  163248     -0.2440
     16  O         16.2410   20.8910   19.3670 O.2   248  163248     -0.2712
     17  C7        16.4810   21.5910   20.3380 C.2   248  163248      0.2641
     18  C8        17.8170   21.4760   21.0540 C.3   248  163248      0.1762
     19  C9        18.9750   21.6320   20.0990 C.2   248  163248     -0.0003
     20  C10       19.6660   20.5270   20.0440 C.2   248  163248     -0.0071
     21  C11       19.0570   19.4920   20.9520 C.3   248  163248      0.1204
     22  N4        17.9560   20.1500   21.6980 N.am  248  163248     -0.2643
     23  N         10.2890   23.3880   24.1280 N.pl3 248  163248      0.2064
     24  C         10.9060   22.2110   24.0120 C.2   248  163248      0.4920
     25  N1        10.7810   21.2900   24.9610 N.pl3 248  163248      0.2064
     26  C1        11.7380   21.9180   22.8080 C.ar  248  163248      0.1585
     27  N2        12.6610   22.7550   22.1970 N.ar  248  163248     -0.3208
     28  C2        13.0120   24.1320   22.6350 C.3   248  163248      0.1304
     29  C3        11.7240   20.7530   22.0930 C.ar  248  163248      0.0266
     30  C4        12.6380   20.8830   21.0480 C.ar  248  163248      0.0163
     31  C5        13.1940   22.1020   21.1310 C.ar  248  163248      0.0594
     32  C6        14.2400   22.6440   20.1860 C.3   248  163248      0.1585
     33  N3        15.5650   22.4780   20.8110 N.am  248  163248     -0.1973
@<TRIPOS>BOND
     1    16    17    2
     2    20    19    2
     3    20    21    1
     4    19    18    1
     5    32    33    1
     6    32    31    1
     7    17    33   am
     8    17    18    1
     9    21    22    1
    10    30    31   ar
    11    30    29   ar
    12    18    22    1
    13    31    27   ar
    14    22     1   am
    15    15    13   ar
    16    29    26   ar
    17    27    28    1
    18    27    26   ar
    19    12    13    1
    20    12    11    1
    21     1     2    2
    22     1     3    1
    23    26    24    1
    24    13    14   ar
    25     3    11    1
    26     3     4    1
    27    24    23    2
    28    24    25    1
    29     9    10    1
    30     9     8    1
    31    10     5    1
    32     5     4    1
    33     5     6    1
    34     8     7    1
    35     7     6    1
