@<TRIPOS>MOLECULE
1o0f_A3P_A_1.pdb
 27 29 0 0 0
SMALL
GASTEIGER

@<TRIPOS>ATOM
      1  P1        41.2350    6.2550   14.4910 P.3   1301  A3P1301     0.5327
      2  O1P       40.2730    6.5200   13.3460 O.2   1301  A3P1301    -0.2224
      3  O2P       42.0870    5.0150   14.2710 O.3   1301  A3P1301    -0.1145
      4  O3P       42.0660    7.4750   14.8500 O.3   1301  A3P1301    -0.1145
      5  P2        36.3990    3.1920   13.2220 P.3   1301  A3P1301     0.5327
      6  O4P       34.9040    3.4250   13.3170 O.3   1301  A3P1301    -0.1145
      7  O5P       37.0620    3.9030   12.0590 O.2   1301  A3P1301    -0.2224
      8  O6P       36.7820    1.7250   13.3210 O.3   1301  A3P1301    -0.1145
      9  O5'       37.0120    3.8560   14.5760 O.3   1301  A3P1301    -0.2675
     10  C5'       36.8490    5.2540   14.8460 C.3   1301  A3P1301     0.1859
     11  C4'       37.9140    5.7230   15.8040 C.3   1301  A3P1301     0.1796
     12  O4'       37.4580    5.5380   17.1740 O.3   1301  A3P1301    -0.3136
     13  C3'       39.2600    5.0060   15.6940 C.3   1301  A3P1301     0.1928
     14  O3'       40.3250    5.9480   15.7870 O.3   1301  A3P1301    -0.2673
     15  C2'       39.2520    4.0720   16.9040 C.3   1301  A3P1301     0.2543
     16  O2'       40.5480    3.7810   17.3870 O.3   1301  A3P1301    -0.2131
     17  C1'       38.4750    4.9070   17.9190 C.3   1301  A3P1301     0.3185
     18  N9        37.8650    4.1610   19.0230 N.pl3 1301  A3P1301    -0.1439
     19  C8        38.1130    2.8680   19.4250 C.3   1301  A3P1301     0.3377
     20  N7        37.4410    2.5070   20.4910 N.2   1301  A3P1301    -0.2095
     21  C5        36.6900    3.6320   20.8080 C.2   1301  A3P1301     0.2526
     22  C6        35.7800    3.9010   21.8480 C.2   1301  A3P1301     0.4393
     23  N6        35.4630    3.0220   22.8050 N.pl3 1301  A3P1301     0.2180
     24  N1        35.2020    5.1240   21.8760 N.2   1301  A3P1301     0.0021
     25  C2        35.5270    6.0070   20.9220 C.3   1301  A3P1301     0.5254
     26  N3        36.3730    5.8730   19.9000 N.2   1301  A3P1301    -0.0055
     27  C4        36.9290    4.6510   19.9020 C.2   1301  A3P1301     0.3518
@<TRIPOS>BOND
     1     7     5    2
     2     5     6    1
     3     5     8    1
     4     5     9    1
     5     2     1    2
     6     3     1    1
     7     1     4    1
     8     1    14    1
     9     9    10    1
    10    10    11    1
    11    13    14    1
    12    13    11    1
    13    13    15    1
    14    11    12    1
    15    15    16    1
    16    15    17    1
    17    12    17    1
    18    17    18    1
    19    18    19    1
    20    18    27    1
    21    19    20    1
    22    26    27    2
    23    26    25    1
    24    27    21    1
    25    20    21    2
    26    21    22    1
    27    25    24    1
    28    22    24    2
    29    22    23    1
