@<TRIPOS>MOLECULE
1o0h_ADP_A_1.pdb
 27 29 0 0 0
SMALL
GASTEIGER

@<TRIPOS>ATOM
      1  PB        36.3960    3.6770   13.0870 P.3   1125  ADP1125     0.5373
      2  O1B       34.8920    3.6930   13.2380 O.3   1125  ADP1125    -0.1143
      3  O2B       36.8630    2.8290   11.9540 O.2   1125  ADP1125    -0.2221
      4  O3B       37.0960    3.4210   14.4010 O.3   1125  ADP1125    -0.1143
      5  PA        37.9000    6.2210   13.0920 P.3   1125  ADP1125     0.2231
      6  O1A       38.0310    7.1920   11.9400 O.2   1125  ADP1125    -0.5169
      7  O2A       39.1520    5.4990   13.5040 O.3   1125  ADP1125    -0.4370
      8  O3A       36.7340    5.1870   12.6700 O.3   1125  ADP1125    -0.2261
      9  O5'       37.2930    7.0740   14.2970 O.3   1125  ADP1125    -0.3111
     10  C5'       36.8400    6.4500   15.4990 C.3   1125  ADP1125     0.1813
     11  C4'       36.7120    7.5500   16.5400 C.3   1125  ADP1125     0.1821
     12  O4'       35.9760    7.0030   17.6310 O.3   1125  ADP1125    -0.3135
     13  C3'       37.9990    8.0950   17.1610 C.3   1125  ADP1125     0.2184
     14  O3'       37.8500    9.4950   17.3490 O.3   1125  ADP1125    -0.2174
     15  C2'       38.0980    7.4020   18.5040 C.3   1125  ADP1125     0.2570
     16  O2'       38.8770    8.0660   19.4910 O.3   1125  ADP1125    -0.2130
     17  C1'       36.6210    7.3530   18.8410 C.3   1125  ADP1125     0.3186
     18  N9        36.2750    6.3700   19.8890 N.pl3 1125  ADP1125    -0.1439
     19  C8        35.4190    6.6700   20.9000 C.3   1125  ADP1125     0.3377
     20  N7        35.2130    5.6310   21.7470 N.2   1125  ADP1125    -0.2095
     21  C5        35.9970    4.6910   21.2370 C.2   1125  ADP1125     0.2526
     22  C6        36.2450    3.3380   21.6560 C.2   1125  ADP1125     0.4393
     23  N6        35.6560    2.8700   22.7770 N.pl3 1125  ADP1125     0.2180
     24  N1        37.0910    2.6100   20.9220 N.2   1125  ADP1125     0.0021
     25  C2        37.6800    3.1030   19.8200 C.3   1125  ADP1125     0.5254
     26  N3        37.5120    4.3400   19.3410 N.2   1125  ADP1125    -0.0055
     27  C4        36.6900    5.1170   20.0300 C.2   1125  ADP1125     0.3518
@<TRIPOS>BOND
     1     6     5    2
     2     3     1    2
     3     8     1    1
     4     8     5    1
     5     1     2    1
     6     1     4    1
     7     5     7    1
     8     5     9    1
     9     9    10    1
    10    10    11    1
    11    11    13    1
    12    11    12    1
    13    13    14    1
    14    13    15    1
    15    12    17    1
    16    15    17    1
    17    15    16    1
    18    17    18    1
    19    26    25    1
    20    26    27    2
    21    25    24    1
    22    18    27    1
    23    18    19    1
    24    27    21    1
    25    19    20    1
    26    24    22    2
    27    21    22    1
    28    21    20    2
    29    22    23    1
