@<TRIPOS>MOLECULE
1o0m_U2P_A_1.pdb
 21 22 0 0 0
SMALL
GASTEIGER

@<TRIPOS>ATOM
      1  O5'       39.7830    2.7300   22.6050 O.3   1101  U2P1101    -0.2176
      2  C5'       40.3140    1.4790   23.0840 C.3   1101  U2P1101     0.2142
      3  C4'       39.1940    0.5690   23.5380 C.3   1101  U2P1101     0.1828
      4  O4'       38.4190    1.2290   24.5710 O.3   1101  U2P1101    -0.3319
      5  C1'       37.0470    0.8860   24.4360 C.3   1101  U2P1101     0.2373
      6  N1        36.2880    2.1300   24.2150 N.am  1101  U2P1101    -0.1767
      7  C6        36.7540    3.1130   23.3700 C.2   1101  U2P1101     0.0929
      8  C5        36.1120    4.2700   23.1800 C.2   1101  U2P1101     0.1242
      9  C4        34.8870    4.5230   23.8700 C.1   1101  U2P1101     0.2182
     10  O4        34.2240    5.5580   23.8050 O.2   1101  U2P1101    -0.2085
     11  N3        34.4630    3.4950   24.6880 N.2   1101  U2P1101    -0.2452
     12  C2        35.0910    2.2930   24.9000 C.1   1101  U2P1101     0.2845
     13  O2        34.6200    1.4400   25.6360 O.2   1101  U2P1101    -0.1918
     14  C2'       36.9510   -0.1680   23.3260 C.3   1101  U2P1101     0.2063
     15  O2'       37.0610   -1.4360   23.9550 O.3   1101  U2P1101    -0.2656
     16  P         36.4750   -2.7590   23.2470 P.3   1101  U2P1101     0.5327
     17  O1P       37.2300   -2.9470   21.9400 O.2   1101  U2P1101    -0.2224
     18  O2P       36.7570   -3.8760   24.2380 O.3   1101  U2P1101    -0.1145
     19  O3P       34.9830   -2.5350   23.0430 O.3   1101  U2P1101    -0.1145
     20  C3'       38.1700    0.1940   22.4790 C.3   1101  U2P1101     0.2133
     21  O3'       38.6490   -0.8970   21.6990 O.3   1101  U2P1101    -0.2176
@<TRIPOS>BOND
     1    21    20    1
     2    17    16    2
     3    20    14    1
     4    20     3    1
     5     1     2    1
     6    19    16    1
     7     2     3    1
     8     8     7    2
     9     8     9    1
    10    16    15    1
    11    16    18    1
    12    14    15    1
    13    14     5    1
    14     7     6    1
    15     3     4    1
    16    10     9    2
    17     9    11    2
    18     6     5    1
    19     6    12   am
    20     5     4    1
    21    11    12    2
    22    12    13    2
