@<TRIPOS>MOLECULE
1o0n_U3P_A_1.pdb
 21 22 0 0 0
SMALL
GASTEIGER

@<TRIPOS>ATOM
      1  N1        36.4670   -2.1580   11.9650 N.am  1101  U3P1101    -0.1766
      2  C2        35.3090   -2.2720   11.2030 C.1   1101  U3P1101     0.2845
      3  N3        34.6430   -3.4670   11.3380 N.2   1101  U3P1101    -0.2452
      4  C4        35.0020   -4.5360   12.1370 C.1   1101  U3P1101     0.2182
      5  C5        36.2080   -4.3460   12.8810 C.2   1101  U3P1101     0.1242
      6  C6        36.8850   -3.1960   12.7710 C.2   1101  U3P1101     0.0929
      7  O2        34.8970   -1.3810   10.4690 O.2   1101  U3P1101    -0.1918
      8  O4        34.2850   -5.5360   12.1690 O.2   1101  U3P1101    -0.2085
      9  P         38.4720    3.3630   13.0140 P.3   1101  U3P1101     0.5327
     10  O1P       37.4380    3.5170   14.1220 O.3   1101  U3P1101    -0.1145
     11  O2P       38.3210    4.3830   11.8990 O.2   1101  U3P1101    -0.2224
     12  O3P       39.8960    3.2260   13.5350 O.3   1101  U3P1101    -0.1145
     13  O5'       39.5890   -1.7090   14.3630 O.3   1101  U3P1101    -0.2176
     14  C5'       40.3340   -0.9420   13.3980 C.3   1101  U3P1101     0.2141
     15  C4'       39.3940   -0.2170   12.4600 C.3   1101  U3P1101     0.1802
     16  O4'       38.5950   -1.1950   11.7380 O.3   1101  U3P1101    -0.3319
     17  C3'       38.4090    0.7440   13.1230 C.3   1101  U3P1101     0.1903
     18  O3'       38.2390    1.9200   12.3410 O.3   1101  U3P1101    -0.2674
     19  C2'       37.1140   -0.0620   13.1650 C.3   1101  U3P1101     0.2293
     20  O2'       35.9550    0.7430   13.1160 O.3   1101  U3P1101    -0.2158
     21  C1'       37.2220   -0.8950   11.8900 C.3   1101  U3P1101     0.2400
@<TRIPOS>BOND
     1     7     2    2
     2     2     3    2
     3     2     1   am
     4     3     4    2
     5    16    21    1
     6    16    15    1
     7    21     1    1
     8    21    19    1
     9    11     9    2
    10     1     6    1
    11     4     8    2
    12     4     5    1
    13    18     9    1
    14    18    17    1
    15    15    17    1
    16    15    14    1
    17     6     5    2
    18     9    12    1
    19     9    10    1
    20    20    19    1
    21    17    19    1
    22    14    13    1
