@<TRIPOS>MOLECULE
1o0o_A2P_A_1.pdb
 27 29 0 0 0
SMALL
GASTEIGER

@<TRIPOS>ATOM
      1  P1        36.3590    3.6090   13.4420 P.3   998  A2P998      0.5328
      2  O1P       36.7270    4.9590   13.9770 O.3   998  A2P998     -0.1145
      3  O2P       37.2060    3.2140   12.3040 O.2   998  A2P998     -0.2224
      4  O3P       34.8800    3.5010   13.3260 O.3   998  A2P998     -0.1145
      5  P2        42.1440    2.3050   13.3320 P.3   998  A2P998      0.5327
      6  O4P       41.8440    3.6500   12.7310 O.3   998  A2P998     -0.1145
      7  O5P       43.3870    2.3670   14.1840 O.3   998  A2P998     -0.1145
      8  O6P       42.1020    1.2890   12.2260 O.2   998  A2P998     -0.2224
      9  O5'       40.8970    1.9240   14.2700 O.3   998  A2P998     -0.2675
     10  C5'       40.8420    0.6930   14.9690 C.3   998  A2P998      0.1860
     11  C4'       39.5610    0.6680   15.8020 C.3   998  A2P998      0.1822
     12  O4'       39.5110    1.7240   16.7830 O.3   998  A2P998     -0.3136
     13  C3'       38.3000    0.8680   14.9600 C.3   998  A2P998      0.2157
     14  O3'       37.1980    0.1680   15.5180 O.3   998  A2P998     -0.2175
     15  C2'       38.0890    2.3690   15.0240 C.3   998  A2P998      0.2314
     16  O2'       36.7370    2.7100   14.7360 O.3   998  A2P998     -0.2630
     17  C1'       38.4660    2.6570   16.4630 C.3   998  A2P998      0.3158
     18  N9        39.0210    3.9980   16.7420 N.pl3 998  A2P998     -0.1439
     19  C8        39.6650    4.8070   15.8500 C.3   998  A2P998      0.3377
     20  N7        40.1090    5.9510   16.4230 N.2   998  A2P998     -0.2095
     21  C5        39.7320    5.8430   17.7030 C.2   998  A2P998      0.2526
     22  C6        39.8900    6.6780   18.8920 C.2   998  A2P998      0.4393
     23  N6        40.5050    7.8750   18.7950 N.pl3 998  A2P998      0.2180
     24  N1        39.3930    6.2390   20.0420 N.2   998  A2P998      0.0021
     25  C2        38.7510    5.0650   20.1330 C.3   998  A2P998      0.5254
     26  N3        38.5370    4.2240   19.1150 N.2   998  A2P998     -0.0055
     27  C4        39.0490    4.5690   17.9340 C.2   998  A2P998      0.3518
@<TRIPOS>BOND
     1     8     5    2
     2     3     1    2
     3     6     5    1
     4     4     1    1
     5     5     7    1
     6     5     9    1
     7     1     2    1
     8     1    16    1
     9     9    10    1
    10    16    15    1
    11    13    15    1
    12    13    14    1
    13    13    11    1
    14    10    11    1
    15    15    17    1
    16    11    12    1
    17    19    20    1
    18    19    18    1
    19    20    21    2
    20    17    18    1
    21    17    12    1
    22    18    27    1
    23    21    27    1
    24    21    22    1
    25    27    26    2
    26    23    22    1
    27    22    24    2
    28    26    25    1
    29    24    25    1
