@<TRIPOS>MOLECULE
1o0r_GDU_A_1.pdb
 36 38 0 0 0
SMALL
GASTEIGER

@<TRIPOS>ATOM
      1  N1        10.0800   25.0620   37.4110 N.am  404  GDU404     -0.1766
      2  C2         9.3290   24.8940   38.5790 C.1   404  GDU404      0.2845
      3  N3         9.1440   26.0460   39.3250 N.2   404  GDU404     -0.2452
      4  C4         9.6190   27.3290   39.0470 C.1   404  GDU404      0.2182
      5  C5        10.3770   27.4420   37.8260 C.2   404  GDU404      0.1242
      6  C6        10.5800   26.3680   37.0800 C.2   404  GDU404      0.0929
      7  O2         8.8980   23.7870   38.8600 O.2   404  GDU404     -0.1918
      8  O4         9.3790   28.2330   39.8070 O.2   404  GDU404     -0.2085
      9  C1D       10.3330   23.8160   36.5540 C.3   404  GDU404      0.2401
     10  C2D        9.1650   23.0830   35.9490 C.3   404  GDU404      0.2319
     11  O2D        9.4080   21.6930   35.6550 O.3   404  GDU404     -0.2157
     12  C3D        9.0570   23.8650   34.6980 C.3   404  GDU404      0.2158
     13  C4D       10.4400   24.1740   34.2310 C.3   404  GDU404      0.1799
     14  O4D       11.0830   24.3680   35.4960 O.3   404  GDU404     -0.3320
     15  O3D        8.2610   23.3410   33.6520 O.3   404  GDU404     -0.2175
     16  C5D       10.0350   25.4020   33.6100 C.3   404  GDU404      0.1813
     17  O5D       10.5860   26.5400   33.1210 O.3   404  GDU404     -0.3112
     18  PA         9.3190   27.3700   32.6930 P.3   404  GDU404      0.2189
     19  O1A        8.2200   26.4410   32.3020 O.2   404  GDU404     -0.5170
     20  O2A        8.8560   28.3690   33.6740 O.3   404  GDU404     -0.4371
     21  O3A        9.8090   28.2110   31.3600 O.3   404  GDU404     -0.2703
     22  PB         9.7880   27.7280   29.9100 P.3   404  GDU404      0.2208
     23  O1B       10.2520   29.0580   29.1720 O.2   404  GDU404     -0.5170
     24  O2B        8.3460   27.4030   29.6760 O.3   404  GDU404     -0.4371
     25  O3B       10.5330   26.4420   29.7420 O.3   404  GDU404     -0.2857
     26  C1'       11.4790   26.3380   28.6310 C.3   404  GDU404      0.2742
     27  C2'       11.8780   24.8530   28.3880 C.3   404  GDU404      0.2409
     28  C3'       12.5810   24.3240   29.6650 C.3   404  GDU404      0.2198
     29  C4'       13.7800   25.1950   29.9870 C.3   404  GDU404      0.2144
     30  C5'       13.4160   26.7010   30.1350 C.3   404  GDU404      0.1835
     31  C6'       14.5420   27.7120   30.0370 C.3   404  GDU404      0.2142
     32  O2'       10.7590   23.9820   28.1350 O.3   404  GDU404     -0.2149
     33  O3'       13.1370   23.0110   29.5410 O.3   404  GDU404     -0.2174
     34  O4'       14.7800   25.0690   29.0280 O.3   404  GDU404     -0.2176
     35  O5'       12.7160   27.1140   28.8730 O.3   404  GDU404     -0.3254
     36  O6'       15.4050   27.8050   31.1480 O.3   404  GDU404     -0.2176
@<TRIPOS>BOND
     1    32    27    1
     2    27    26    1
     3    27    28    1
     4    26    35    1
     5    26    25    1
     6    35    30    1
     7    34    29    1
     8    23    22    2
     9    33    28    1
    10    28    29    1
    11    24    22    1
    12    25    22    1
    13    22    21    1
    14    29    30    1
    15    31    30    1
    16    31    36    1
    17    21    18    1
    18    19    18    2
    19    18    17    1
    20    18    20    1
    21    17    16    1
    22    16    13    1
    23    15    12    1
    24    13    12    1
    25    13    14    1
    26    12    10    1
    27    14     9    1
    28    11    10    1
    29    10     9    1
    30     9     1    1
    31     6     1    1
    32     6     5    2
    33     1     2   am
    34     5     4    1
    35     2     7    2
    36     2     3    2
    37     4     3    2
    38     4     8    2
