@<TRIPOS>MOLECULE
1o0s_NAI_A_1.pdb
 44 48 0 0 0
SMALL
GASTEIGER

@<TRIPOS>ATOM
      1  PA        29.2610  117.2460   94.4950 P.3   920  NAI920      0.2189
      2  O1A       28.6710  116.7450   95.8970 O.3   920  NAI920     -0.4371
      3  O2A       30.8180  116.8990   94.4380 O.2   920  NAI920     -0.5170
      4  O5B       29.0680  118.8280   94.3600 O.3   920  NAI920     -0.3112
      5  C5B       27.8120  119.5190   94.4730 C.3   920  NAI920      0.1813
      6  C4B       28.1020  121.0050   94.6820 C.3   920  NAI920      0.1821
      7  O4B       26.8930  121.7900   94.5870 O.3   920  NAI920     -0.3135
      8  C3B       28.7340  121.3530   96.0530 C.3   920  NAI920      0.2184
      9  O3B       29.7340  122.3580   95.8870 O.3   920  NAI920     -0.2174
     10  C2B       27.5450  121.8450   96.8490 C.3   920  NAI920      0.2570
     11  O2B       27.9520  122.6510   97.9490 O.3   920  NAI920     -0.2130
     12  C1B       26.7600  122.5770   95.7820 C.3   920  NAI920      0.3186
     13  N9A       25.3340  122.6950   96.1370 N.pl3 920  NAI920     -0.1439
     14  C8A       24.3520  121.8200   96.6200 C.3   920  NAI920      0.3377
     15  N7A       23.0570  122.2040   96.8700 N.2   920  NAI920     -0.2095
     16  C5A       23.1560  123.5980   96.5090 C.2   920  NAI920      0.2526
     17  C6A       22.1920  124.7170   96.4370 C.2   920  NAI920      0.4393
     18  N6A       20.9870  124.6840   96.8120 N.pl3 920  NAI920      0.2180
     19  N1A       22.6260  125.9940   96.0460 N.2   920  NAI920      0.0021
     20  C2A       23.9650  126.2560   95.5750 C.3   920  NAI920      0.5254
     21  N3A       25.0130  125.3530   95.5500 N.2   920  NAI920     -0.0055
     22  C4A       24.5820  123.8870   96.0150 C.2   920  NAI920      0.3518
     23  O3        28.4800  116.5510   93.3440 O.3   920  NAI920     -0.2703
     24  PN        29.2290  116.4120   91.9770 P.3   920  NAI920      0.2189
     25  O1N       30.1080  115.0800   91.9850 O.3   920  NAI920     -0.4371
     26  O2N       30.1890  117.6700   91.7050 O.2   920  NAI920     -0.5170
     27  O5D       28.1180  116.3480   90.8450 O.3   920  NAI920     -0.3112
     28  C5D       27.2130  117.4520   90.6080 C.3   920  NAI920      0.1813
     29  C4D       26.2650  117.1570   89.4500 C.3   920  NAI920      0.1799
     30  O4D       27.0210  117.0080   88.2260 O.3   920  NAI920     -0.3327
     31  C3D       25.4130  115.8660   89.6140 C.3   920  NAI920      0.2158
     32  O3D       24.0030  116.1190   89.5300 O.3   920  NAI920     -0.2175
     33  C2D       25.9590  114.9430   88.5240 C.3   920  NAI920      0.2309
     34  O2D       24.9710  114.0310   88.0360 O.3   920  NAI920     -0.2158
     35  C1D       26.4630  115.9350   87.4610 C.3   920  NAI920      0.2263
     36  N1N       27.5140  115.3300   86.5430 N.pl3 920  NAI920     -0.2787
     37  C2N       28.3520  114.3520   86.9820 C.3   920  NAI920      0.1244
     38  C3N       29.3420  113.7520   86.1610 C.2   920  NAI920      0.0544
     39  C7N       30.2900  112.6560   86.6220 C.2   920  NAI920      0.2818
     40  O7N       30.5830  112.4590   87.8100 O.2   920  NAI920     -0.2670
     41  N7N       30.8640  111.8210   85.7690 N.am  920  NAI920     -0.0839
     42  C4N       29.4230  114.2340   84.8160 C.2   920  NAI920      0.0033
     43  C5N       28.5500  115.2570   84.3580 C.2   920  NAI920      0.0157
     44  C6N       27.5980  115.7820   85.2690 C.2   920  NAI920      0.0633
@<TRIPOS>BOND
     1    43    42    1
     2    43    44    2
     3    42    38    2
     4    44    36    1
     5    41    39   am
     6    38    39    1
     7    38    37    1
     8    36    37    1
     9    36    35    1
    10    39    40    2
    11    35    30    1
    12    35    33    1
    13    34    33    1
    14    30    29    1
    15    33    31    1
    16    29    31    1
    17    29    28    1
    18    32    31    1
    19    28    27    1
    20    27    24    1
    21    26    24    2
    22    24    25    1
    23    24    23    1
    24    23     1    1
    25     4     5    1
    26     4     1    1
    27     3     1    2
    28     5     6    1
    29     1     2    1
    30     7     6    1
    31     7    12    1
    32     6     8    1
    33    21    20    1
    34    21    22    2
    35    20    19    1
    36    12    13    1
    37    12    10    1
    38     9     8    1
    39    22    13    1
    40    22    16    1
    41    19    17    2
    42     8    10    1
    43    13    14    1
    44    17    16    1
    45    17    18    1
    46    16    15    2
    47    14    15    1
    48    10    11    1
