@<TRIPOS>MOLECULE
1o0v_BMA_B_1.pdb
 11 11 0 0 0
SMALL
GASTEIGER

@<TRIPOS>ATOM
      1  C1        54.4070   29.3040   11.6270 C.3     7  BMA7        0.1777
      2  C2        55.0340   30.6980   11.5510 C.3     7  BMA7        0.2141
      3  C3        54.0270   31.6350   10.8700 C.3     7  BMA7        0.2173
      4  C4        53.5580   31.0700    9.5100 C.3     7  BMA7        0.2142
      5  C5        53.1580   29.5820    9.5980 C.3     7  BMA7        0.1810
      6  C6        52.9980   28.9310    8.2390 C.3     7  BMA7        0.2141
      7  O2        56.2410   30.6480   10.7990 O.3     7  BMA7       -0.2176
      8  O3        54.6130   32.9170   10.6800 O.3     7  BMA7       -0.2175
      9  O4        52.4420   31.8220    9.0500 O.3     7  BMA7       -0.2176
     10  O5        54.1590   28.8230   10.3110 O.3     7  BMA7       -0.3481
     11  O6        52.7290   27.5420    8.3680 O.3     7  BMA7       -0.2176
@<TRIPOS>BOND
     1     6    11    1
     2     6     5    1
     3     9     4    1
     4     4     5    1
     5     4     3    1
     6     5    10    1
     7    10     1    1
     8     8     3    1
     9     7     2    1
    10     3     2    1
    11     2     1    1
