@<TRIPOS>MOLECULE
1o0v_MAN_A_1.pdb
 11 11 0 0 0
SMALL
GASTEIGER

@<TRIPOS>ATOM
      1  C1        30.0390   21.7100   25.0050 C.3     7  MAN7        0.1777
      2  C2        29.0180   20.9040   24.1970 C.3     7  MAN7        0.2141
      3  C3        27.6660   21.6060   24.2250 C.3     7  MAN7        0.2173
      4  C4        27.2180   21.8430   25.6700 C.3     7  MAN7        0.2142
      5  C5        28.3050   22.5530   26.4870 C.3     7  MAN7        0.1810
      6  C6        27.9640   22.5680   27.9700 C.3     7  MAN7        0.2141
      7  O2        28.8850   19.6010   24.7520 O.3     7  MAN7       -0.2176
      8  O3        26.7080   20.7980   23.5620 O.3     7  MAN7       -0.2175
      9  O4        26.0450   22.6390   25.6740 O.3     7  MAN7       -0.2176
     10  O5        29.5790   21.8750   26.3490 O.3     7  MAN7       -0.3481
     11  O6        27.4190   21.3230   28.3930 O.3     7  MAN7       -0.2176
@<TRIPOS>BOND
     1     8     3    1
     2     2     3    1
     3     2     7    1
     4     2     1    1
     5     3     4    1
     6     1    10    1
     7     4     9    1
     8     4     5    1
     9    10     5    1
    10     5     6    1
    11     6    11    1
