@<TRIPOS>MOLECULE
1o16_HEM_A_1.pdb
 43 50 0 0 0
SMALL
GASTEIGER

@<TRIPOS>ATOM
      1 FE         35.4530    4.3440   10.1450 Fe    154  HEM154      0.0000
      2  CHA       38.1010    2.4720   11.1940 C.2   154  HEM154      0.0000
      3  CHB       37.2860    5.4570    7.5030 C.2   154  HEM154      0.0000
      4  CHC       32.8580    6.3280    9.1850 C.2   154  HEM154      0.0000
      5  CHD       33.7100    3.4110   12.9080 C.2   154  HEM154      0.0000
      6  NA        37.2940    4.0500    9.5060 N.ar  154  HEM154      0.0000
      7  C1A       38.2620    3.2210   10.0420 C.ar  154  HEM154      0.0000
      8  C2A       39.4610    3.2170    9.2310 C.ar  154  HEM154      0.0000
      9  C3A       39.2310    4.0540    8.1990 C.ar  154  HEM154      0.0000
     10  C4A       37.8940    4.5730    8.3750 C.ar  154  HEM154      0.0000
     11  CMA       40.1840    4.3620    7.0530 C.3   154  HEM154      0.0000
     12  CAA       40.7080    2.3610    9.4480 C.3   154  HEM154      0.0000
     13  CBA       40.7730    1.1700    8.4940 C.3   154  HEM154      0.0000
     14  CGA       39.5270    0.2940    8.5660 C.2   154  HEM154      0.0000
     15  O1A       39.2800   -0.3110    9.6290 O.co2 154  HEM154      0.0000
     16  O2A       38.7940    0.2190    7.5570 O.co2 154  HEM154      0.0000
     17  NB        35.1320    5.5900    8.6530 N.2   154  HEM154      0.0000
     18  C1B       35.9930    5.9320    7.6290 C.2   154  HEM154      0.0000
     19  C2B       35.3710    6.8540    6.7020 C.2   154  HEM154      0.0000
     20  C3B       34.1200    7.0840    7.1630 C.2   154  HEM154      0.0000
     21  C4B       33.9820    6.3120    8.3780 C.2   154  HEM154      0.0000
     22  CMB       35.9920    7.4320    5.4360 C.3   154  HEM154      0.0000
     23  CAB       33.1370    7.8500    6.5520 C.3   154  HEM154      0.0000
     24  CBB       33.3540    9.2370    6.1820 C.3   154  HEM154      0.0000
     25  NC        33.6720    4.7640   10.8780 N.ar  154  HEM154      0.0000
     26  C1C       32.7200    5.6200   10.3680 C.ar  154  HEM154      0.0000
     27  C2C       31.5690    5.7150   11.2430 C.ar  154  HEM154      0.0000
     28  C3C       31.8190    4.8960   12.3010 C.ar  154  HEM154      0.0000
     29  C4C       33.1120    4.3110   12.0590 C.ar  154  HEM154      0.0000
     30  CMC       30.3310    6.5820   11.0170 C.3   154  HEM154      0.0000
     31  CAC       30.9850    4.6090   13.3910 C.3   154  HEM154      0.0000
     32  CBC       29.9770    5.5200   13.9030 C.3   154  HEM154      0.0000
     33  ND        35.7950    3.1480   11.6630 N.2   154  HEM154      0.0000
     34  C1D       34.9590    2.8660   12.7280 C.2   154  HEM154      0.0000
     35  C2D       35.5900    1.9850   13.6800 C.2   154  HEM154      0.0000
     36  C3D       36.8290    1.7440   13.2180 C.2   154  HEM154      0.0000
     37  C4D       36.9500    2.4480   11.9590 C.2   154  HEM154      0.0000
     38  CMD       34.9820    1.4440   14.9680 C.3   154  HEM154      0.0000
     39  CAD       37.9240    0.9850   13.9460 C.3   154  HEM154      0.0000
     40  CBD       38.7240    1.8670   14.8890 C.3   154  HEM154      0.0000
     41  CGD       39.7430    1.0810   15.6840 C.2   154  HEM154      0.0000
     42  O1D       39.3320    0.2000   16.4630 O.co2 154  HEM154      0.0000
     43  O2D       40.9510    1.3380   15.5300 O.co2 154  HEM154      0.0000
@<TRIPOS>BOND
     1    22    19    1
     2    24    23    1
     3    23    20    1
     4    19    20    2
     5    19    18    1
     6    11     9    1
     7    20    21    1
     8     3    18    1
     9     3    10    2
    10    16    14   ar
    11    18    17    2
    12     9    10   ar
    13     9     8   ar
    14    10     6   ar
    15    21    17    1
    16    21     4    2
    17    13    14    1
    18    13    12    1
    19    14    15   ar
    20    17     1    1
    21     4    26    1
    22     8    12    1
    23     8     7   ar
    24     6     7   ar
    25     6     1    1
    26     7     2    2
    27     1    25    1
    28     1    33    1
    29    26    25   ar
    30    26    27   ar
    31    25    29   ar
    32    30    27    1
    33     2    37    1
    34    27    28   ar
    35    33    37    2
    36    33    34    1
    37    37    36    1
    38    29    28   ar
    39    29     5    1
    40    28    31    1
    41    34     5    2
    42    34    35    1
    43    36    35    2
    44    36    39    1
    45    31    32    1
    46    35    38    1
    47    39    40    1
    48    40    41    1
    49    43    41   ar
    50    41    42   ar
