@<TRIPOS>MOLECULE
1o1i_HEM_A_1.pdb
 43 50 0 0 0
SMALL
GASTEIGER

@<TRIPOS>ATOM
      1 FE         14.8130   31.2370   13.5850 Fe    150  HEM150      0.0000
      2  CHA       11.9800   32.3670   14.6860 C.2   150  HEM150      0.0000
      3  CHB       13.9880   28.2510   14.5350 C.2   150  HEM150      0.0000
      4  CHC       17.6990   30.1240   12.6040 C.2   150  HEM150      0.0000
      5  CHD       15.6930   34.2490   12.7530 C.2   150  HEM150      0.0000
      6  NA        13.2700   30.4500   14.5970 N.2   150  HEM150      0.0000
      7  C1A       12.0890   31.0330   14.9920 C.2   150  HEM150      0.0000
      8  C2A       11.1700   30.1370   15.6570 C.2   150  HEM150      0.0000
      9  C3A       11.7410   28.9120   15.5660 C.2   150  HEM150      0.0000
     10  C4A       13.0060   29.1350   14.9030 C.2   150  HEM150      0.0000
     11  CMA       11.2260   27.5640   16.0440 C.3   150  HEM150      0.0000
     12  CAA        9.8530   30.5380   16.2970 C.3   150  HEM150      0.0000
     13  CBA        8.5530   30.3410   15.5190 C.3   150  HEM150      0.0000
     14  CGA        7.3530   31.0640   16.1180 C.2   150  HEM150      0.0000
     15  O1A        7.5580   31.6480   17.2070 O.co2 150  HEM150      0.0000
     16  O2A        6.2890   31.0060   15.4690 O.co2 150  HEM150      0.0000
     17  NB        15.7560   29.4660   13.6700 N.ar  150  HEM150      0.0000
     18  C1B       15.2670   28.2350   14.0370 C.ar  150  HEM150      0.0000
     19  C2B       16.1810   27.1340   13.8370 C.ar  150  HEM150      0.0000
     20  C3B       17.2860   27.6850   13.2680 C.ar  150  HEM150      0.0000
     21  C4B       16.9710   29.0970   13.1510 C.ar  150  HEM150      0.0000
     22  CMB       15.9060   25.6880   14.2230 C.3   150  HEM150      0.0000
     23  CAB       18.5520   27.2180   12.8320 C.3   150  HEM150      0.0000
     24  CBB       18.8140   25.8020   12.6680 C.3   150  HEM150      0.0000
     25  NC        16.4340   32.0560   12.7370 N.2   150  HEM150      0.0000
     26  C1C       17.6360   31.4800   12.4060 C.2   150  HEM150      0.0000
     27  C2C       18.6310   32.3990   11.9020 C.2   150  HEM150      0.0000
     28  C3C       18.0490   33.6260   11.9650 C.2   150  HEM150      0.0000
     29  C4C       16.7190   33.3770   12.4850 C.2   150  HEM150      0.0000
     30  CMC       20.0120   32.0120   11.4120 C.3   150  HEM150      0.0000
     31  CAC       18.4520   34.9490   11.6470 C.3   150  HEM150      0.0000
     32  CBC       19.8630   35.3000   11.6210 C.3   150  HEM150      0.0000
     33  ND        13.9440   33.0390   13.6650 N.ar  150  HEM150      0.0000
     34  C1D       14.4270   34.2690   13.2840 C.ar  150  HEM150      0.0000
     35  C2D       13.5180   35.3690   13.5170 C.ar  150  HEM150      0.0000
     36  C3D       12.5030   34.8350   14.2400 C.ar  150  HEM150      0.0000
     37  C4D       12.7450   33.4100   14.2260 C.ar  150  HEM150      0.0000
     38  CMD       13.7180   36.7970   13.0410 C.3   150  HEM150      0.0000
     39  CAD       11.3530   35.5260   14.9530 C.3   150  HEM150      0.0000
     40  CBD       11.5410   36.9250   15.5150 C.3   150  HEM150      0.0000
     41  CGD       10.8900   37.1870   16.8600 C.2   150  HEM150      0.0000
     42  O1D       11.3100   38.1820   17.4980 O.co2 150  HEM150      0.0000
     43  O2D        9.9930   36.3870   17.2110 O.co2 150  HEM150      0.0000
@<TRIPOS>BOND
     1    30    27    1
     2    32    31    1
     3    31    28    1
     4    27    28    2
     5    27    26    1
     6    28    29    1
     7    26     4    2
     8    26    25    1
     9    29    25    2
    10    29     5    1
    11     4    21    1
    12    24    23    1
    13    25     1    1
    14     5    34    2
    15    23    20    1
    16    38    35    1
    17    21    20   ar
    18    21    17   ar
    19    20    19   ar
    20    34    35   ar
    21    34    33   ar
    22    35    36   ar
    23     1    33    1
    24     1    17    1
    25     1     6    1
    26    33    37   ar
    27    17    18   ar
    28    19    18   ar
    29    19    22    1
    30    18     3    1
    31    37    36   ar
    32    37     2    2
    33    36    39    1
    34     3    10    2
    35     6    10    1
    36     6     7    2
    37     2     7    1
    38    10     9    1
    39    39    40    1
    40     7     8    1
    41    16    14   ar
    42    40    41    1
    43    13    14    1
    44    13    12    1
    45     9     8    2
    46     9    11    1
    47     8    12    1
    48    14    15   ar
    49    41    43   ar
    50    41    42   ar
