@<TRIPOS>MOLECULE
1o1j_HEM_A_1.pdb
 43 50 0 0 0
SMALL
GASTEIGER

@<TRIPOS>ATOM
      1 FE         18.7390   18.5090   23.5790 Fe    284  HEM284      0.0000
      2  CHA       19.2360   18.5530   20.1760 C.2   284  HEM284      0.0000
      3  CHB       21.1960   20.8770   23.8950 C.2   284  HEM284      0.0000
      4  CHC       19.1070   17.7910   26.9200 C.2   284  HEM284      0.0000
      5  CHD       17.1530   15.4750   23.1980 C.2   284  HEM284      0.0000
      6  NA        19.9750   19.4970   22.2980 N.2   284  HEM284      0.0000
      7  C1A       19.9850   19.4280   20.9240 C.2   284  HEM284      0.0000
      8  C2A       20.8930   20.4120   20.3680 C.2   284  HEM284      0.0000
      9  C3A       21.4890   21.0290   21.4190 C.2   284  HEM284      0.0000
     10  C4A       20.8920   20.4700   22.6180 C.2   284  HEM284      0.0000
     11  CMA       22.5590   22.1130   21.4120 C.3   284  HEM284      0.0000
     12  CAA       21.0600   20.6990   18.8770 C.2   284  HEM284      0.0000
     13  CBA       20.3150   21.8990   18.2930 C.2   284  HEM284      0.0000
     14  CGA       20.5280   22.1320   16.8080 C.2   284  HEM284      0.0000
     15  O1A       21.5240   21.5760   16.2970 O.co2 284  HEM284      0.0000
     16  O2A       19.6830   22.8540   16.2320 O.co2 284  HEM284      0.0000
     17  NB        19.9390   19.1680   25.0900 N.ar  284  HEM284      0.0000
     18  C1B       20.8020   20.2390   25.0470 C.ar  284  HEM284      0.0000
     19  C2B       21.2530   20.5940   26.3750 C.ar  284  HEM284      0.0000
     20  C3B       20.6630   19.7180   27.2380 C.ar  284  HEM284      0.0000
     21  C4B       19.8520   18.8310   26.4170 C.ar  284  HEM284      0.0000
     22  CMB       22.1990   21.7480   26.6900 C.3   284  HEM284      0.0000
     23  CAB       20.6730   19.5180   28.6460 C.3   284  HEM284      0.0000
     24  CBB       21.7190   20.0620   29.4820 C.3   284  HEM284      0.0000
     25  NC        18.1610   17.0020   24.8150 N.2   284  HEM284      0.0000
     26  C1C       18.3780   16.8990   26.1710 C.2   284  HEM284      0.0000
     27  C2C       17.7290   15.7230   26.7100 C.2   284  HEM284      0.0000
     28  C3C       17.1790   15.0580   25.6550 C.2   284  HEM284      0.0000
     29  C4C       17.5000   15.8460   24.4740 C.2   284  HEM284      0.0000
     30  CMC       17.6830   15.3360   28.1840 C.3   284  HEM284      0.0000
     31  CAC       16.4080   13.8730   25.5040 C.3   284  HEM284      0.0000
     32  CBC       16.4990   12.7880   26.4560 C.3   284  HEM284      0.0000
     33  ND        18.1920   17.3360   22.0170 N.ar  284  HEM284      0.0000
     34  C1D       17.4550   16.1740   22.0560 C.ar  284  HEM284      0.0000
     35  C2D       17.0630   15.7710   20.7210 C.ar  284  HEM284      0.0000
     36  C3D       17.7450   16.5760   19.8650 C.ar  284  HEM284      0.0000
     37  C4D       18.4400   17.5520   20.6800 C.ar  284  HEM284      0.0000
     38  CMD       16.0840   14.6520   20.3950 C.3   284  HEM284      0.0000
     39  CAD       17.8130   16.5020   18.3470 C.3   284  HEM284      0.0000
     40  CBD       18.8250   15.5600   17.7000 C.3   284  HEM284      0.0000
     41  CGD       18.7300   15.4790   16.1820 C.2   284  HEM284      0.0000
     42  O1D       19.5640   16.1520   15.5450 O.co2 284  HEM284      0.0000
     43  O2D       17.8150   14.7600   15.7280 O.co2 284  HEM284      0.0000
@<TRIPOS>BOND
     1    42    41   ar
     2    43    41   ar
     3    41    40    1
     4    16    14   ar
     5    15    14   ar
     6    14    13    1
     7    40    39    1
     8    13    12    2
     9    39    36    1
    10    12     8    1
    11    36    37   ar
    12    36    35   ar
    13     2    37    2
    14     2     7    1
    15     8     7    1
    16     8     9    2
    17    38    35    1
    18    37    33   ar
    19    35    34   ar
    20     7     6    2
    21    11     9    1
    22     9    10    1
    23    33    34   ar
    24    33     1    1
    25    34     5    2
    26     6    10    1
    27     6     1    1
    28    10     3    2
    29     5    29    1
    30     1    25    1
    31     1    17    1
    32     3    18    1
    33    29    25    2
    34    29    28    1
    35    25    26    1
    36    18    17   ar
    37    18    19   ar
    38    17    21   ar
    39    31    28    1
    40    31    32    1
    41    28    27    2
    42    26    27    1
    43    26     4    2
    44    19    22    1
    45    19    20   ar
    46    21     4    1
    47    21    20   ar
    48    27    30    1
    49    20    23    1
    50    23    24    1
