@<TRIPOS>MOLECULE
1o1k_HEM_A_1.pdb
 43 50 0 0 0
SMALL
GASTEIGER

@<TRIPOS>ATOM
      1 FE         18.5820   18.5920   23.7230 Fe    150  HEM150      0.0000
      2  CHA       19.0580   18.6230   20.3270 C.2   150  HEM150      0.0000
      3  CHB       21.2480   20.7460   24.0040 C.2   150  HEM150      0.0000
      4  CHC       18.9510   17.8400   27.0560 C.2   150  HEM150      0.0000
      5  CHD       17.0350   15.5470   23.3400 C.2   150  HEM150      0.0000
      6  NA        19.8430   19.4940   22.4570 N.2   150  HEM150      0.0000
      7  C1A       19.8310   19.4700   21.0710 C.2   150  HEM150      0.0000
      8  C2A       20.8060   20.3840   20.4960 C.2   150  HEM150      0.0000
      9  C3A       21.4150   20.9890   21.5220 C.2   150  HEM150      0.0000
     10  C4A       20.8360   20.4240   22.7380 C.2   150  HEM150      0.0000
     11  CMA       22.4430   22.1050   21.4260 C.3   150  HEM150      0.0000
     12  CAA       21.1050   20.5890   19.0180 C.3   150  HEM150      0.0000
     13  CBA       19.9630   21.2350   18.2580 C.3   150  HEM150      0.0000
     14  CGA       20.2880   21.4410   16.7900 C.2   150  HEM150      0.0000
     15  O1A       20.5520   20.4420   16.0820 O.co2 150  HEM150      0.0000
     16  O2A       20.2830   22.6090   16.3490 O.co2 150  HEM150      0.0000
     17  NB        19.7830   19.1950   25.2000 N.ar  150  HEM150      0.0000
     18  C1B       20.7580   20.1780   25.1610 C.ar  150  HEM150      0.0000
     19  C2B       21.2710   20.4910   26.4830 C.ar  150  HEM150      0.0000
     20  C3B       20.6330   19.6610   27.3480 C.ar  150  HEM150      0.0000
     21  C4B       19.7270   18.8580   26.5430 C.ar  150  HEM150      0.0000
     22  CMB       22.2470   21.6200   26.8260 C.3   150  HEM150      0.0000
     23  CAB       20.7140   19.6400   28.7450 C.3   150  HEM150      0.0000
     24  CBB       21.9080   20.0230   29.4950 C.3   150  HEM150      0.0000
     25  NC        18.0260   17.0930   24.9260 N.2   150  HEM150      0.0000
     26  C1C       18.1560   17.0030   26.2980 C.2   150  HEM150      0.0000
     27  C2C       17.5160   15.8100   26.8210 C.2   150  HEM150      0.0000
     28  C3C       17.0460   15.1300   25.7680 C.2   150  HEM150      0.0000
     29  C4C       17.3600   15.9230   24.6050 C.2   150  HEM150      0.0000
     30  CMC       17.3020   15.4540   28.2860 C.3   150  HEM150      0.0000
     31  CAC       16.2290   14.0030   25.7920 C.3   150  HEM150      0.0000
     32  CBC       16.5620   12.7950   26.5210 C.3   150  HEM150      0.0000
     33  ND        18.0640   17.4280   22.1890 N.ar  150  HEM150      0.0000
     34  C1D       17.3470   16.2450   22.2100 C.ar  150  HEM150      0.0000
     35  C2D       17.0390   15.7680   20.8750 C.ar  150  HEM150      0.0000
     36  C3D       17.5880   16.6520   20.0280 C.ar  150  HEM150      0.0000
     37  C4D       18.2370   17.6600   20.8400 C.ar  150  HEM150      0.0000
     38  CMD       16.3550   14.4520   20.5070 C.3   150  HEM150      0.0000
     39  CAD       17.5800   16.5860   18.5040 C.3   150  HEM150      0.0000
     40  CBD       18.4920   15.4940   17.9730 C.3   150  HEM150      0.0000
     41  CGD       18.6330   15.5310   16.4630 C.2   150  HEM150      0.0000
     42  O1D       19.2390   16.4950   15.9470 O.co2 150  HEM150      0.0000
     43  O2D       18.1360   14.5980   15.8030 O.co2 150  HEM150      0.0000
@<TRIPOS>BOND
     1    43    41   ar
     2    42    41   ar
     3    15    14   ar
     4    16    14   ar
     5    41    40    1
     6    14    13    1
     7    40    39    1
     8    13    12    1
     9    39    36    1
    10    12     8    1
    11    36    37   ar
    12    36    35   ar
    13     2    37    2
    14     2     7    1
    15     8     7    1
    16     8     9    2
    17    38    35    1
    18    37    33   ar
    19    35    34   ar
    20     7     6    2
    21    11     9    1
    22     9    10    1
    23    33    34   ar
    24    33     1    1
    25    34     5    2
    26     6    10    1
    27     6     1    1
    28    10     3    2
    29     5    29    1
    30     1    25    1
    31     1    17    1
    32     3    18    1
    33    29    25    2
    34    29    28    1
    35    25    26    1
    36    18    17   ar
    37    18    19   ar
    38    17    21   ar
    39    28    31    1
    40    28    27    2
    41    31    32    1
    42    26    27    1
    43    26     4    2
    44    19    22    1
    45    19    20   ar
    46    21     4    1
    47    21    20   ar
    48    27    30    1
    49    20    23    1
    50    23    24    1
