@<TRIPOS>MOLECULE
1o1l_HEM_A_1.pdb
 43 50 0 0 0
SMALL
GASTEIGER

@<TRIPOS>ATOM
      1 FE         19.0300   18.3770   23.6560 Fe    284  HEM284      0.0000
      2  CHA       19.4440   18.4590   20.2930 C.2   284  HEM284      0.0000
      3  CHB       21.4780   20.6790   23.9610 C.2   284  HEM284      0.0000
      4  CHC       19.3540   17.6760   26.9580 C.2   284  HEM284      0.0000
      5  CHD       17.3230   15.4600   23.2870 C.2   284  HEM284      0.0000
      6  NA        20.3280   19.3220   22.3490 N.2   284  HEM284      0.0000
      7  C1A       20.2980   19.2890   20.9770 C.2   284  HEM284      0.0000
      8  C2A       21.2630   20.2110   20.4130 C.2   284  HEM284      0.0000
      9  C3A       21.8190   20.8730   21.4610 C.2   284  HEM284      0.0000
     10  C4A       21.2260   20.3160   22.6590 C.2   284  HEM284      0.0000
     11  CMA       22.8630   21.9810   21.4420 C.3   284  HEM284      0.0000
     12  CAA       21.5470   20.3620   18.9250 C.2   284  HEM284      0.0000
     13  CBA       20.8850   21.4870   18.1480 C.2   284  HEM284      0.0000
     14  CGA       21.3370   21.6380   16.7060 C.2   284  HEM284      0.0000
     15  O1A       21.2730   20.6110   15.9920 O.co2 284  HEM284      0.0000
     16  O2A       21.7420   22.7710   16.3670 O.co2 284  HEM284      0.0000
     17  NB        20.2740   19.0030   25.1910 N.ar  284  HEM284      0.0000
     18  C1B       21.1330   20.0780   25.1490 C.ar  284  HEM284      0.0000
     19  C2B       21.5830   20.4390   26.4750 C.ar  284  HEM284      0.0000
     20  C3B       20.9540   19.5970   27.3440 C.ar  284  HEM284      0.0000
     21  C4B       20.1490   18.7070   26.5230 C.ar  284  HEM284      0.0000
     22  CMB       22.5730   21.5590   26.7700 C.3   284  HEM284      0.0000
     23  CAB       20.9340   19.4210   28.7530 C.3   284  HEM284      0.0000
     24  CBB       21.8810   20.0670   29.6240 C.3   284  HEM284      0.0000
     25  NC        18.3060   16.9200   24.9280 N.2   284  HEM284      0.0000
     26  C1C       18.5730   16.7790   26.2710 C.2   284  HEM284      0.0000
     27  C2C       17.9440   15.5920   26.8080 C.2   284  HEM284      0.0000
     28  C3C       17.3670   14.9470   25.7540 C.2   284  HEM284      0.0000
     29  C4C       17.6550   15.7610   24.5850 C.2   284  HEM284      0.0000
     30  CMC       17.9640   15.1790   28.2720 C.3   284  HEM284      0.0000
     31  CAC       16.6160   13.7520   25.5990 C.3   284  HEM284      0.0000
     32  CBC       16.8040   12.6350   26.5020 C.3   284  HEM284      0.0000
     33  ND        18.3700   17.2410   22.0670 N.ar  284  HEM284      0.0000
     34  C1D       17.6240   16.0880   22.1040 C.ar  284  HEM284      0.0000
     35  C2D       17.2480   15.6690   20.7690 C.ar  284  HEM284      0.0000
     36  C3D       17.9270   16.4770   19.9140 C.ar  284  HEM284      0.0000
     37  C4D       18.6210   17.4490   20.7310 C.ar  284  HEM284      0.0000
     38  CMD       16.2840   14.5430   20.4350 C.3   284  HEM284      0.0000
     39  CAD       17.9970   16.4020   18.3940 C.3   284  HEM284      0.0000
     40  CBD       19.0050   15.4400   17.7660 C.3   284  HEM284      0.0000
     41  CGD       19.0290   15.4500   16.2470 C.2   284  HEM284      0.0000
     42  O1D       20.0250   15.9840   15.7170 O.co2 284  HEM284      0.0000
     43  O2D       18.0460   14.9330   15.6780 O.co2 284  HEM284      0.0000
@<TRIPOS>BOND
     1    43    41   ar
     2    42    41   ar
     3    15    14   ar
     4    41    40    1
     5    16    14   ar
     6    14    13    1
     7    40    39    1
     8    13    12    2
     9    39    36    1
    10    12     8    1
    11    36    37   ar
    12    36    35   ar
    13     2    37    2
    14     2     7    1
    15     8     7    1
    16     8     9    2
    17    38    35    1
    18    37    33   ar
    19    35    34   ar
    20     7     6    2
    21    11     9    1
    22     9    10    1
    23    33    34   ar
    24    33     1    1
    25    34     5    2
    26     6    10    1
    27     6     1    1
    28    10     3    2
    29     5    29    1
    30     1    25    1
    31     1    17    1
    32     3    18    1
    33    29    25    2
    34    29    28    1
    35    25    26    1
    36    18    17   ar
    37    18    19   ar
    38    17    21   ar
    39    31    28    1
    40    31    32    1
    41    28    27    2
    42    26    27    1
    43    26     4    2
    44    19    22    1
    45    19    20   ar
    46    21     4    1
    47    21    20   ar
    48    27    30    1
    49    20    23    1
    50    23    24    1
