@<TRIPOS>MOLECULE
1o1m_HEM_A_1.pdb
 43 50 0 0 0
SMALL
GASTEIGER

@<TRIPOS>ATOM
      1 FE         18.8550   18.6040   23.6220 Fe    286  HEM286      0.0000
      2  CHA       19.3360   18.5960   20.2600 C.2   286  HEM286      0.0000
      3  CHB       21.3100   20.9010   23.8990 C.2   286  HEM286      0.0000
      4  CHC       19.2160   17.9180   26.9220 C.2   286  HEM286      0.0000
      5  CHD       17.2520   15.6260   23.2800 C.2   286  HEM286      0.0000
      6  NA        20.1360   19.5430   22.3110 N.2   286  HEM286      0.0000
      7  C1A       20.1010   19.5190   20.9360 C.2   286  HEM286      0.0000
      8  C2A       20.9550   20.5330   20.3560 C.2   286  HEM286      0.0000
      9  C3A       21.5380   21.1810   21.3970 C.2   286  HEM286      0.0000
     10  C4A       21.0160   20.5630   22.6000 C.2   286  HEM286      0.0000
     11  CMA       22.5410   22.3220   21.3740 C.3   286  HEM286      0.0000
     12  CAA       21.1160   20.7920   18.8630 C.2   286  HEM286      0.0000
     13  CBA       20.4570   22.0240   18.2520 C.2   286  HEM286      0.0000
     14  CGA       20.5110   22.0970   16.7330 C.2   286  HEM286      0.0000
     15  O1A       21.2990   21.3110   16.1640 O.co2 286  HEM286      0.0000
     16  O2A       19.7580   22.9350   16.1910 O.co2 286  HEM286      0.0000
     17  NB        20.0880   19.2560   25.1390 N.ar  286  HEM286      0.0000
     18  C1B       20.9690   20.3130   25.0970 C.ar  286  HEM286      0.0000
     19  C2B       21.4530   20.6650   26.4130 C.ar  286  HEM286      0.0000
     20  C3B       20.8330   19.8230   27.2890 C.ar  286  HEM286      0.0000
     21  C4B       20.0070   18.9500   26.4740 C.ar  286  HEM286      0.0000
     22  CMB       22.4580   21.7650   26.7160 C.3   286  HEM286      0.0000
     23  CAB       20.8330   19.6510   28.7020 C.3   286  HEM286      0.0000
     24  CBB       21.9830   20.0490   29.4950 C.3   286  HEM286      0.0000
     25  NC        18.2120   17.1240   24.8920 N.2   286  HEM286      0.0000
     26  C1C       18.4400   17.0060   26.2450 C.2   286  HEM286      0.0000
     27  C2C       17.8000   15.8360   26.8040 C.2   286  HEM286      0.0000
     28  C3C       17.2670   15.1520   25.7550 C.2   286  HEM286      0.0000
     29  C4C       17.5760   15.9460   24.5760 C.2   286  HEM286      0.0000
     30  CMC       17.7700   15.4680   28.2840 C.3   286  HEM286      0.0000
     31  CAC       16.5210   13.9500   25.6070 C.3   286  HEM286      0.0000
     32  CBC       16.7380   12.8280   26.5010 C.3   286  HEM286      0.0000
     33  ND        18.2580   17.4220   22.0570 N.ar  286  HEM286      0.0000
     34  C1D       17.5100   16.2690   22.0940 C.ar  286  HEM286      0.0000
     35  C2D       17.0810   15.8640   20.7710 C.ar  286  HEM286      0.0000
     36  C3D       17.7360   16.6740   19.9030 C.ar  286  HEM286      0.0000
     37  C4D       18.4820   17.6170   20.7120 C.ar  286  HEM286      0.0000
     38  CMD       16.1210   14.7200   20.4740 C.3   286  HEM286      0.0000
     39  CAD       17.7940   16.5970   18.3800 C.2   286  HEM286      0.0000
     40  CBD       18.9130   15.7420   17.7700 C.2   286  HEM286      0.0000
     41  CGD       18.8910   15.6350   16.2610 C.2   286  HEM286      0.0000
     42  O1D       19.9310   15.9960   15.6660 O.co2 286  HEM286      0.0000
     43  O2D       17.8450   15.1780   15.7490 O.co2 286  HEM286      0.0000
@<TRIPOS>BOND
     1    42    41   ar
     2    43    41   ar
     3    15    14   ar
     4    16    14   ar
     5    41    40    1
     6    14    13    1
     7    40    39    2
     8    13    12    2
     9    39    36    1
    10    12     8    1
    11    36    37   ar
    12    36    35   ar
    13     2    37    2
    14     2     7    1
    15     8     7    1
    16     8     9    2
    17    38    35    1
    18    37    33   ar
    19    35    34   ar
    20     7     6    2
    21    11     9    1
    22     9    10    1
    23    33    34   ar
    24    33     1    1
    25    34     5    2
    26     6    10    1
    27     6     1    1
    28    10     3    2
    29     5    29    1
    30     1    25    1
    31     1    17    1
    32     3    18    1
    33    29    25    2
    34    29    28    1
    35    25    26    1
    36    18    17   ar
    37    18    19   ar
    38    17    21   ar
    39    31    28    1
    40    31    32    1
    41    28    27    2
    42    26    27    1
    43    26     4    2
    44    19    22    1
    45    19    20   ar
    46    21     4    1
    47    21    20   ar
    48    27    30    1
    49    20    23    1
    50    23    24    1
