@<TRIPOS>MOLECULE
1o1n_HEM_A_1.pdb
 43 50 0 0 0
SMALL
GASTEIGER

@<TRIPOS>ATOM
      1 FE         18.7480   18.5270   23.8040 Fe    286  HEM286      0.0000
      2  CHA       19.2050   18.5110   20.4480 C.2   286  HEM286      0.0000
      3  CHB       21.2280   20.8030   24.0680 C.2   286  HEM286      0.0000
      4  CHC       19.0770   17.8820   27.1160 C.2   286  HEM286      0.0000
      5  CHD       17.0600   15.5970   23.4920 C.2   286  HEM286      0.0000
      6  NA        20.0500   19.4460   22.4850 N.2   286  HEM286      0.0000
      7  C1A       20.0350   19.3810   21.1120 C.2   286  HEM286      0.0000
      8  C2A       20.9790   20.3140   20.5300 C.2   286  HEM286      0.0000
      9  C3A       21.5700   20.9590   21.5680 C.2   286  HEM286      0.0000
     10  C4A       20.9690   20.4270   22.7730 C.2   286  HEM286      0.0000
     11  CMA       22.6630   22.0210   21.5370 C.3   286  HEM286      0.0000
     12  CAA       21.2360   20.4690   19.0360 C.3   286  HEM286      0.0000
     13  CBA       20.7570   21.7100   18.3040 C.3   286  HEM286      0.0000
     14  CGA       21.2750   21.8520   16.8750 C.2   286  HEM286      0.0000
     15  O1A       20.8630   21.0030   16.0520 O.co2 286  HEM286      0.0000
     16  O2A       22.0740   22.7850   16.6640 O.co2 286  HEM286      0.0000
     17  NB        19.9760   19.1950   25.3300 N.ar  286  HEM286      0.0000
     18  C1B       20.8780   20.2330   25.2690 C.ar  286  HEM286      0.0000
     19  C2B       21.3680   20.5860   26.5810 C.ar  286  HEM286      0.0000
     20  C3B       20.7230   19.7750   27.4680 C.ar  286  HEM286      0.0000
     21  C4B       19.8810   18.9020   26.6670 C.ar  286  HEM286      0.0000
     22  CMB       22.3980   21.6750   26.8630 C.3   286  HEM286      0.0000
     23  CAB       20.7040   19.6600   28.8840 C.3   286  HEM286      0.0000
     24  CBB       21.8720   19.9880   29.6750 C.3   286  HEM286      0.0000
     25  NC        18.0430   17.0880   25.0980 N.2   286  HEM286      0.0000
     26  C1C       18.2570   17.0000   26.4560 C.2   286  HEM286      0.0000
     27  C2C       17.5350   15.8860   27.0300 C.2   286  HEM286      0.0000
     28  C3C       17.0230   15.1770   25.9810 C.2   286  HEM286      0.0000
     29  C4C       17.3650   15.9340   24.7890 C.2   286  HEM286      0.0000
     30  CMC       17.4150   15.5850   28.5160 C.3   286  HEM286      0.0000
     31  CAC       16.2830   13.9710   25.8550 C.3   286  HEM286      0.0000
     32  CBC       16.3950   12.9250   26.8530 C.3   286  HEM286      0.0000
     33  ND        18.1200   17.3440   22.2420 N.ar  286  HEM286      0.0000
     34  C1D       17.3530   16.2020   22.2960 C.ar  286  HEM286      0.0000
     35  C2D       16.9680   15.7630   20.9700 C.ar  286  HEM286      0.0000
     36  C3D       17.6330   16.5630   20.0980 C.ar  286  HEM286      0.0000
     37  C4D       18.3530   17.5320   20.8970 C.ar  286  HEM286      0.0000
     38  CMD       16.0220   14.6100   20.6570 C.3   286  HEM286      0.0000
     39  CAD       17.7060   16.4550   18.5760 C.2   286  HEM286      0.0000
     40  CBD       18.7030   15.4620   17.9820 C.2   286  HEM286      0.0000
     41  CGD       18.8800   15.5330   16.4760 C.2   286  HEM286      0.0000
     42  O1D       19.9490   16.0380   16.0660 O.co2 286  HEM286      0.0000
     43  O2D       17.9540   15.0600   15.7860 O.co2 286  HEM286      0.0000
@<TRIPOS>BOND
     1    43    41   ar
     2    15    14   ar
     3    42    41   ar
     4    41    40    1
     5    16    14   ar
     6    14    13    1
     7    40    39    2
     8    13    12    1
     9    39    36    1
    10    12     8    1
    11    36    37   ar
    12    36    35   ar
    13     2    37    2
    14     2     7    1
    15     8     7    1
    16     8     9    2
    17    38    35    1
    18    37    33   ar
    19    35    34   ar
    20     7     6    2
    21    11     9    1
    22     9    10    1
    23    33    34   ar
    24    33     1    1
    25    34     5    2
    26     6    10    1
    27     6     1    1
    28    10     3    2
    29     5    29    1
    30     1    25    1
    31     1    17    1
    32     3    18    1
    33    29    25    2
    34    29    28    1
    35    25    26    1
    36    18    17   ar
    37    18    19   ar
    38    17    21   ar
    39    31    28    1
    40    31    32    1
    41    28    27    2
    42    26    27    1
    43    26     4    2
    44    19    22    1
    45    19    20   ar
    46    21     4    1
    47    21    20   ar
    48    27    30    1
    49    20    23    1
    50    23    24    1
