@<TRIPOS>MOLECULE
1o1o_HEM_A_1.pdb
 43 50 0 0 0
SMALL
GASTEIGER

@<TRIPOS>ATOM
      1 FE         18.4730   18.4480   23.7100 Fe    150  HEM150      0.0000
      2  CHA       18.8810   18.5670   20.2920 C.2   150  HEM150      0.0000
      3  CHB       20.9630   20.7900   24.0380 C.2   150  HEM150      0.0000
      4  CHC       18.7480   17.7570   27.0740 C.2   150  HEM150      0.0000
      5  CHD       16.6650   15.5320   23.3290 C.2   150  HEM150      0.0000
      6  NA        19.7420   19.4290   22.4100 N.2   150  HEM150      0.0000
      7  C1A       19.6930   19.3900   21.0350 C.2   150  HEM150      0.0000
      8  C2A       20.6280   20.3590   20.4970 C.2   150  HEM150      0.0000
      9  C3A       21.2920   20.9020   21.5530 C.2   150  HEM150      0.0000
     10  C4A       20.6770   20.3780   22.7570 C.2   150  HEM150      0.0000
     11  CMA       22.4470   21.8960   21.5450 C.3   150  HEM150      0.0000
     12  CAA       20.7770   20.6860   19.0120 C.2   150  HEM150      0.0000
     13  CBA       20.1270   21.9440   18.4600 C.2   150  HEM150      0.0000
     14  CGA       20.2900   22.1750   16.9690 C.2   150  HEM150      0.0000
     15  O1A       21.4110   21.9220   16.4760 O.co2 150  HEM150      0.0000
     16  O2A       19.2850   22.6140   16.3610 O.co2 150  HEM150      0.0000
     17  NB        19.7270   19.0580   25.2470 N.ar  150  HEM150      0.0000
     18  C1B       20.5680   20.1500   25.1900 C.ar  150  HEM150      0.0000
     19  C2B       20.9890   20.5010   26.5270 C.ar  150  HEM150      0.0000
     20  C3B       20.3000   19.7010   27.3920 C.ar  150  HEM150      0.0000
     21  C4B       19.5370   18.7680   26.5790 C.ar  150  HEM150      0.0000
     22  CMB       22.0340   21.5600   26.8630 C.3   150  HEM150      0.0000
     23  CAB       20.2050   19.6170   28.8120 C.3   150  HEM150      0.0000
     24  CBB       21.3610   19.9100   29.6400 C.3   150  HEM150      0.0000
     25  NC        17.8180   16.9440   24.9620 N.2   150  HEM150      0.0000
     26  C1C       17.9900   16.8880   26.3260 C.2   150  HEM150      0.0000
     27  C2C       17.2620   15.7500   26.8500 C.2   150  HEM150      0.0000
     28  C3C       16.8310   15.0200   25.7780 C.2   150  HEM150      0.0000
     29  C4C       17.0970   15.8320   24.5990 C.2   150  HEM150      0.0000
     30  CMC       17.0760   15.4460   28.3310 C.3   150  HEM150      0.0000
     31  CAC       16.2140   13.7520   25.6080 C.3   150  HEM150      0.0000
     32  CBC       16.2210   12.7480   26.6450 C.3   150  HEM150      0.0000
     33  ND        17.8240   17.3180   22.1190 N.ar  150  HEM150      0.0000
     34  C1D       17.0590   16.1750   22.1800 C.ar  150  HEM150      0.0000
     35  C2D       16.7460   15.7380   20.8320 C.ar  150  HEM150      0.0000
     36  C3D       17.4540   16.5290   19.9850 C.ar  150  HEM150      0.0000
     37  C4D       18.1120   17.5400   20.7900 C.ar  150  HEM150      0.0000
     38  CMD       15.7960   14.5970   20.4890 C.3   150  HEM150      0.0000
     39  CAD       17.5850   16.4180   18.4690 C.3   150  HEM150      0.0000
     40  CBD       18.7600   15.6050   17.9090 C.3   150  HEM150      0.0000
     41  CGD       18.8890   15.6510   16.3940 C.2   150  HEM150      0.0000
     42  O1D       19.8580   16.3020   15.9470 O.co2 150  HEM150      0.0000
     43  O2D       18.0110   15.0480   15.7460 O.co2 150  HEM150      0.0000
@<TRIPOS>BOND
     1    43    41   ar
     2    42    41   ar
     3    16    14   ar
     4    41    40    1
     5    15    14   ar
     6    14    13    1
     7    40    39    1
     8    13    12    2
     9    39    36    1
    10    12     8    1
    11    36    37   ar
    12    36    35   ar
    13     2    37    2
    14     2     7    1
    15    38    35    1
    16     8     7    1
    17     8     9    2
    18    37    33   ar
    19    35    34   ar
    20     7     6    2
    21    11     9    1
    22     9    10    1
    23    33    34   ar
    24    33     1    1
    25    34     5    2
    26     6    10    1
    27     6     1    1
    28    10     3    2
    29     5    29    1
    30     1    25    1
    31     1    17    1
    32     3    18    1
    33    29    25    2
    34    29    28    1
    35    25    26    1
    36    18    17   ar
    37    18    19   ar
    38    17    21   ar
    39    31    28    1
    40    31    32    1
    41    28    27    2
    42    26    27    1
    43    26     4    2
    44    19    22    1
    45    19    20   ar
    46    21     4    1
    47    21    20   ar
    48    27    30    1
    49    20    23    1
    50    23    24    1
