@<TRIPOS>MOLECULE
1o1p_HEM_A_1.pdb
 43 50 0 0 0
SMALL
GASTEIGER

@<TRIPOS>ATOM
      1 FE         18.7060   18.3680   23.6280 Fe    284  HEM284      0.0000
      2  CHA       19.0230   18.5420   20.2080 C.2   284  HEM284      0.0000
      3  CHB       21.2360   20.6620   23.9360 C.2   284  HEM284      0.0000
      4  CHC       19.0950   17.5790   26.9700 C.2   284  HEM284      0.0000
      5  CHD       16.8810   15.4590   23.2430 C.2   284  HEM284      0.0000
      6  NA        19.9560   19.3360   22.3250 N.2   284  HEM284      0.0000
      7  C1A       19.8720   19.3260   20.9510 C.2   284  HEM284      0.0000
      8  C2A       20.8280   20.2670   20.4030 C.2   284  HEM284      0.0000
      9  C3A       21.5240   20.7850   21.4500 C.2   284  HEM284      0.0000
     10  C4A       20.9040   20.2760   22.6600 C.2   284  HEM284      0.0000
     11  CMA       22.7290   21.7160   21.4230 C.3   284  HEM284      0.0000
     12  CAA       20.9570   20.6030   18.9180 C.2   284  HEM284      0.0000
     13  CBA       20.4180   21.9360   18.4230 C.2   284  HEM284      0.0000
     14  CGA       20.4210   22.1420   16.9210 C.2   284  HEM284      0.0000
     15  O1A       20.8750   21.2120   16.2190 O.co2 284  HEM284      0.0000
     16  O2A       19.9500   23.2310   16.5170 O.co2 284  HEM284      0.0000
     17  NB        19.9730   18.9470   25.1420 N.ar  284  HEM284      0.0000
     18  C1B       20.8540   20.0050   25.0830 C.ar  284  HEM284      0.0000
     19  C2B       21.3020   20.3400   26.4170 C.ar  284  HEM284      0.0000
     20  C3B       20.6140   19.5370   27.2850 C.ar  284  HEM284      0.0000
     21  C4B       19.8380   18.6200   26.4700 C.ar  284  HEM284      0.0000
     22  CMB       22.3350   21.4060   26.7430 C.3   284  HEM284      0.0000
     23  CAB       20.5310   19.4290   28.7010 C.3   284  HEM284      0.0000
     24  CBB       21.7460   19.3640   29.5010 C.3   284  HEM284      0.0000
     25  NC        18.0300   16.8810   24.8740 N.2   284  HEM284      0.0000
     26  C1C       18.3090   16.7420   26.2160 C.2   284  HEM284      0.0000
     27  C2C       17.6360   15.5700   26.7370 C.2   284  HEM284      0.0000
     28  C3C       17.0280   14.9520   25.6800 C.2   284  HEM284      0.0000
     29  C4C       17.3130   15.7690   24.5090 C.2   284  HEM284      0.0000
     30  CMC       17.6120   15.1430   28.1970 C.3   284  HEM284      0.0000
     31  CAC       16.2290   13.7890   25.5240 C.3   284  HEM284      0.0000
     32  CBC       16.5130   12.5760   26.2590 C.3   284  HEM284      0.0000
     33  ND        18.0100   17.2710   22.0440 N.ar  284  HEM284      0.0000
     34  C1D       17.2860   16.1040   22.1010 C.ar  284  HEM284      0.0000
     35  C2D       16.9910   15.6430   20.7570 C.ar  284  HEM284      0.0000
     36  C3D       17.5940   16.5110   19.9050 C.ar  284  HEM284      0.0000
     37  C4D       18.2580   17.5140   20.7090 C.ar  284  HEM284      0.0000
     38  CMD       16.1450   14.4180   20.4320 C.3   284  HEM284      0.0000
     39  CAD       17.6250   16.4410   18.3760 C.3   284  HEM284      0.0000
     40  CBD       18.6880   15.5360   17.7420 C.3   284  HEM284      0.0000
     41  CGD       18.8210   15.6720   16.2340 C.2   284  HEM284      0.0000
     42  O1D       19.9260   16.0770   15.8100 O.co2 284  HEM284      0.0000
     43  O2D       17.8160   15.3590   15.5660 O.co2 284  HEM284      0.0000
@<TRIPOS>BOND
     1    43    41   ar
     2    42    41   ar
     3    15    14   ar
     4    41    40    1
     5    16    14   ar
     6    14    13    1
     7    40    39    1
     8    39    36    1
     9    13    12    2
    10    12     8    1
    11    36    37   ar
    12    36    35   ar
    13     2    37    2
    14     2     7    1
    15     8     7    1
    16     8     9    2
    17    38    35    1
    18    37    33   ar
    19    35    34   ar
    20     7     6    2
    21    11     9    1
    22     9    10    1
    23    33    34   ar
    24    33     1    1
    25    34     5    2
    26     6    10    1
    27     6     1    1
    28    10     3    2
    29     5    29    1
    30     1    25    1
    31     1    17    1
    32     3    18    1
    33    29    25    2
    34    29    28    1
    35    25    26    1
    36    18    17   ar
    37    18    19   ar
    38    17    21   ar
    39    31    28    1
    40    31    32    1
    41    28    27    2
    42    26    27    1
    43    26     4    2
    44    19    22    1
    45    19    20   ar
    46    21     4    1
    47    21    20   ar
    48    27    30    1
    49    20    23    1
    50    23    24    1
