@<TRIPOS>MOLECULE
1o1r_GRG_B_1.pdb
 29 28 0 0 0
SMALL
GASTEIGER

@<TRIPOS>ATOM
      1  C20      183.3010  121.7140   30.0180 C.3   2001  GRG2001     0.0260
      2  C19      181.9730  119.9170   31.3260 C.3   2001  GRG2001     0.0260
      3  C18      183.2450  120.6930   31.1210 C.2   2001  GRG2001    -0.0478
      4  C17      184.3050  120.4670   31.9210 C.2   2001  GRG2001    -0.0342
      5  C16      185.6300  121.1970   31.7890 C.3   2001  GRG2001     0.0297
      6  C14      188.5360  122.0460   33.7620 C.3   2001  GRG2001     0.0260
      7  C13      188.0060  121.1580   32.6600 C.2   2001  GRG2001    -0.0478
      8  C15      186.6030  120.5900   32.7800 C.3   2001  GRG2001     0.0263
      9  C12      188.7840  120.8860   31.6040 C.2   2001  GRG2001    -0.0342
     10  C11      190.1860  121.4530   31.5100 C.3   2001  GRG2001     0.0297
     11  C9       190.3630  122.0500   30.1640 C.3   2001  GRG2001     0.0263
     12  C8       191.8190  122.0540   29.7520 C.2   2001  GRG2001    -0.0478
     13  C10      192.8010  121.1690   30.4910 C.3   2001  GRG2001     0.0260
     14  C7       192.2180  122.8350   28.7390 C.2   2001  GRG2001    -0.0342
     15  C6       193.6500  122.8550   28.2890 C.3   2001  GRG2001     0.0297
     16  C5       194.1810  124.2770   28.2760 C.3   2001  GRG2001     0.0264
     17  C3       194.4140  124.7830   29.6870 C.2   2001  GRG2001    -0.0454
     18  C4       194.2810  126.2860   29.8990 C.3   2001  GRG2001     0.0261
     19  C2       194.7300  123.9370   30.7040 C.2   2001  GRG2001    -0.0024
     20  C1       194.9670  124.4100   32.1080 C.3   2001  GRG2001     0.1747
     21  O1       196.1870  125.1840   32.0790 O.3   2001  GRG2001    -0.3089
     22  PA       196.6490  125.8860   33.3570 P.3   2001  GRG2001     0.2233
     23  O1A      198.1180  126.1800   33.3400 O.2   2001  GRG2001    -0.5169
     24  O3A      196.2250  124.9860   34.5700 O.3   2001  GRG2001    -0.2261
     25  O2A      195.8020  127.1770   33.4520 O.3   2001  GRG2001    -0.4370
     26  PB       196.9410  123.7470   35.2210 P.3   2001  GRG2001     0.5373
     27  O1B      196.6850  122.5810   34.2350 O.2   2001  GRG2001    -0.2221
     28  O2B      198.3960  123.9760   35.4730 O.3   2001  GRG2001    -0.1143
     29  O3B      196.1430  123.5090   36.5310 O.3   2001  GRG2001    -0.1143
@<TRIPOS>BOND
     1    16    15    1
     2    16    17    1
     3    15    14    1
     4    14    12    2
     5    17    18    1
     6    17    19    2
     7    12    11    1
     8    12    13    1
     9     1     3    1
    10    11    10    1
    11    19    20    1
    12     3     2    1
    13     3     4    2
    14    10     9    1
    15     9     7    2
    16     5     4    1
    17     5     8    1
    18    21    20    1
    19    21    22    1
    20     7     8    1
    21     7     6    1
    22    23    22    2
    23    22    25    1
    24    22    24    1
    25    27    26    2
    26    24    26    1
    27    26    28    1
    28    26    29    1
