@<TRIPOS>MOLECULE
1o1s_1NH_B_1.pdb
 35 36 0 0 0
SMALL
GASTEIGER

@<TRIPOS>ATOM
      1  C4       193.6470  123.4910   29.0520 C.3   2001  1NH2001     0.0261
      2  C1       193.1760  122.9000   30.3810 C.2   2001  1NH2001    -0.0454
      3  C3       191.8450  122.1070   30.3570 C.3   2001  1NH2001     0.0264
      4  C5       191.0540  122.1600   31.6910 C.3   2001  1NH2001     0.0298
      5  C7       189.7860  121.3160   31.5510 C.2   2001  1NH2001    -0.0319
      6  C6       188.7920  121.3270   32.4690 C.2   2001  1NH2001    -0.0188
      7  C8       188.8850  122.1830   33.7040 C.3   2001  1NH2001     0.0285
      8  C9       187.5480  120.4760   32.2900 C.3   2001  1NH2001     0.1645
      9  O8       186.4070  121.1140   32.8820 O.3   2001  1NH2001    -0.3446
     10  C11      185.1590  120.4650   32.5340 C.3   2001  1NH2001     0.1690
     11  C17      184.4970  121.1980   31.3860 C.ar  2001  1NH2001     0.0074
     12  C18      183.3470  120.6930   30.7560 C.ar  2001  1NH2001    -0.0018
     13  C12      182.7810  121.4170   29.6930 C.ar  2001  1NH2001    -0.0001
     14  C13      183.3590  122.6390   29.2640 C.ar  2001  1NH2001     0.0032
     15  C14      184.5100  123.1410   29.9030 C.ar  2001  1NH2001     0.0387
     16  C16      185.0540  122.4070   30.9590 C.ar  2001  1NH2001     0.0013
     17  C15      185.2070  124.4140   29.5550 C.2   2001  1NH2001     0.1955
     18  O9       186.1140  124.8310   30.2820 O.2   2001  1NH2001    -0.2866
     19  C19      184.8340  125.1750   28.3450 C.ar  2001  1NH2001     0.0390
     20  C24      184.0360  124.6380   27.3230 C.ar  2001  1NH2001     0.0032
     21  C23      183.8300  125.3600   26.1380 C.ar  2001  1NH2001     0.0001
     22  C22      184.4050  126.6270   25.9730 C.ar  2001  1NH2001     0.0000
     23  C21      185.1500  127.1970   27.0140 C.ar  2001  1NH2001     0.0001
     24  C20      185.3560  126.4750   28.1970 C.ar  2001  1NH2001     0.0032
     25  C2       193.9180  123.0780   31.5040 C.2   2001  1NH2001    -0.0024
     26  C10      195.2300  123.8540   31.5140 C.3   2001  1NH2001     0.1747
     27  O3       195.1140  125.0980   32.2780 O.3   2001  1NH2001    -0.3089
     28  P2       196.3480  125.5950   33.1190 P.3   2001  1NH2001     0.2233
     29  O7       196.1040  127.1000   33.3530 O.3   2001  1NH2001    -0.4370
     30  O1       197.6720  125.3390   32.4640 O.2   2001  1NH2001    -0.5169
     31  O2       196.2410  124.9470   34.5310 O.3   2001  1NH2001    -0.2261
     32  P1       197.0750  123.8600   35.2780 P.3   2001  1NH2001     0.5373
     33  O4       196.2780  123.6140   36.5860 O.3   2001  1NH2001    -0.1143
     34  O5       196.9840  122.6040   34.3840 O.2   2001  1NH2001    -0.2221
     35  O6       198.4780  124.2910   35.5320 O.3   2001  1NH2001    -0.1143
@<TRIPOS>BOND
     1    22    21   ar
     2    22    23   ar
     3    21    20   ar
     4    23    24   ar
     5    20    19   ar
     6    24    19   ar
     7    19    17    1
     8     1     2    1
     9    14    13   ar
    10    14    15   ar
    11    17    15    1
    12    17    18    2
    13    13    12   ar
    14    15    16   ar
    15     3     2    1
    16     3     4    1
    17     2    25    2
    18    12    11   ar
    19    16    11   ar
    20    11    10    1
    21    25    26    1
    22    26    27    1
    23     5     4    1
    24     5     6    2
    25    27    28    1
    26     8     6    1
    27     8     9    1
    28    30    28    2
    29     6     7    1
    30    10     9    1
    31    28    29    1
    32    28    31    1
    33    34    32    2
    34    31    32    1
    35    32    35    1
    36    32    33    1
