@<TRIPOS>MOLECULE
1o1t_2NH_B_1.pdb
 48 47 0 0 0
SMALL
GASTEIGER

@<TRIPOS>ATOM
      1  CD1      183.5790  125.1670   32.9440 C.3   3001  2NH3001     0.0001
      2  CG4      184.5450  125.7870   31.9420 C.3   3001  2NH3001     0.0022
      3  CB4      185.7310  124.8840   31.5990 C.3   3001  2NH3001     0.0290
      4  CG3      186.5930  124.6200   32.8360 C.3   3001  2NH3001     0.0023
      5  CA4      186.6040  125.5050   30.4640 C.3   3001  2NH3001     0.1727
      6  N3       187.0100  126.8630   30.8120 N.am  3001  2NH3001    -0.1963
      7  C19      188.2820  127.2400   30.7900 C.2   3001  2NH3001     0.2616
      8  O20      189.2100  126.4730   30.5280 O.2   3001  2NH3001    -0.2715
      9  CA3      188.5410  128.6830   31.1840 C.3   3001  2NH3001     0.1727
     10  N2       189.5390  128.7710   32.2600 N.am  3001  2NH3001    -0.1963
     11  C17      189.2140  128.5690   33.5400 C.2   3001  2NH3001     0.2625
     12  O18      188.0650  128.3390   33.9220 O.2   3001  2NH3001    -0.2714
     13  CA2      190.3480  128.6890   34.5500 C.3   3001  2NH3001     0.1834
     14  CB2      190.0970  127.7740   35.7650 C.3   3001  2NH3001     0.0889
     15  SG       191.5630  127.2880   36.7020 S.3   3001  2NH3001    -0.1331
     16  C        192.2220  125.9860   35.6180 C.3   3001  2NH3001     0.0829
     17  C2       191.4040  124.7160   35.6490 C.2   3001  2NH3001    -0.0229
     18  C1       190.5020  124.3800   34.7050 C.2   3001  2NH3001    -0.0470
     19  C4       190.2340  125.2810   33.5350 C.3   3001  2NH3001     0.0261
     20  C3       189.7370  123.0730   34.8150 C.3   3001  2NH3001     0.0264
     21  C5       189.7190  122.3590   33.4670 C.3   3001  2NH3001     0.0297
     22  C7       188.4280  121.5460   33.3900 C.2   3001  2NH3001    -0.0342
     23  C6       187.9420  121.1090   32.2280 C.2   3001  2NH3001    -0.0478
     24  C8       188.6340  121.3770   30.9170 C.3   3001  2NH3001     0.0260
     25  C9       186.6430  120.3070   32.2010 C.3   3001  2NH3001     0.0263
     26  C10      185.4710  121.1900   31.8490 C.3   3001  2NH3001     0.0297
     27  C11      184.1910  120.3680   31.9070 C.2   3001  2NH3001    -0.0342
     28  C12      183.1360  120.5850   31.1050 C.2   3001  2NH3001    -0.0478
     29  C13      183.1270  121.6840   30.0720 C.3   3001  2NH3001     0.0260
     30  C14      181.9010  119.6910   31.2400 C.3   3001  2NH3001     0.0260
     31  N        190.5430  130.0740   34.9650 N.am  3001  2NH3001    -0.1968
     32  C15      191.7560  130.6320   34.9810 C.2   3001  2NH3001     0.2423
     33  CA       191.8280  132.0780   35.4370 C.3   3001  2NH3001     0.0964
     34  O16      192.7910  130.0270   34.6510 O.2   3001  2NH3001    -0.2733
     35  CB3      188.9310  129.5230   29.9290 C.3   3001  2NH3001     0.0290
     36  CG1      189.0930  130.9920   30.3060 C.3   3001  2NH3001     0.0023
     37  CG2      190.2000  128.9890   29.2850 C.3   3001  2NH3001     0.0023
     38  C22      185.8990  125.4570   29.1010 C.2   3001  2NH3001     0.2620
     39  O23      185.3040  124.4480   28.7230 O.2   3001  2NH3001    -0.2715
     40  N4       186.0050  126.5670   28.3730 N.am  3001  2NH3001    -0.1895
     41  CA5      185.4260  126.7270   27.0380 C.3   3001  2NH3001     0.2203
     42  CB5      183.8750  126.6480   27.0650 C.2   3001  2NH3001     0.0131
     43  CG       183.1130  127.9490   27.3310 C.2   3001  2NH3001     0.0286
     44  SD       181.3030  127.8440   27.2260 S.3   3001  2NH3001    -0.1125
     45  CE       181.0060  128.4700   25.5690 C.3   3001  2NH3001     0.0742
     46  C24      185.9230  128.0460   26.4130 C.2   3001  2NH3001     0.3884
     47  OT1      185.6420  128.2670   25.2240 O.co2 3001  2NH3001    -0.2434
     48  OT2      186.6220  128.8280   27.1010 O.co2 3001  2NH3001    -0.2434
@<TRIPOS>BOND
     1    47    46   ar
     2    45    44    1
     3    46    41    1
     4    46    48   ar
     5    41    42    1
     6    41    40    1
     7    42    43    2
     8    44    43    1
     9    40    38   am
    10    39    38    2
    11    38     5    1
    12    37    35    1
    13    35    36    1
    14    35     9    1
    15    29    28    1
    16     5     6    1
    17     5     3    1
    18     8     7    2
    19     7     6   am
    20     7     9    1
    21    24    23    1
    22    28    30    1
    23    28    27    2
    24     9    10    1
    25     3     2    1
    26     3     4    1
    27    26    27    1
    28    26    25    1
    29     2     1    1
    30    25    23    1
    31    23    22    2
    32    10    11   am
    33    22    21    1
    34    21    20    1
    35    19    18    1
    36    11    12    2
    37    11    13    1
    38    13    31    1
    39    13    14    1
    40    34    32    2
    41    18    20    1
    42    18    17    2
    43    31    32   am
    44    32    33    1
    45    16    17    1
    46    16    15    1
    47    14    15    1
