@<TRIPOS>MOLECULE
1o23_UDP_B_1.pdb
 25 26 0 0 0
SMALL
GASTEIGER

@<TRIPOS>ATOM
      1  N1        -4.8590   21.5280    0.2730 N.am  811  UDP811     -0.1766
      2  C2        -4.2590   22.5330    1.0770 C.1   811  UDP811      0.2845
      3  N3        -4.8350   23.7940    0.9590 N.2   811  UDP811     -0.2452
      4  C4        -5.9310   24.1480    0.1360 C.1   811  UDP811      0.2182
      5  C5        -6.4680   23.0680   -0.6360 C.2   811  UDP811      0.1242
      6  C6        -5.9560   21.8540   -0.5580 C.2   811  UDP811      0.0929
      7  O2        -3.3120   22.2430    1.7920 O.2   811  UDP811     -0.1918
      8  O4        -6.3520   25.2920    0.1160 O.2   811  UDP811     -0.2085
      9  C1'       -4.2690   20.1290    0.3580 C.3   811  UDP811      0.2401
     10  C2'       -4.5840   19.2310    1.5250 C.3   811  UDP811      0.2319
     11  O2'       -3.4650   18.3900    1.9320 O.3   811  UDP811     -0.2157
     12  C3'       -5.7700   18.4580    0.9790 C.3   811  UDP811      0.2158
     13  C4'       -5.4080   18.2120   -0.4630 C.3   811  UDP811      0.1799
     14  O4'       -4.7690   19.4700   -0.7950 O.3   811  UDP811     -0.3320
     15  O3'       -6.0120   17.2240    1.6460 O.3   811  UDP811     -0.2175
     16  C5'       -6.6230   17.8850   -1.3150 C.3   811  UDP811      0.1813
     17  O5'       -6.6440   16.7110   -2.1410 O.3   811  UDP811     -0.3111
     18  PA        -7.9060   16.3160   -3.0480 P.3   811  UDP811      0.2231
     19  O1A       -7.5050   15.3060   -4.0610 O.2   811  UDP811     -0.5169
     20  O2A       -8.7180   17.4540   -3.5950 O.3   811  UDP811     -0.4370
     21  O3A       -8.8000   15.6300   -1.8180 O.3   811  UDP811     -0.2261
     22  PB       -10.0100   14.6320   -1.9130 P.3   811  UDP811      0.5373
     23  O1B      -10.3020   14.4490   -0.3380 O.3   811  UDP811     -0.1143
     24  O2B      -11.1210   15.4210   -2.5470 O.3   811  UDP811     -0.1143
     25  O3B       -9.7160   13.5360   -2.8910 O.2   811  UDP811     -0.2221
@<TRIPOS>BOND
     1    19    18    2
     2    20    18    1
     3    18    17    1
     4    18    21    1
     5    25    22    2
     6    24    22    1
     7    17    16    1
     8    22    21    1
     9    22    23    1
    10    16    13    1
    11    14    13    1
    12    14     9    1
    13     5     6    2
    14     5     4    1
    15     6     1    1
    16    13    12    1
    17     8     4    2
    18     4     3    2
    19     1     9    1
    20     1     2   am
    21     9    10    1
    22     3     2    2
    23    12    10    1
    24    12    15    1
    25     2     7    2
    26    10    11    1
