@<TRIPOS>MOLECULE
1o23_GUD_B_1.pdb
 36 38 0 0 0
SMALL
GASTEIGER

@<TRIPOS>ATOM
      1  N1       -11.6520   17.5930  -17.3500 N.am  809  GUD809     -0.1766
      2  C2       -11.3160   17.0400  -16.1020 C.1   809  GUD809      0.2845
      3  N3       -11.0890   15.6870  -16.1030 N.2   809  GUD809     -0.2452
      4  C4       -11.1620   14.8230  -17.1960 C.1   809  GUD809      0.2182
      5  C5       -11.5040   15.4650  -18.4320 C.2   809  GUD809      0.1242
      6  C6       -11.7280   16.7630  -18.4810 C.2   809  GUD809      0.0929
      7  O2       -11.2520   17.7670  -15.1200 O.2   809  GUD809     -0.1918
      8  O4       -10.9440   13.6260  -17.0520 O.2   809  GUD809     -0.2085
      9  C1D      -11.9190   19.0910  -17.3770 C.3   809  GUD809      0.2401
     10  C2D      -10.7710   20.0370  -17.2230 C.3   809  GUD809      0.2319
     11  O2D      -11.1300   21.2930  -16.6180 O.3   809  GUD809     -0.2157
     12  C3D      -10.3610   20.1650  -18.6260 C.3   809  GUD809      0.2158
     13  C4D      -11.6880   20.3130  -19.3790 C.3   809  GUD809      0.1799
     14  O4D      -12.4560   19.3190  -18.6650 O.3   809  GUD809     -0.3320
     15  O3D       -9.4930   21.2430  -18.8570 O.3   809  GUD809     -0.2175
     16  C5D      -11.4720   19.9870  -20.8240 C.3   809  GUD809      0.1813
     17  O5D      -10.8120   18.7310  -21.0830 O.3   809  GUD809     -0.3112
     18  PA        -9.4440   18.6490  -21.8600 P.3   809  GUD809      0.2189
     19  O1A       -8.4170   19.3250  -21.0480 O.3   809  GUD809     -0.4371
     20  O2A       -9.0510   17.3280  -22.4300 O.2   809  GUD809     -0.5170
     21  O3A       -9.8840   19.6470  -23.1010 O.3   809  GUD809     -0.2703
     22  PB        -9.0940   20.2740  -24.2630 P.3   809  GUD809      0.2208
     23  O1B       -9.2880   19.2310  -25.4120 O.2   809  GUD809     -0.5170
     24  O2B       -7.6700   20.2330  -23.8390 O.3   809  GUD809     -0.4371
     25  O3B       -9.4030   21.7490  -24.2110 O.3   809  GUD809     -0.2857
     26  C1'      -10.1360   22.5500  -25.1690 C.3   809  GUD809      0.2742
     27  C2'      -11.0180   23.6060  -24.3580 C.3   809  GUD809      0.2409
     28  C3'      -12.1620   22.8490  -23.6760 C.3   809  GUD809      0.2198
     29  C4'      -12.9140   22.2990  -24.8560 C.3   809  GUD809      0.2144
     30  C5'      -12.2210   21.2150  -25.6260 C.3   809  GUD809      0.1835
     31  C6'      -12.7230   21.0200  -27.0430 C.3   809  GUD809      0.2142
     32  O2'      -10.2980   24.2940  -23.3360 O.3   809  GUD809     -0.2149
     33  O3'      -13.0720   23.7690  -23.0720 O.3   809  GUD809     -0.2174
     34  O4'      -14.2760   22.2370  -24.9370 O.3   809  GUD809     -0.2176
     35  O5'      -10.9900   21.8550  -26.1680 O.3   809  GUD809     -0.3254
     36  O6'      -12.8460   22.2050  -27.8310 O.3   809  GUD809     -0.2176
@<TRIPOS>BOND
     1    36    31    1
     2    31    30    1
     3    35    30    1
     4    35    26    1
     5    30    29    1
     6    23    22    2
     7    26    27    1
     8    26    25    1
     9    34    29    1
    10    29    28    1
    11    27    28    1
    12    27    32    1
    13    22    25    1
    14    22    24    1
    15    22    21    1
    16    28    33    1
    17    21    18    1
    18    20    18    2
    19    18    17    1
    20    18    19    1
    21    17    16    1
    22    16    13    1
    23    13    14    1
    24    13    12    1
    25    15    12    1
    26    14     9    1
    27    12    10    1
    28     6     5    2
    29     6     1    1
    30     5     4    1
    31     9     1    1
    32     9    10    1
    33     1     2   am
    34    10    11    1
    35     4     8    2
    36     4     3    2
    37     3     2    2
    38     2     7    2
