@<TRIPOS>MOLECULE
1o25_UMP_A_1.pdb
 20 21 0 0 0
SMALL
GASTEIGER

@<TRIPOS>ATOM
      1  N1        43.6710   52.6870  129.2170 N.am  603  UMP603     -0.1790
      2  C2        43.8390   51.2340  129.3040 C.1   603  UMP603      0.2844
      3  N3        45.0280   50.8360  129.9530 N.2   603  UMP603     -0.2452
      4  C4        46.0370   51.6680  130.5080 C.1   603  UMP603      0.2182
      5  C5        45.8080   53.0820  130.3900 C.2   603  UMP603      0.1242
      6  C6        44.6930   53.5240  129.7810 C.2   603  UMP603      0.0928
      7  O2        43.0470   50.4020  128.8650 O.2   603  UMP603     -0.1918
      8  O4        47.0150   51.1680  131.0400 O.2   603  UMP603     -0.2085
      9  C1'       42.4780   53.2850  128.5460 C.3   603  UMP603      0.2090
     10  C2'       41.5460   52.9130  129.7230 C.3   603  UMP603      0.0874
     11  C3'       40.5020   54.1060  129.7080 C.3   603  UMP603      0.1857
     12  C4'       41.3100   55.3790  129.4000 C.3   603  UMP603      0.1774
     13  O3'       39.5850   53.8990  128.6170 O.3   603  UMP603     -0.2203
     14  O4'       42.3620   54.7990  128.4870 O.3   603  UMP603     -0.3339
     15  C5'       41.9620   56.0260  130.6600 C.3   603  UMP603      0.1858
     16  O5'       42.4450   54.9990  131.5780 O.3   603  UMP603     -0.2675
     17  P         43.1720   55.2580  132.9490 P.3   603  UMP603      0.5327
     18  OP1       43.1880   53.9790  133.7000 O.3   603  UMP603     -0.1145
     19  OP2       44.5470   55.6680  132.6860 O.2   603  UMP603     -0.2224
     20  OP3       42.5060   56.2900  133.7540 O.3   603  UMP603     -0.1145
@<TRIPOS>BOND
     1    14     9    1
     2    14    12    1
     3     9     1    1
     4     9    10    1
     5    13    11    1
     6     7     2    2
     7     1     2   am
     8     1     6    1
     9     2     3    2
    10    12    11    1
    11    12    15    1
    12    11    10    1
    13     6     5    2
    14     3     4    2
    15     5     4    1
    16     4     8    2
    17    15    16    1
    18    16    17    1
    19    19    17    2
    20    17    18    1
    21    17    20    1
