@<TRIPOS>MOLECULE
1o26_UMP_A_1.pdb
 20 21 0 0 0
SMALL
GASTEIGER

@<TRIPOS>ATOM
      1  N1        44.1810   53.1580  129.5020 N.am  603  UMP603     -0.1790
      2  C2        44.3890   51.7250  129.4970 C.1   603  UMP603      0.2844
      3  N3        45.5440   51.3030  130.1890 N.2   603  UMP603     -0.2452
      4  C4        46.4890   52.1200  130.8730 C.1   603  UMP603      0.2182
      5  C5        46.2220   53.5300  130.8430 C.2   603  UMP603      0.1242
      6  C6        45.1350   53.9860  130.1900 C.2   603  UMP603      0.0928
      7  O2        43.6590   50.9320  128.9370 O.2   603  UMP603     -0.1918
      8  O4        47.4600   51.6040  131.4290 O.2   603  UMP603     -0.2085
      9  C1'       43.0110   53.7430  128.7750 C.3   603  UMP603      0.2090
     10  C2'       41.9600   53.3060  129.8340 C.3   603  UMP603      0.0874
     11  C3'       40.9660   54.5630  129.8810 C.3   603  UMP603      0.1857
     12  C4'       41.8110   55.8080  129.6080 C.3   603  UMP603      0.1774
     13  O3'       40.0170   54.4730  128.7870 O.3   603  UMP603     -0.2203
     14  O4'       42.8800   55.2280  128.7710 O.3   603  UMP603     -0.3339
     15  C5'       42.4440   56.4400  130.8530 C.3   603  UMP603      0.1858
     16  O5'       42.9440   55.4020  131.7210 O.3   603  UMP603     -0.2675
     17  P         43.6840   55.7100  133.0830 P.3   603  UMP603      0.5327
     18  OP1       43.6860   54.4480  133.8660 O.3   603  UMP603     -0.1145
     19  OP2       45.0510   56.1070  132.7800 O.2   603  UMP603     -0.2224
     20  OP3       42.9990   56.7850  133.7980 O.3   603  UMP603     -0.1145
@<TRIPOS>BOND
     1    14     9    1
     2    14    12    1
     3     9     1    1
     4     9    10    1
     5    13    11    1
     6     7     2    2
     7     2     1   am
     8     2     3    2
     9     1     6    1
    10    12    11    1
    11    12    15    1
    12    10    11    1
    13     3     4    2
    14     6     5    2
    15     5     4    1
    16    15    16    1
    17     4     8    2
    18    16    17    1
    19    19    17    2
    20    17    20    1
    21    17    18    1
