@<TRIPOS>MOLECULE
1o27_BRU_A_1.pdb
 21 22 0 0 0
SMALL
GASTEIGER

@<TRIPOS>ATOM
      1  N1        43.2970   52.4800  128.3090 N.am  603  BRU603     -0.1786
      2  C2        43.4770   51.0280  128.5300 C.1   603  BRU603      0.2845
      3  N3        44.7190   50.6930  129.1090 N.2   603  BRU603     -0.2447
      4  C4        45.7870   51.5680  129.4810 C.1   603  BRU603      0.2238
      5  C5        45.5580   52.9810  129.2200 C.2   603  BRU603      0.1452
      6  C6        44.3810   53.3560  128.6810 C.2   603  BRU603      0.0988
      7  O2        42.6590   50.1600  128.2530 O.2   603  BRU603     -0.1918
      8  O4        46.8110   51.1020  129.9650 O.2   603  BRU603     -0.2080
      9 BR         47.0030   54.1690  129.6420 Br    603  BRU603     -0.0340
     10  C1'       42.0450   53.0500  127.7000 C.3   603  BRU603      0.2090
     11  C2'       41.0820   52.7870  128.9290 C.3   603  BRU603      0.0874
     12  C3'       40.1390   54.0590  128.8920 C.3   603  BRU603      0.1857
     13  C4'       41.0130   55.2450  128.4530 C.3   603  BRU603      0.1774
     14  O3'       39.1450   53.8800  127.8920 O.3   603  BRU603     -0.2203
     15  O4'       41.9750   54.5430  127.5330 O.3   603  BRU603     -0.3339
     16  C5'       41.7730   55.9350  129.6360 C.3   603  BRU603      0.1858
     17  O5'       42.2430   54.9380  130.6000 O.3   603  BRU603     -0.2675
     18  P         43.0350   55.2260  131.9070 P.3   603  BRU603      0.5327
     19  OP1       43.0260   53.9740  132.7090 O.3   603  BRU603     -0.1145
     20  OP2       44.4150   55.5690  131.5770 O.2   603  BRU603     -0.2224
     21  OP3       42.4270   56.3150  132.6830 O.3   603  BRU603     -0.1145
@<TRIPOS>BOND
     1    15    10    1
     2    15    13    1
     3    10     1    1
     4    10    11    1
     5    14    12    1
     6     7     2    2
     7     1     2   am
     8     1     6    1
     9    13    12    1
    10    13    16    1
    11     2     3    2
    12     6     5    2
    13    12    11    1
    14     3     4    2
    15     5     4    1
    16     5     9    1
    17     4     8    2
    18    16    17    1
    19    17    18    1
    20    20    18    2
    21    18    21    1
    22    18    19    1
