@<TRIPOS>MOLECULE
1o28_UFP_A_1.pdb
 21 22 0 0 0
SMALL
GASTEIGER

@<TRIPOS>ATOM
      1  N1        43.3650   52.6270  128.7840 N.am  703  UFP703     -0.1768
      2  C2        43.5640   51.1390  128.8830 C.1   703  UFP703      0.2846
      3  N3        44.8150   50.7590  129.4400 N.2   703  UFP703     -0.2430
      4  C4        45.8710   51.6150  129.9020 C.1   703  UFP703      0.2454
      5  C5        45.6150   53.1090  129.7770 C.2   703  UFP703      0.2499
      6  C6        44.4350   53.5100  129.2510 C.2   703  UFP703      0.1221
      7  O2        42.7520   50.2900  128.5260 O.2   703  UFP703     -0.1918
      8  O4        46.8860   51.1350  130.3540 O.2   703  UFP703     -0.2062
      9  F5        46.5600   54.0010  130.1870 F     703  UFP703     -0.1891
     10  C1'       42.0970   53.2060  128.2160 C.3   703  UFP703      0.2091
     11  C2'       40.8800   52.8160  129.1620 C.3   703  UFP703      0.0874
     12  C3'       39.9610   54.0980  129.1140 C.3   703  UFP703      0.1857
     13  C4'       40.8830   55.3130  128.9330 C.3   703  UFP703      0.1774
     14  O3'       39.1200   54.0410  127.9740 O.3   703  UFP703     -0.2203
     15  O4'       42.0050   54.7020  128.1500 O.3   703  UFP703     -0.3339
     16  C5'       41.4400   55.9140  130.2760 C.3   703  UFP703      0.1858
     17  O5'       42.2140   54.9230  131.0300 O.3   703  UFP703     -0.2675
     18  P         42.9310   55.1930  132.3680 P.3   703  UFP703      0.5327
     19  O1P       42.9220   53.9320  133.1710 O.3   703  UFP703     -0.1145
     20  O2P       44.2990   55.5750  132.0960 O.2   703  UFP703     -0.2224
     21  O3P       42.2790   56.2800  133.1060 O.3   703  UFP703     -0.1145
@<TRIPOS>BOND
     1    14    12    1
     2    15    10    1
     3    15    13    1
     4    10     1    1
     5    10    11    1
     6     7     2    2
     7     1     2   am
     8     1     6    1
     9     2     3    2
    10    13    12    1
    11    13    16    1
    12    12    11    1
    13     6     5    2
    14     3     4    2
    15     5     4    1
    16     5     9    1
    17     4     8    2
    18    16    17    1
    19    17    18    1
    20    20    18    2
    21    18    21    1
    22    18    19    1
