@<TRIPOS>MOLECULE
1o29_UFP_A_1.pdb
 21 22 0 0 0
SMALL
GASTEIGER

@<TRIPOS>ATOM
      1  N1        43.4560   52.7690  129.4180 N.am  803  UFP803     -0.1768
      2  C2        43.6850   51.2920  129.5030 C.1   803  UFP803      0.2846
      3  N3        44.9130   50.9450  130.1340 N.2   803  UFP803     -0.2430
      4  C4        45.9150   51.8300  130.6720 C.1   803  UFP803      0.2454
      5  C5        45.6440   53.2590  130.5560 C.2   803  UFP803      0.2499
      6  C6        44.4880   53.6500  129.9680 C.2   803  UFP803      0.1221
      7  O2        42.9230   50.4290  129.0850 O.2   803  UFP803     -0.1918
      8  O4        46.9080   51.3640  131.1730 O.2   803  UFP803     -0.2062
      9  F5        46.5420   54.1760  131.0240 F     803  UFP803     -0.1891
     10  C1'       42.2120   53.3550  128.7800 C.3   803  UFP803      0.2091
     11  C2'       41.1060   52.9120  129.8310 C.3   803  UFP803      0.0874
     12  C3'       40.1380   54.1570  129.8630 C.3   803  UFP803      0.1857
     13  C4'       41.0040   55.4140  129.6280 C.3   803  UFP803      0.1774
     14  O3'       39.2070   54.0650  128.7800 O.3   803  UFP803     -0.2203
     15  O4'       42.0810   54.8480  128.7390 O.3   803  UFP803     -0.3339
     16  C5'       41.6360   56.0400  130.9440 C.3   803  UFP803      0.1858
     17  O5'       42.3880   55.0520  131.7220 O.3   803  UFP803     -0.2675
     18  P         43.1570   55.3330  133.0490 P.3   803  UFP803      0.5327
     19  O1P       43.1650   54.0690  133.8290 O.3   803  UFP803     -0.1145
     20  O2P       44.5170   55.7210  132.7420 O.2   803  UFP803     -0.2224
     21  O3P       42.5170   56.4100  133.8170 O.3   803  UFP803     -0.1145
@<TRIPOS>BOND
     1    15    10    1
     2    15    13    1
     3    14    12    1
     4    10     1    1
     5    10    11    1
     6     7     2    2
     7     1     2   am
     8     1     6    1
     9     2     3    2
    10    13    12    1
    11    13    16    1
    12    11    12    1
    13     6     5    2
    14     3     4    2
    15     5     4    1
    16     5     9    1
    17     4     8    2
    18    16    17    1
    19    17    18    1
    20    20    18    2
    21    18    21    1
    22    18    19    1
