@<TRIPOS>MOLECULE
1o2d_NAP_A_1.pdb
 48 52 0 0 0
SMALL
GASTEIGER

@<TRIPOS>ATOM
      1  PA        14.6050   48.1930   36.9540 P.3   1800  NAP1800     0.2189
      2  O1A       14.7050   46.9620   36.1050 O.2   1800  NAP1800    -0.5170
      3  O2A       15.6550   48.3720   37.9900 O.3   1800  NAP1800    -0.4371
      4  O5B       14.5220   49.5300   36.0580 O.3   1800  NAP1800    -0.3112
      5  C5B       13.4810   49.7340   35.1220 C.3   1800  NAP1800     0.1813
      6  C4B       13.6970   51.0580   34.4170 C.3   1800  NAP1800     0.1820
      7  O4B       13.3890   52.1230   35.3220 O.3   1800  NAP1800    -0.3136
      8  C3B       15.1250   51.3190   33.9420 C.3   1800  NAP1800     0.2157
      9  O3B       15.0630   51.7490   32.6060 O.3   1800  NAP1800    -0.2175
     10  C2B       15.6630   52.4140   34.8520 C.3   1800  NAP1800     0.2314
     11  O2B       16.5330   53.3390   34.2410 O.3   1800  NAP1800    -0.2630
     12  C1B       14.3860   53.1210   35.2040 C.3   1800  NAP1800     0.3158
     13  N9A       14.3490   53.8250   36.5000 N.pl3 1800  NAP1800    -0.1439
     14  C8A       14.7230   53.3360   37.7190 C.3   1800  NAP1800     0.3377
     15  N7A       14.4420   54.2800   38.6550 N.2   1800  NAP1800    -0.2095
     16  C5A       13.8600   55.3370   38.0280 C.2   1800  NAP1800     0.2526
     17  C6A       13.4050   56.5770   38.5010 C.2   1800  NAP1800     0.4393
     18  N6A       13.2930   56.8830   39.8120 N.pl3 1800  NAP1800     0.2180
     19  N1A       12.9080   57.4550   37.5680 N.2   1800  NAP1800     0.0021
     20  C2A       12.8880   57.1820   36.2220 C.3   1800  NAP1800     0.5254
     21  N3A       13.3070   55.9620   35.7640 N.2   1800  NAP1800    -0.0055
     22  C4A       13.8220   55.0740   36.6640 C.2   1800  NAP1800     0.3518
     23  O3        13.0840   48.2410   37.5400 O.3   1800  NAP1800    -0.2703
     24  PN        12.4550   47.5650   38.8530 P.3   1800  NAP1800     0.2189
     25  O1N       12.7050   48.4700   39.9880 O.3   1800  NAP1800    -0.4371
     26  O2N       11.0700   47.2620   38.4780 O.2   1800  NAP1800    -0.5170
     27  O5D       13.2790   46.2230   39.0520 O.3   1800  NAP1800    -0.3112
     28  C5D       12.9800   45.0880   38.2560 C.3   1800  NAP1800     0.1813
     29  C4D       13.9870   43.9960   38.5480 C.3   1800  NAP1800     0.1799
     30  O4D       13.8740   43.6280   39.9090 O.3   1800  NAP1800    -0.3327
     31  C3D       13.7140   42.7310   37.7230 C.3   1800  NAP1800     0.2158
     32  O3D       14.9240   42.1310   37.2840 O.3   1800  NAP1800    -0.2175
     33  C2D       12.9910   41.8540   38.7150 C.3   1800  NAP1800     0.2309
     34  O2D       13.0340   40.4470   38.4650 O.3   1800  NAP1800    -0.2158
     35  C1D       13.6780   42.2270   40.0220 C.3   1800  NAP1800     0.2263
     36  N1N       12.9560   41.8620   41.2690 N.pl3 1800  NAP1800    -0.2787
     37  C2N       13.7010   41.5270   42.3650 C.3   1800  NAP1800     0.1244
     38  C3N       13.0960   41.1140   43.5500 C.2   1800  NAP1800     0.0544
     39  C7N       13.9260   40.8930   44.7760 C.2   1800  NAP1800     0.2818
     40  O7N       13.3830   40.5190   46.0030 O.2   1800  NAP1800    -0.2670
     41  N7N       15.2280   41.0980   44.7220 N.am  1800  NAP1800    -0.0839
     42  C4N       11.6980   41.1040   43.6360 C.2   1800  NAP1800     0.0033
     43  C5N       10.9400   41.4930   42.5240 C.2   1800  NAP1800     0.0157
     44  C6N       11.5930   41.8190   41.3400 C.2   1800  NAP1800     0.0633
     45  P2B       18.1170   53.1690   34.3970 P.3   1800  NAP1800     0.5328
     46  O1X       18.4940   51.8110   33.9310 O.3   1800  NAP1800    -0.1145
     47  O2X       18.6550   54.2860   33.4980 O.2   1800  NAP1800    -0.2224
     48  O3X       18.4660   53.3760   35.8800 O.3   1800  NAP1800    -0.1145
@<TRIPOS>BOND
     1     9     8    1
     2    47    45    2
     3    46    45    1
     4     8     6    1
     5     8    10    1
     6    11    45    1
     7    11    10    1
     8    45    48    1
     9     6     5    1
    10     6     7    1
    11    10    12    1
    12     5     4    1
    13    12     7    1
    14    12    13    1
    15    21    20    1
    16    21    22    2
    17     4     1    1
    18     2     1    2
    19    20    19    1
    20    13    22    1
    21    13    14    1
    22    22    16    1
    23     1    23    1
    24     1     3    1
    25    32    31    1
    26    23    24    1
    27    19    17    2
    28    14    15    1
    29    31    29    1
    30    31    33    1
    31    16    17    1
    32    16    15    2
    33    28    29    1
    34    28    27    1
    35    34    33    1
    36    26    24    2
    37    17    18    1
    38    29    30    1
    39    33    35    1
    40    24    27    1
    41    24    25    1
    42    30    35    1
    43    35    36    1
    44    36    44    1
    45    36    37    1
    46    44    43    2
    47    37    38    1
    48    43    42    1
    49    38    42    2
    50    38    39    1
    51    41    39   am
    52    39    40    2
