@<TRIPOS>MOLECULE
1o2e_ANN_A_1.pdb
 11 11 0 0 0
SMALL
GASTEIGER

@<TRIPOS>ATOM
      1  C8        30.2770   -1.2140   67.8270 C.3   401  ANN401      0.2525
      2  O3        29.5250   -0.3910   66.8840 O.3   401  ANN401     -0.4714
      3  C5        29.8450    0.9180   66.7180 C.ar  401  ANN401      0.1387
      4  C6        30.8610    1.6420   67.3620 C.ar  401  ANN401      0.0371
      5  C7        31.0470    3.0090   67.0720 C.ar  401  ANN401      0.0097
      6  C2        30.2110    3.7010   66.1230 C.ar  401  ANN401      0.0800
      7  C3        29.2140    2.9230   65.5010 C.ar  401  ANN401      0.0097
      8  C4        29.0110    1.5640   65.7740 C.ar  401  ANN401      0.0371
      9  C1        31.2230    4.6950   65.5400 C.2   401  ANN401      0.3878
     10  O1        30.8440    5.4700   64.6540 O.co2 401  ANN401     -0.2406
     11  O2        32.4440    4.7180   65.9830 O.co2 401  ANN401     -0.2406
@<TRIPOS>BOND
     1    10     9   ar
     2     7     8   ar
     3     7     6   ar
     4     9    11   ar
     5     9     6    1
     6     8     3   ar
     7     6     5   ar
     8     3     2    1
     9     3     4   ar
    10     2     1    1
    11     5     4   ar
