@<TRIPOS>MOLECULE
1o2g_696_H_1.pdb
 42 45 0 0 0
SMALL
GASTEIGER

@<TRIPOS>ATOM
      1  C1        11.5100  -11.6470   22.5770 C.ar  410  696410      0.0615
      2  C2        11.9960  -10.3580   22.1890 C.ar  410  696410     -0.0451
      3  C3        12.8590  -10.2060   21.1080 C.ar  410  696410     -0.0370
      4  C4        13.2380  -11.3410   20.4050 C.ar  410  696410      0.0470
      5  C5        12.7680  -12.5750   20.7860 C.ar  410  696410      0.0011
      6  C6        11.9060  -12.7540   21.8260 C.ar  410  696410     -0.0378
      7  C7        10.6970  -11.7620   23.7050 C.2   410  696410      0.2662
      8  N1         9.9910  -12.8580   23.9020 N.2   410  696410     -0.2884
      9  N2        10.5960  -10.7460   24.5320 N.pl3 410  696410     -0.2497
     10  N3        13.9860  -11.4730   19.3660 N.ar  410  696410     -0.3540
     11  CN4       13.1510  -13.6000   19.8200 C.ar  410  696410     -0.0285
     12  C8        13.9760  -12.7630   19.0070 C.ar  410  696410      0.0512
     13  C1'       14.8490  -13.3090   18.0820 C.ar  410  696410      0.0456
     14  C2'       14.8170  -14.7040   17.8360 C.ar  410  696410     -0.0489
     15  C3'       15.6500  -15.2640   16.8830 C.ar  410  696410     -0.0603
     16  C4'       16.5440  -14.4630   16.1910 C.ar  410  696410     -0.0503
     17  C5'       16.6460  -13.0830   16.4510 C.ar  410  696410      0.0295
     18  C6'       15.7820  -12.5170   17.4160 C.ar  410  696410      0.1957
     19  O6'       15.7850  -11.1630   17.6660 O.3   410  696410     -0.2866
     20  C1B       17.6360  -12.3600   15.7350 C.ar  410  696410     -0.0142
     21  C2B       17.3410  -11.2050   15.0030 C.ar  410  696410     -0.0539
     22  C3B       18.3400  -10.5460   14.2720 C.ar  410  696410     -0.0612
     23  C4B       19.6550  -11.0370   14.2590 C.ar  410  696410     -0.0617
     24  C5B       19.9650  -12.1780   14.9970 C.ar  410  696410     -0.0612
     25  C6B       18.9680  -12.8340   15.7260 C.ar  410  696410     -0.0539
     26  H2        11.6380   -9.4790   22.6940 H     410  696410      0.0627
     27  H3        13.1290   -9.2250   20.7370 H     410  696410      0.0638
     28  H6        11.6770  -13.7670   22.1550 H     410  696410      0.0632
     29 HH11       10.0730  -13.6170   23.2550 H     410  696410      0.3009
     30 HH12        9.3650  -12.9790   24.6720 H     410  696410      0.3009
     31 HH21       11.1630   -9.9480   24.3690 H     410  696410      0.2883
     32 HH22        9.9990  -10.7430   25.3330 H     410  696410      0.2883
     33  HN3       14.4430  -10.7910   18.8650 H     410  696410      0.1659
     34  HN4       12.6020  -14.4340   19.3400 H     410  696410      0.0645
     35  H2'       14.1180  -15.3450   18.3520 H     410  696410      0.0625
     36  H3'       15.5990  -16.3230   16.6710 H     410  696410      0.0618
     37  H4'       17.1950  -14.9250   15.4630 H     410  696410      0.0625
     38  H2B       16.3400  -10.8180   15.0050 H     410  696410      0.0624
     39  H3B       18.0930   -9.6560   13.7070 H     410  696410      0.0618
     40  H4B       20.4200  -10.5260   13.6900 H     410  696410      0.0618
     41  H5B       20.9740  -12.5640   15.0000 H     410  696410      0.0618
     42  H6B       19.2360  -13.7150   16.2880 H     410  696410      0.0624
@<TRIPOS>BOND
     1    40    23    1
     2    39    22    1
     3    23    22   ar
     4    23    24   ar
     5    22    21   ar
     6    24    41    1
     7    24    25   ar
     8    21    38    1
     9    21    20   ar
    10    37    16    1
    11    25    20   ar
    12    25    42    1
    13    20    17    1
    14    16    17   ar
    15    16    15   ar
    16    17    18   ar
    17    36    15    1
    18    15    14   ar
    19    18    19    1
    20    18    13   ar
    21    14    13   ar
    22    14    35    1
    23    13    12    1
    24    33    10    1
    25    12    10   ar
    26    12    11   ar
    27    34    11    1
    28    10     4   ar
    29    11     5   ar
    30     4     5   ar
    31     4     3   ar
    32    27     3    1
    33     5     6   ar
    34     3     2   ar
    35     6    28    1
    36     6     1   ar
    37     2     1   ar
    38     2    26    1
    39     1     7    1
    40    29     8    1
    41     7     8    2
    42     7     9    1
    43     8    30    1
    44    31     9    1
    45     9    32    1
