@<TRIPOS>MOLECULE
1o2h_CR3_A_1.pdb
 46 49 0 0 0
SMALL
GASTEIGER

@<TRIPOS>ATOM
      1  C1        44.1400   -3.1040   25.9440 C.ar  246  CR3246      0.0615
      2  C2        44.5190   -1.7550   25.9650 C.ar  246  CR3246     -0.0451
      3  C3        44.4780   -1.0230   27.1310 C.ar  246  CR3246     -0.0370
      4  C4        44.0620   -1.6440   28.2700 C.ar  246  CR3246      0.0470
      5  C5        43.6940   -2.9320   28.3020 C.ar  246  CR3246      0.0011
      6  C6        43.7190   -3.7100   27.1470 C.ar  246  CR3246     -0.0378
      7  C7        44.1870   -3.7960   24.7220 C.2   246  CR3246      0.2662
      8  N1        43.7630   -5.0340   24.6370 N.pl3 246  CR3246     -0.2497
      9  N2        44.6520   -3.1710   23.6660 N.2   246  CR3246     -0.2884
     10  N3        43.9310   -1.1950   29.4660 N.ar  246  CR3246     -0.3540
     11  CN4       43.3260   -3.2990   29.5100 C.ar  246  CR3246     -0.0285
     12  C8        43.4970   -2.1720   30.2060 C.ar  246  CR3246      0.0513
     13  C1'       43.2730   -2.0230   31.5870 C.ar  246  CR3246      0.0486
     14  C2'       42.9380   -3.1330   32.3600 C.ar  246  CR3246     -0.0487
     15  C3'       42.7530   -3.0090   33.7340 C.ar  246  CR3246     -0.0574
     16  C4'       42.9010   -1.7850   34.3510 C.ar  246  CR3246     -0.0161
     17  C5'       43.2380   -0.6650   33.6030 C.ar  246  CR3246      0.1680
     18  O5'       43.4200    0.5850   34.1790 O.3   246  CR3246     -0.4850
     19  C6'       43.4190   -0.7770   32.2330 C.ar  246  CR3246      0.2293
     20  O6'       43.7230    0.3890   31.5520 O.3   246  CR3246     -0.2833
     21  C1B       43.2820    2.3340   35.7960 C.3   246  CR3246     -0.0158
     22  C2B       43.6090    0.8510   35.5750 C.3   246  CR3246      0.1004
     23  C3B       45.1250    0.7100   35.8680 C.3   246  CR3246     -0.0158
     24  C4B       45.5920    2.0560   36.4380 C.3   246  CR3246     -0.0496
     25  C5B       44.3290    2.8400   36.7720 C.3   246  CR3246     -0.0496
     26  HC2       44.8570   -1.2520   25.0780 H     246  CR3246      0.0627
     27  HC3       44.7720    0.0140   27.1510 H     246  CR3246      0.0638
     28  HC6       43.4230   -4.7480   27.1780 H     246  CR3246      0.0632
     29 HH11       43.4400   -5.5020   25.4720 H     246  CR3246      0.2883
     30 HH12       43.7830   -5.5920   23.8100 H     246  CR3246      0.2883
     31 HH21       45.0030   -2.2290   23.7470 H     246  CR3246      0.3009
     32 HH22       44.7560   -3.6130   22.7800 H     246  CR3246      0.3009
     33  HN3       44.1250   -0.2970   29.8230 H     246  CR3246      0.1659
     34 HCN4       42.9920   -4.2180   29.8350 H     246  CR3246      0.0645
     35 HC2'       42.8220   -4.0990   31.8930 H     246  CR3246      0.0625
     36 HC3'       42.4910   -3.8730   34.3270 H     246  CR3246      0.0619
     37 HC4'       42.7590   -1.7200   35.4170 H     246  CR3246      0.0655
     38  H1A       43.3760    2.8930   34.8780 H     246  CR3246      0.0301
     39  H1B       42.2930    2.4480   36.2080 H     246  CR3246      0.0301
     40  H2A       43.0120    0.2030   36.1930 H     246  CR3246      0.0733
     41  H3A       45.3040   -0.0720   36.5950 H     246  CR3246      0.0301
     42  H3B       45.6940    0.4800   34.9770 H     246  CR3246      0.0301
     43  H4A       46.2230    2.5800   35.7330 H     246  CR3246      0.0266
     44  H4B       46.1570    1.8800   37.3350 H     246  CR3246      0.0266
     45  H5A       44.5090    3.8950   36.6640 H     246  CR3246      0.0266
     46  H5B       44.0430    2.6280   37.7930 H     246  CR3246      0.0266
@<TRIPOS>BOND
     1    32     9    1
     2     9    31    1
     3     9     7    2
     4    30     8    1
     5     8     7    1
     6     8    29    1
     7     7     1    1
     8    26     2    1
     9     1     2   ar
    10     1     6   ar
    11     2     3   ar
    12     3    27    1
    13     3     4   ar
    14     6    28    1
    15     6     5   ar
    16     4     5   ar
    17     4    10   ar
    18     5    11   ar
    19    10    33    1
    20    10    12   ar
    21    11    34    1
    22    11    12   ar
    23    12    13    1
    24    20    19    1
    25    13    19   ar
    26    13    14   ar
    27    35    14    1
    28    19    17   ar
    29    14    15   ar
    30    17    18    1
    31    17    16   ar
    32    15    36    1
    33    15    16   ar
    34    18    22    1
    35    16    37    1
    36    38    21    1
    37    42    23    1
    38    22    21    1
    39    22    23    1
    40    22    40    1
    41    43    24    1
    42    21    39    1
    43    21    25    1
    44    23    24    1
    45    23    41    1
    46    24    25    1
    47    24    44    1
    48    45    25    1
    49    25    46    1
