@<TRIPOS>MOLECULE
1o2i_655_A_1.pdb
 45 48 0 0 0
SMALL
GASTEIGER

@<TRIPOS>ATOM
      1  C1        44.2910   -2.8800   26.6770 C.2   246  655246      0.0493
      2  C2        44.8730   -1.5600   26.6540 C.2   246  655246     -0.0485
      3  C3        44.8730   -0.7700   27.7870 C.2   246  655246     -0.0372
      4  C4        44.3550   -1.2920   28.9330 C.2   246  655246      0.0674
      5  C5        43.8270   -2.5370   29.0070 C.2   246  655246      0.1232
      6  C6        43.7740   -3.3660   27.8810 C.3   246  655246      0.0604
      7  C7        44.3180   -3.6710   25.4940 C.2   246  655246      0.2628
      8  N1        44.1780   -4.9710   25.5880 N.pl3 246  655246     -0.2500
      9  N2        44.4910   -3.0690   24.3210 N.2   246  655246     -0.2887
     10  N3        44.2750   -0.7850   30.1160 N.pl3 246  655246     -0.2868
     11  N4        43.3910   -2.8100   30.2220 N.2   246  655246     -0.3899
     12  C8        43.6860   -1.6870   30.8690 C.2   246  655246      0.1859
     13  C1'       43.4100   -1.5280   32.2170 C.ar  246  655246      0.0776
     14  C2'       43.0360   -2.6290   32.9930 C.ar  246  655246     -0.0463
     15  C3'       42.7500   -2.5050   34.3370 C.ar  246  655246     -0.0574
     16  C4'       42.8480   -1.2520   34.9300 C.ar  246  655246     -0.0161
     17  C5'       43.2120   -0.1220   34.1560 C.ar  246  655246      0.1681
     18  O5'       43.3400    1.1490   34.6740 O.3   246  655246     -0.4850
     19  C6'       43.4950   -0.2770   32.8010 C.ar  246  655246      0.2317
     20  O6'       43.8480    0.7960   32.0070 O.3   246  655246     -0.2832
     21  C1B       42.3420    2.7680   35.8540 C.3   246  655246     -0.0158
     22  C2B       43.0050    1.4420   36.0250 C.3   246  655246      0.1004
     23  C3B       44.2740    1.6870   36.7960 C.3   246  655246     -0.0158
     24  C4B       44.5750    3.1660   36.5730 C.3   246  655246     -0.0496
     25  C5B       43.1880    3.7500   36.6150 C.3   246  655246     -0.0496
     26  HC2       45.2750   -1.1510   25.7310 H     246  655246      0.0624
     27  HC3       45.3070    0.2100   27.7790 H     246  655246      0.0637
     28  HC6       43.3380   -4.3510   27.9360 H     246  655246      0.0436
     29 HH11       44.0310   -5.3970   26.4860 H     246  655246      0.2883
     30 HH12       44.1460   -5.5770   24.8130 H     246  655246      0.2883
     31 HH21       44.5800   -2.0580   24.2740 H     246  655246      0.3009
     32 HH22       44.5590   -3.5500   23.4510 H     246  655246      0.3009
     33  HN3       44.5860    0.1140   30.3250 H     246  655246      0.1546
     34 HC2'       42.9640   -3.6010   32.5340 H     246  655246      0.0626
     35 HC3'       42.4600   -3.3750   34.9150 H     246  655246      0.0619
     36 HC4'       42.6300   -1.1830   35.9830 H     246  655246      0.0655
     37  H1A       42.3630    3.0490   34.8190 H     246  655246      0.0301
     38  H1B       41.3140    2.7360   36.2030 H     246  655246      0.0301
     39  H2A       42.3680    0.7070   36.4970 H     246  655246      0.0733
     40  H3A       44.0570    1.5820   37.8410 H     246  655246      0.0301
     41  H3B       45.0290    0.9800   36.4980 H     246  655246      0.0301
     42  H4A       45.0040    3.3570   35.5880 H     246  655246      0.0266
     43  H4B       45.2180    3.5870   37.3260 H     246  655246      0.0266
     44  H5A       43.1140    4.7080   36.1350 H     246  655246      0.0266
     45  H5B       42.8300    3.8070   37.6260 H     246  655246      0.0266
@<TRIPOS>BOND
     1    32     9    1
     2    31     9    1
     3     9     7    2
     4    30     8    1
     5     7     8    1
     6     7     1    1
     7     8    29    1
     8    26     2    1
     9     2     1    2
    10     2     3    1
    11     1     6    1
    12    27     3    1
    13     3     4    2
    14     6    28    1
    15     6     5    1
    16     4     5    1
    17     4    10    1
    18     5    11    2
    19    10    33    1
    20    10    12    1
    21    11    12    2
    22    12    13    1
    23    20    19    1
    24    13    19   ar
    25    13    14   ar
    26    34    14    1
    27    19    17   ar
    28    14    15   ar
    29    17    18    1
    30    17    16   ar
    31    15    35    1
    32    15    16   ar
    33    18    22    1
    34    37    21    1
    35    16    36    1
    36    42    24    1
    37    21    22    1
    38    21    38    1
    39    21    25    1
    40    22    39    1
    41    22    23    1
    42    44    25    1
    43    41    23    1
    44    24    25    1
    45    24    23    1
    46    24    43    1
    47    25    45    1
    48    23    40    1
