@<TRIPOS>MOLECULE
1o2j_656_A_1.pdb
 44 46 0 0 0
SMALL
GASTEIGER

@<TRIPOS>ATOM
      1  C1        44.4610   -3.0870   26.2460 C.2   246  656246      0.0493
      2  C2        44.8400   -1.7260   26.2880 C.2   246  656246     -0.0485
      3  C3        44.8030   -0.9970   27.4770 C.2   246  656246     -0.0372
      4  C4        44.3900   -1.6430   28.6030 C.2   246  656246      0.0674
      5  C5        44.0230   -2.9290   28.6190 C.2   246  656246      0.1232
      6  C6        44.0470   -3.6950   27.4480 C.3   246  656246      0.0604
      7  C7        44.5060   -3.7930   25.0180 C.2   246  656246      0.2628
      8  N1        44.2940   -5.0920   24.9750 N.pl3 246  656246     -0.2500
      9  N2        44.7510   -3.1160   23.9130 N.2   246  656246     -0.2887
     10  N3        44.2630   -1.2310   29.8090 N.pl3 246  656246     -0.2868
     11  N4        43.6650   -3.3360   29.8220 N.2   246  656246     -0.3899
     12  C8        43.8390   -2.2260   30.5160 C.2   246  656246      0.1859
     13  C1'       43.6170   -2.1050   31.8900 C.ar  246  656246      0.0776
     14  C2'       43.2830   -3.2260   32.6440 C.ar  246  656246     -0.0463
     15  C3'       43.0740   -3.1190   34.0150 C.ar  246  656246     -0.0574
     16  C4'       43.1990   -1.8980   34.6380 C.ar  246  656246     -0.0161
     17  C5'       43.5340   -0.7690   33.9010 C.ar  246  656246      0.1677
     18  C6'       43.7390   -0.8670   32.5360 C.ar  246  656246      0.2316
     19  O6'       44.0500    0.2870   31.8360 O.3   246  656246     -0.2832
     20  O5'       43.6980    0.4700   34.4900 O.3   246  656246     -0.4879
     21  C10       43.5500    0.7790   35.8620 C.3   246  656246      0.0921
     22  C20       44.0610    2.2330   36.0550 C.3   246  656246     -0.0124
     23  C30       42.8710    3.0850   36.4270 C.3   246  656246     -0.0596
     24  C40       45.0200    2.2750   37.2680 C.3   246  656246     -0.0596
     25  HC2       45.1700   -1.2150   25.3990 H     246  656246      0.0624
     26  HC3       45.0900    0.0430   27.5140 H     246  656246      0.0637
     27  HC6       43.7480   -4.7330   27.4730 H     246  656246      0.0436
     28 HH11       44.1050   -5.5810   25.8390 H     246  656246      0.2883
     29 HH12       44.2860   -5.6520   24.1530 H     246  656246      0.2883
     30 HH21       44.8670   -2.1130   23.9470 H     246  656246      0.3009
     31 HH22       44.8490   -3.5430   23.0190 H     246  656246      0.3009
     32  HN3       44.4330   -0.3340   30.1970 H     246  656246      0.1546
     33 HC2'       43.1830   -4.1880   32.1610 H     246  656246      0.0626
     34 HC3'       42.8130   -3.9950   34.5920 H     246  656246      0.0619
     35 HC4'       43.0350   -1.8280   35.7030 H     246  656246      0.0655
     36 H10A       42.5070    0.6710   36.1180 H     246  656246      0.0699
     37 H10B       44.1340    0.0720   36.4340 H     246  656246      0.0699
     38  H20       44.5420    2.6190   35.1680 H     246  656246      0.0328
     39 H30A       43.1640    4.1160   36.5580 H     246  656246      0.0233
     40 H30B       42.1170    3.0160   35.6590 H     246  656246      0.0233
     41 H30C       42.4500    2.7220   37.3570 H     246  656246      0.0233
     42 H40A       45.9730    1.8400   37.0030 H     246  656246      0.0233
     43 H40B       45.1800    3.2900   37.6040 H     246  656246      0.0233
     44 H40C       44.6120    1.7090   38.0930 H     246  656246      0.0233
@<TRIPOS>BOND
     1    31     9    1
     2     9    30    1
     3     9     7    2
     4    29     8    1
     5     8     7    1
     6     8    28    1
     7     7     1    1
     8    25     2    1
     9     1     2    2
    10     1     6    1
    11     2     3    1
    12     6    27    1
    13     6     5    1
    14     3    26    1
    15     3     4    2
    16     4     5    1
    17     4    10    1
    18     5    11    2
    19    10    32    1
    20    10    12    1
    21    11    12    2
    22    12    13    1
    23    19    18    1
    24    13    18   ar
    25    13    14   ar
    26    33    14    1
    27    18    17   ar
    28    14    15   ar
    29    17    20    1
    30    17    16   ar
    31    15    34    1
    32    15    16   ar
    33    20    21    1
    34    16    35    1
    35    38    22    1
    36    40    23    1
    37    21    22    1
    38    21    36    1
    39    21    37    1
    40    22    23    1
    41    22    24    1
    42    23    39    1
    43    23    41    1
    44    42    24    1
    45    24    43    1
    46    24    44    1
