@<TRIPOS>MOLECULE
1o2k_656_A_1.pdb
 44 46 0 0 0
SMALL
GASTEIGER

@<TRIPOS>ATOM
      1  C1        44.5180   -3.0730   26.1580 C.2   246  656246      0.0493
      2  C2        44.8650   -1.7100   26.2080 C.2   246  656246     -0.0485
      3  C3        44.8360   -0.9990   27.4010 C.2   246  656246     -0.0372
      4  C4        44.4600   -1.6630   28.5280 C.2   246  656246      0.0674
      5  C5        44.1210   -2.9600   28.5480 C.2   246  656246      0.1232
      6  C6        44.1370   -3.7100   27.3730 C.3   246  656246      0.0604
      7  C7        44.5550   -3.7540   24.9100 C.2   246  656246      0.2628
      8  N1        44.3240   -5.0440   24.8420 N.pl3 246  656246     -0.2500
      9  N2        44.8120   -3.0870   23.8100 N.2   246  656246     -0.2887
     10  N3        44.3480   -1.2540   29.7330 N.pl3 246  656246     -0.2868
     11  N4        43.7970   -3.3830   29.7540 N.2   246  656246     -0.3899
     12  C8        43.9590   -2.2640   30.4520 C.2   246  656246      0.1859
     13  C1'       43.7580   -2.1470   31.8270 C.ar  246  656246      0.0776
     14  C2'       43.3570   -3.2480   32.5640 C.ar  246  656246     -0.0463
     15  C3'       43.1810   -3.1470   33.9330 C.ar  246  656246     -0.0574
     16  C4'       43.4040   -1.9520   34.5810 C.ar  246  656246     -0.0161
     17  C5'       43.8050   -0.8440   33.8640 C.ar  246  656246      0.1677
     18  C6'       43.9770   -0.9380   32.4870 C.ar  246  656246      0.2316
     19  O6'       44.3500    0.1970   31.7890 O.3   246  656246     -0.2832
     20  O5'       44.0840    0.3560   34.5000 O.3   246  656246     -0.4879
     21  C10       43.7120    0.7010   35.8270 C.3   246  656246      0.0921
     22  C20       44.1390    2.1850   36.1070 C.3   246  656246     -0.0124
     23  C30       42.8870    2.9810   36.5420 C.3   246  656246     -0.0596
     24  C40       45.0470    2.2250   37.3350 C.3   246  656246     -0.0596
     25  HC2       45.1650   -1.1900   25.3150 H     246  656246      0.0624
     26  HC3       45.1030    0.0440   27.4460 H     246  656246      0.0637
     27  HC6       43.8640   -4.7540   27.4010 H     246  656246      0.0436
     28 HH11       44.1240   -5.5530   25.6940 H     246  656246      0.2883
     29 HH12       44.3110   -5.5860   24.0070 H     246  656246      0.2883
     30 HH21       44.9550   -2.0880   23.8440 H     246  656246      0.3009
     31 HH22       44.8940   -3.5220   22.9170 H     246  656246      0.3009
     32  HN3       44.5120   -0.3500   30.1080 H     246  656246      0.1546
     33 HC2'       43.1800   -4.1920   32.0680 H     246  656246      0.0626
     34 HC3'       42.8690   -4.0090   34.5040 H     246  656246      0.0619
     35 HC4'       43.2630   -1.8910   35.6490 H     246  656246      0.0655
     36 H10A       42.6410    0.5800   35.9120 H     246  656246      0.0699
     37 H10B       44.1990    0.0220   36.5080 H     246  656246      0.0699
     38  H20       44.6090    2.6460   35.2510 H     246  656246      0.0328
     39 H30A       43.1240    4.0270   36.6920 H     246  656246      0.0233
     40 H30B       42.1180    2.9060   35.7840 H     246  656246      0.0233
     41 H30C       42.4850    2.5850   37.4650 H     246  656246      0.0233
     42 H40A       46.0150    1.8230   37.0890 H     246  656246      0.0233
     43 H40B       45.1630    3.2430   37.6800 H     246  656246      0.0233
     44 H40C       44.6210    1.6410   38.1380 H     246  656246      0.0233
@<TRIPOS>BOND
     1    31     9    1
     2     9    30    1
     3     9     7    2
     4    29     8    1
     5     8     7    1
     6     8    28    1
     7     7     1    1
     8    25     2    1
     9     1     2    2
    10     1     6    1
    11     2     3    1
    12     6    27    1
    13     6     5    1
    14     3    26    1
    15     3     4    2
    16     4     5    1
    17     4    10    1
    18     5    11    2
    19    10    32    1
    20    10    12    1
    21    11    12    2
    22    12    13    1
    23    19    18    1
    24    13    18   ar
    25    13    14   ar
    26    33    14    1
    27    18    17   ar
    28    14    15   ar
    29    17    20    1
    30    17    16   ar
    31    15    34    1
    32    15    16   ar
    33    20    21    1
    34    16    35    1
    35    38    22    1
    36    40    23    1
    37    21    36    1
    38    21    22    1
    39    21    37    1
    40    22    23    1
    41    22    24    1
    42    23    39    1
    43    23    41    1
    44    42    24    1
    45    24    43    1
    46    24    44    1
