@<TRIPOS>MOLECULE
1o2l_762_A_1.pdb
 41 44 0 0 0
SMALL
GASTEIGER

@<TRIPOS>ATOM
      1  C1        44.3240   -3.0430   25.6560 C.2   246  762246      0.0682
      2  C2        44.2490   -1.6280   25.6510 C.3   246  762246      0.1243
      3 CL2        44.1190   -0.5990   24.1860 Cl    246  762246     -0.1057
      4  C3        44.1710   -0.9350   26.8760 C.2   246  762246     -0.0322
      5  C4        44.1540   -1.6630   28.0560 C.2   246  762246      0.0691
      6  C5        44.2240   -2.9920   28.0890 C.2   246  762246      0.1377
      7  C6        44.3170   -3.7170   26.9070 C.2   246  762246     -0.0097
      8  C7        44.4320   -3.7600   24.4240 C.2   246  762246      0.2643
      9  N1        43.9940   -4.9990   24.2600 N.pl3 246  762246     -0.2499
     10  N2        45.0210   -3.1230   23.4490 N.2   246  762246     -0.2887
     11  N3        44.1000   -1.3030   29.2930 N.pl3 246  762246     -0.2867
     12  N4        44.1940   -3.4800   29.3120 N.2   246  762246     -0.3862
     13  C8        44.1090   -2.3700   30.0430 C.2   246  762246      0.1862
     14  C1'       43.9820   -2.2860   31.4680 C.ar  246  762246      0.0745
     15  C2'       43.6250   -3.4170   32.2230 C.ar  246  762246     -0.0465
     16  C3'       43.4290   -3.3150   33.6040 C.ar  246  762246     -0.0603
     17  C4'       43.5870   -2.1110   34.2480 C.ar  246  762246     -0.0503
     18  C5'       43.9550   -0.9660   33.5610 C.ar  246  762246      0.0295
     19  C6'       44.1470   -1.0580   32.1580 C.ar  246  762246      0.1980
     20  O6'       44.4980    0.0360   31.4090 O.3   246  762246     -0.2865
     21  C1B       44.1530    0.2090   34.3250 C.ar  246  762246     -0.0142
     22  C2B       44.9270    0.1200   35.4990 C.ar  246  762246     -0.0539
     23  C3B       45.1690    1.2400   36.3090 C.ar  246  762246     -0.0612
     24  C4B       44.6450    2.4720   35.9610 C.ar  246  762246     -0.0617
     25  C5B       43.8840    2.5790   34.8120 C.ar  246  762246     -0.0612
     26  C6B       43.6350    1.4600   33.9960 C.ar  246  762246     -0.0539
     27  HC3       44.1200    0.1450   26.9010 H     246  762246      0.0613
     28  HC6       44.3590   -4.7930   26.9540 H     246  762246      0.0656
     29 HH11       43.5950   -5.4870   25.0520 H     246  762246      0.2883
     30 HH12       44.0460   -5.5240   23.4140 H     246  762246      0.2883
     31 HH21       45.3340   -2.1810   23.6280 H     246  762246      0.3009
     32 HH22       45.1740   -3.4950   22.5380 H     246  762246      0.3009
     33  HN3       44.0400   -0.3850   29.6770 H     246  762246      0.1546
     34 HC2'       43.4960   -4.3710   31.7400 H     246  762246      0.0626
     35 HC3'       43.1530   -4.1780   34.1840 H     246  762246      0.0618
     36 HC4'       43.4270   -2.0670   35.3140 H     246  762246      0.0625
     37  H2B       45.3530   -0.8300   35.7940 H     246  762246      0.0624
     38  H3B       45.7620    1.1490   37.2130 H     246  762246      0.0618
     39  H4B       44.8260    3.3350   36.5890 H     246  762246      0.0618
     40  H5B       43.4840    3.5490   34.5500 H     246  762246      0.0618
     41  H6B       43.0390    1.5820   33.1030 H     246  762246      0.0624
@<TRIPOS>BOND
     1    32    10    1
     2    30     9    1
     3    10    31    1
     4    10     8    2
     5     3     2    1
     6     9     8    1
     7     9    29    1
     8     8     1    1
     9     2     1    1
    10     2     4    1
    11     1     7    2
    12     4    27    1
    13     4     5    2
    14     7    28    1
    15     7     6    1
    16     5     6    1
    17     5    11    1
    18     6    12    2
    19    11    33    1
    20    11    13    1
    21    12    13    2
    22    13    14    1
    23    20    19    1
    24    14    19   ar
    25    14    15   ar
    26    34    15    1
    27    19    18   ar
    28    15    16   ar
    29    41    26    1
    30    18    17   ar
    31    18    21    1
    32    16    35    1
    33    16    17   ar
    34    26    21   ar
    35    26    25   ar
    36    17    36    1
    37    21    22   ar
    38    40    25    1
    39    25    24   ar
    40    22    37    1
    41    22    23   ar
    42    24    23   ar
    43    24    39    1
    44    23    38    1
