@<TRIPOS>MOLECULE
1o2m_762_A_1.pdb
 41 44 0 0 0
SMALL
GASTEIGER

@<TRIPOS>ATOM
      1  C1        44.0220   -2.9050   25.8020 C.2   246  762246      0.0682
      2  C2        43.9720   -1.4910   25.7320 C.3   246  762246      0.1243
      3 CL2        43.9690   -0.6000   24.1760 Cl    246  762246     -0.1057
      4  C3        43.8820   -0.7350   26.9230 C.2   246  762246     -0.0322
      5  C4        43.8410   -1.4120   28.1270 C.2   246  762246      0.0691
      6  C5        43.8830   -2.7570   28.1970 C.2   246  762246      0.1377
      7  C6        43.9760   -3.5300   27.0400 C.2   246  762246     -0.0097
      8  C7        44.1430   -3.6910   24.6420 C.2   246  762246      0.2643
      9  N1        43.7720   -4.9560   24.6010 N.pl3 246  762246     -0.2499
     10  N2        44.6760   -3.1030   23.6010 N.2   246  762246     -0.2887
     11  N3        43.7750   -1.0200   29.3630 N.pl3 246  762246     -0.2867
     12  N4        43.8440   -3.2150   29.4430 N.2   246  762246     -0.3862
     13  C8        43.7760   -2.0800   30.1300 C.2   246  762246      0.1862
     14  C1'       43.6100   -2.0090   31.5120 C.ar  246  762246      0.0745
     15  C2'       43.2500   -3.1460   32.2350 C.ar  246  762246     -0.0465
     16  C3'       43.0790   -3.0740   33.6210 C.ar  246  762246     -0.0603
     17  C4'       43.2670   -1.8750   34.2890 C.ar  246  762246     -0.0503
     18  C5'       43.6300   -0.7200   33.5870 C.ar  246  762246      0.0295
     19  C6'       43.8030   -0.7850   32.1930 C.ar  246  762246      0.1980
     20  O6'       44.1600    0.3510   31.4800 O.3   246  762246     -0.2865
     21  C1B       43.8250    0.4730   34.2900 C.ar  246  762246     -0.0142
     22  C2B       44.6070    0.4850   35.4520 C.ar  246  762246     -0.0539
     23  C3B       44.8060    1.6770   36.1620 C.ar  246  762246     -0.0612
     24  C4B       44.2300    2.8520   35.7180 C.ar  246  762246     -0.0617
     25  C5B       43.4570    2.8460   34.5710 C.ar  246  762246     -0.0612
     26  C6B       43.2520    1.6650   33.8570 C.ar  246  762246     -0.0539
     27  HC3       43.8450    0.3460   26.9040 H     246  762246      0.0613
     28  HC6       44.0050   -4.6060   27.1080 H     246  762246      0.0656
     29 HH11       43.4180   -5.3990   25.4370 H     246  762246      0.2883
     30 HH12       43.8310   -5.5260   23.7870 H     246  762246      0.2883
     31 HH21       44.9730   -2.1470   23.6940 H     246  762246      0.3009
     32 HH22       44.8420   -3.5250   22.7180 H     246  762246      0.3009
     33  HN3       43.7400   -0.1020   29.7420 H     246  762246      0.1546
     34 HC2'       43.1000   -4.0890   31.7330 H     246  762246      0.0626
     35 HC3'       42.7950   -3.9540   34.1820 H     246  762246      0.0618
     36 HC4'       43.1240   -1.8410   35.3600 H     246  762246      0.0625
     37  H2B       45.0610   -0.4290   35.8100 H     246  762246      0.0624
     38  H3B       45.4080    1.6810   37.0600 H     246  762246      0.0618
     39  H4B       44.3840    3.7710   36.2650 H     246  762246      0.0618
     40  H5B       43.0130    3.7680   34.2240 H     246  762246      0.0618
     41  H6B       42.6450    1.6820   32.9630 H     246  762246      0.0624
@<TRIPOS>BOND
     1    32    10    1
     2    10    31    1
     3    10     8    2
     4    30     9    1
     5     3     2    1
     6     9     8    1
     7     9    29    1
     8     8     1    1
     9     2     1    1
    10     2     4    1
    11     1     7    2
    12    27     4    1
    13     4     5    2
    14     7    28    1
    15     7     6    1
    16     5     6    1
    17     5    11    1
    18     6    12    2
    19    11    33    1
    20    11    13    1
    21    12    13    2
    22    13    14    1
    23    20    19    1
    24    14    19   ar
    25    14    15   ar
    26    34    15    1
    27    19    18   ar
    28    15    16   ar
    29    41    26    1
    30    18    17   ar
    31    18    21    1
    32    16    35    1
    33    16    17   ar
    34    26    21   ar
    35    26    25   ar
    36    40    25    1
    37    17    36    1
    38    21    22   ar
    39    25    24   ar
    40    22    37    1
    41    22    23   ar
    42    24    23   ar
    43    24    39    1
    44    23    38    1
