@<TRIPOS>MOLECULE
1o2n_762_A_1.pdb
 41 44 0 0 0
SMALL
GASTEIGER

@<TRIPOS>ATOM
      1  C1        44.0050   -3.0860   25.8460 C.2   246  762246      0.0682
      2  C2        43.9260   -1.6580   25.7880 C.3   246  762246      0.1243
      3 CL2        43.8690   -0.6970   24.2750 Cl    246  762246     -0.1057
      4  C3        43.8260   -0.9270   26.9940 C.2   246  762246     -0.0322
      5  C4        43.8060   -1.6100   28.2000 C.2   246  762246      0.0691
      6  C5        43.8730   -2.9430   28.2680 C.2   246  762246      0.1377
      7  C6        43.9770   -3.7180   27.1020 C.2   246  762246     -0.0097
      8  C7        44.1440   -3.8730   24.6740 C.2   246  762246      0.2643
      9  N1        43.7440   -5.1240   24.5990 N.pl3 246  762246     -0.2499
     10  N2        44.7180   -3.2880   23.6550 N.2   246  762246     -0.2887
     11  N3        43.7060   -1.2310   29.4370 N.pl3 246  762246     -0.2867
     12  N4        43.8160   -3.4090   29.5060 N.2   246  762246     -0.3862
     13  C8        43.7390   -2.2910   30.2130 C.2   246  762246      0.1862
     14  C1'       43.5740   -2.2280   31.6150 C.ar  246  762246      0.0745
     15  C2'       43.2160   -3.3600   32.3690 C.ar  246  762246     -0.0465
     16  C3'       43.0430   -3.2690   33.7540 C.ar  246  762246     -0.0603
     17  C4'       43.2110   -2.0590   34.3970 C.ar  246  762246     -0.0503
     18  C5'       43.5800   -0.9280   33.6700 C.ar  246  762246      0.0295
     19  C6'       43.7540   -1.0110   32.2820 C.ar  246  762246      0.1980
     20  O6'       44.0890    0.1190   31.5480 O.3   246  762246     -0.2865
     21  C1B       43.7660    0.2810   34.3380 C.ar  246  762246     -0.0142
     22  C2B       44.7950    0.3870   35.2740 C.ar  246  762246     -0.0539
     23  C3B       44.9900    1.5860   35.9620 C.ar  246  762246     -0.0612
     24  C4B       44.1760    2.6770   35.7120 C.ar  246  762246     -0.0617
     25  C5B       43.1740    2.5780   34.7750 C.ar  246  762246     -0.0612
     26  C6B       42.9590    1.3830   34.0900 C.ar  246  762246     -0.0539
     27  HC3       43.7670    0.1510   26.9960 H     246  762246      0.0613
     28  HC6       44.0190   -4.7940   27.1870 H     246  762246      0.0656
     29 HH11       43.3380   -5.5430   25.4230 H     246  762246      0.2883
     30 HH12       43.8110   -5.7180   23.7990 H     246  762246      0.2883
     31 HH21       44.9740   -2.3200   23.7610 H     246  762246      0.3009
     32 HH22       44.8860   -3.7170   22.7740 H     246  762246      0.3009
     33  HN3       43.6690   -0.3180   29.8210 H     246  762246      0.1546
     34 HC2'       43.0650   -4.3150   31.8930 H     246  762246      0.0626
     35 HC3'       42.7630   -4.1380   34.3350 H     246  762246      0.0618
     36 HC4'       43.0820   -2.0100   35.4720 H     246  762246      0.0625
     37  H2B       45.4310   -0.4620   35.4840 H     246  762246      0.0624
     38  H3B       45.7860    1.6600   36.6940 H     246  762246      0.0618
     39  H4B       44.3350    3.6010   36.2450 H     246  762246      0.0618
     40  H5B       42.5380    3.4270   34.5910 H     246  762246      0.0618
     41  H6B       42.1600    1.3120   33.3690 H     246  762246      0.0624
@<TRIPOS>BOND
     1    32    10    1
     2    10    31    1
     3    10     8    2
     4    30     9    1
     5     3     2    1
     6     9     8    1
     7     9    29    1
     8     8     1    1
     9     2     1    1
    10     2     4    1
    11     1     7    2
    12     4    27    1
    13     4     5    2
    14     7    28    1
    15     7     6    1
    16     5     6    1
    17     5    11    1
    18     6    12    2
    19    11    33    1
    20    11    13    1
    21    12    13    2
    22    13    14    1
    23    20    19    1
    24    14    19   ar
    25    14    15   ar
    26    34    15    1
    27    19    18   ar
    28    15    16   ar
    29    41    26    1
    30    18    21    1
    31    18    17   ar
    32    16    35    1
    33    16    17   ar
    34    26    21   ar
    35    26    25   ar
    36    21    22   ar
    37    17    36    1
    38    40    25    1
    39    25    24   ar
    40    22    37    1
    41    22    23   ar
    42    24    23   ar
    43    24    39    1
    44    23    38    1
