@<TRIPOS>MOLECULE
1o2o_950_A_1.pdb
 44 46 0 0 0
SMALL
GASTEIGER

@<TRIPOS>ATOM
      1  C1        44.1880   -3.1020   25.5850 C.2   246  950246      0.0857
      2  C2        44.2010   -1.6810   25.5630 C.3   246  950246      0.2056
      3  F2        44.3260   -0.9350   24.3750 F     246  950246     -0.2279
      4  C3        44.0590   -0.9570   26.7430 C.2   246  950246     -0.0147
      5  C4        43.9020   -1.6370   27.9170 C.2   246  950246      0.0705
      6  C5        43.8810   -2.9730   27.9820 C.2   246  950246      0.1378
      7  C6        44.0200   -3.7470   26.8380 C.2   246  950246     -0.0082
      8  C7        44.3400   -3.8520   24.3870 C.2   246  950246      0.2657
      9  N1        43.9510   -5.1060   24.2820 N.pl3 246  950246     -0.2499
     10  N2        44.9060   -3.2740   23.3690 N.2   246  950246     -0.2886
     11  N3        43.7590   -1.2260   29.1230 N.pl3 246  950246     -0.2867
     12  N4        43.7230   -3.4170   29.2050 N.2   246  950246     -0.3862
     13  C8        43.6540   -2.2770   29.8770 C.2   246  950246      0.1863
     14  C1'       43.4530   -2.1950   31.2690 C.ar  246  950246      0.0776
     15  C2'       43.2800   -3.3680   32.0060 C.ar  246  950246     -0.0463
     16  C3'       43.0790   -3.3070   33.3850 C.ar  246  950246     -0.0574
     17  C4'       43.0500   -2.0990   34.0420 C.ar  246  950246     -0.0161
     18  C5'       43.2200   -0.9150   33.3430 C.ar  246  950246      0.1677
     19  C6'       43.4180   -0.9570   31.9570 C.ar  246  950246      0.2316
     20  O6'       43.5460    0.2410   31.2890 O.3   246  950246     -0.2832
     21  O5'       43.2380    0.2990   34.0160 O.3   246  950246     -0.4879
     22  C10       43.3240    0.4700   35.4480 C.3   246  950246      0.0921
     23  C20       43.7530    1.9590   35.8950 C.3   246  950246     -0.0124
     24  C30       44.7920    1.8840   37.0500 C.3   246  950246     -0.0596
     25  C40       44.3990    2.7440   34.7730 C.3   246  950246     -0.0596
     26  HC3       44.0660    0.1220   26.7410 H     246  950246      0.0627
     27  HC6       44.0000   -4.8250   26.9160 H     246  950246      0.0656
     28 HH11       43.5870   -5.5550   25.1130 H     246  950246      0.2883
     29 HH12       44.0190   -5.6910   23.4770 H     246  950246      0.2883
     30 HH21       45.2900   -2.3510   23.4700 H     246  950246      0.3009
     31 HH22       45.0450   -3.7340   22.4960 H     246  950246      0.3009
     32  HN3       43.7290   -0.3060   29.4950 H     246  950246      0.1546
     33 HC2'       43.3040   -4.3290   31.5150 H     246  950246      0.0626
     34 HC3'       42.9450   -4.2160   33.9500 H     246  950246      0.0619
     35 HC4'       42.8900   -2.0850   35.1100 H     246  950246      0.0655
     36 H10A       42.3450    0.2750   35.8660 H     246  950246      0.0699
     37 H10B       44.0220   -0.2530   35.8430 H     246  950246      0.0699
     38  H20       42.8970    2.5180   36.2490 H     246  950246      0.0328
     39 H30A       45.0070    2.8710   37.4380 H     246  950246      0.0233
     40 H30B       44.4160    1.2740   37.8560 H     246  950246      0.0233
     41 H30C       45.7120    1.4470   36.6870 H     246  950246      0.0233
     42 H40A       43.6630    3.0690   34.0510 H     246  950246      0.0233
     43 H40B       44.8960    3.6150   35.1760 H     246  950246      0.0233
     44 H40C       45.1330    2.1300   34.2800 H     246  950246      0.0233
@<TRIPOS>BOND
     1    31    10    1
     2    10    30    1
     3    10     8    2
     4    29     9    1
     5     9     8    1
     6     9    28    1
     7     3     2    1
     8     8     1    1
     9     2     1    1
    10     2     4    1
    11     1     7    2
    12    26     4    1
    13     4     5    2
    14     7    27    1
    15     7     6    1
    16     5     6    1
    17     5    11    1
    18     6    12    2
    19    11    32    1
    20    11    13    1
    21    12    13    2
    22    13    14    1
    23    14    19   ar
    24    14    15   ar
    25    20    19    1
    26    33    15    1
    27    19    18   ar
    28    15    16   ar
    29    18    21    1
    30    18    17   ar
    31    16    34    1
    32    16    17   ar
    33    21    22    1
    34    17    35    1
    35    42    25    1
    36    44    25    1
    37    25    43    1
    38    25    23    1
    39    22    37    1
    40    22    36    1
    41    22    23    1
    42    23    38    1
    43    23    24    1
    44    41    24    1
    45    24    39    1
    46    24    40    1
