@<TRIPOS>MOLECULE
1o2p_972_A_1.pdb
 44 46 0 0 0
SMALL
GASTEIGER

@<TRIPOS>ATOM
      1  C1        43.9720   -2.9830   25.7790 C.2   246  972246      0.0682
      2  C2        43.8090   -1.5640   25.6740 C.3   246  972246      0.1243
      3 CL2        43.7880   -0.6990   24.1030 Cl    246  972246     -0.1057
      4  C3        43.6090   -0.8180   26.8510 C.2   246  972246     -0.0322
      5  C4        43.5700   -1.4800   28.0670 C.2   246  972246      0.0691
      6  C5        43.7160   -2.8090   28.1770 C.2   246  972246      0.1377
      7  C6        43.9210   -3.5970   27.0460 C.2   246  972246     -0.0097
      8  C7        44.1940   -3.7910   24.6490 C.2   246  972246      0.2643
      9  N1        43.7870   -5.0460   24.6360 N.pl3 246  972246     -0.2499
     10  N2        44.8350   -3.2670   23.6250 N.2   246  972246     -0.2887
     11  N3        43.4090   -1.0610   29.2760 N.pl3 246  972246     -0.2867
     12  N4        43.6480   -3.2330   29.4210 N.2   246  972246     -0.3862
     13  C8        43.4560   -2.0950   30.0680 C.2   246  972246      0.1863
     14  C1'       43.2590   -1.9810   31.4600 C.ar  246  972246      0.0776
     15  C2'       43.1470   -3.1270   32.2600 C.ar  246  972246     -0.0463
     16  C3'       42.9480   -3.0230   33.6360 C.ar  246  972246     -0.0574
     17  C4'       42.8570   -1.7860   34.2280 C.ar  246  972246     -0.0161
     18  C5'       42.9620   -0.6110   33.4590 C.ar  246  972246      0.1677
     19  C6'       43.1610   -0.7020   32.0710 C.ar  246  972246      0.2316
     20  O6'       43.2610    0.4630   31.3070 O.3   246  972246     -0.2832
     21  O5'       42.8720    0.6490   34.0470 O.3   246  972246     -0.4879
     22  C10       42.8820    0.8410   35.4740 C.3   246  972246      0.0921
     23  C20       43.1960    2.3330   35.8900 C.3   246  972246     -0.0124
     24  C30       44.2420    2.3670   37.0430 C.3   246  972246     -0.0596
     25  C40       43.7830    3.1280   34.7500 C.3   246  972246     -0.0596
     26  HC3       43.4900    0.2550   26.8270 H     246  972246      0.0613
     27  HC6       44.0420   -4.6640   27.1480 H     246  972246      0.0656
     28 HH11       43.3590   -5.4190   25.4770 H     246  972246      0.2883
     29 HH12       43.8980   -5.6950   23.8880 H     246  972246      0.2883
     30 HH21       45.1930   -2.3290   23.6830 H     246  972246      0.3009
     31 HH22       45.0450   -3.7710   22.7940 H     246  972246      0.3009
     32  HN3       43.2760   -0.1410   29.6190 H     246  972246      0.1546
     33 HC2'       43.2190   -4.1090   31.8150 H     246  972246      0.0626
     34 HC3'       42.8650   -3.9140   34.2450 H     246  972246      0.0619
     35 HC4'       42.7010   -1.7430   35.2970 H     246  972246      0.0655
     36 H10A       41.9050    0.5860   35.8650 H     246  972246      0.0699
     37 H10B       43.6090    0.1750   35.9210 H     246  972246      0.0699
     38  H20       42.2920    2.8080   36.2430 H     246  972246      0.0328
     39 H30A       44.3070    3.3610   37.4680 H     246  972246      0.0233
     40 H30B       43.9680    1.6790   37.8310 H     246  972246      0.0233
     41 H30C       45.2190    2.0890   36.6720 H     246  972246      0.0233
     42 H40A       43.0420    3.2630   33.9770 H     246  972246      0.0233
     43 H40B       44.1010    4.0950   35.1090 H     246  972246      0.0233
     44 H40C       44.6380    2.6170   34.3410 H     246  972246      0.0233
@<TRIPOS>BOND
     1    31    10    1
     2    10    30    1
     3    10     8    2
     4    29     9    1
     5     3     2    1
     6     9     8    1
     7     9    28    1
     8     8     1    1
     9     2     1    1
    10     2     4    1
    11     1     7    2
    12    26     4    1
    13     4     5    2
    14     7    27    1
    15     7     6    1
    16     5     6    1
    17     5    11    1
    18     6    12    2
    19    11    32    1
    20    11    13    1
    21    12    13    2
    22    13    14    1
    23    20    19    1
    24    14    19   ar
    25    14    15   ar
    26    33    15    1
    27    19    18   ar
    28    15    16   ar
    29    18    21    1
    30    18    17   ar
    31    16    17   ar
    32    16    34    1
    33    42    25    1
    34    21    22    1
    35    17    35    1
    36    44    25    1
    37    25    43    1
    38    25    23    1
    39    22    36    1
    40    22    23    1
    41    22    37    1
    42    23    38    1
    43    23    24    1
    44    41    24    1
    45    24    39    1
    46    24    40    1
