@<TRIPOS>MOLECULE
1o2q_991_A_1.pdb
 46 49 0 0 0
SMALL
GASTEIGER

@<TRIPOS>ATOM
      1  C1        43.9640   -3.0750   25.5290 C.ar  246  991246      0.0797
      2  C2        43.8000   -1.6630   25.4310 C.ar  246  991246      0.0576
      3 CL2        43.7680   -0.6590   23.9520 Cl    246  991246     -0.0826
      4  C3        43.5860   -0.8950   26.5910 C.ar  246  991246     -0.0186
      5  C4        43.5190   -1.5400   27.8050 C.ar  246  991246      0.0483
      6  C5        43.7030   -2.8790   27.9000 C.ar  246  991246      0.0012
      7  C6        43.9140   -3.6880   26.7890 C.ar  246  991246     -0.0364
      8  C7        44.2150   -3.8470   24.3760 C.2   246  991246      0.2676
      9  N1        43.7330   -5.0680   24.2340 N.pl3 246  991246     -0.2497
     10  N2        44.9630   -3.2720   23.4650 N.2   246  991246     -0.2884
     11  N3        43.3540   -1.0440   29.0030 N.ar  246  991246     -0.3540
     12  CN4       43.5970   -3.2060   29.2180 C.ar  246  991246     -0.0285
     13  C8        43.3790   -2.0170   29.8920 C.ar  246  991246      0.0513
     14  C1'       43.1930   -1.8760   31.2810 C.ar  246  991246      0.0486
     15  C2'       43.0120   -3.0130   32.0980 C.ar  246  991246     -0.0487
     16  C3'       42.8350   -2.8620   33.4840 C.ar  246  991246     -0.0574
     17  C4'       42.8390   -1.6020   34.0650 C.ar  246  991246     -0.0161
     18  C5'       43.0170   -0.4610   33.2800 C.ar  246  991246      0.1680
     19  O5'       43.0550    0.8110   33.8230 O.3   246  991246     -0.4850
     20  C6'       43.1920   -0.5890   31.8840 C.ar  246  991246      0.2293
     21  O6'       43.3530    0.5560   31.1180 O.3   246  991246     -0.2833
     22  C1B       42.5230    2.4500   35.3400 C.3   246  991246     -0.0158
     23  C2B       43.1280    1.0880   35.2210 C.3   246  991246      0.1004
     24  C3B       44.5850    1.1810   35.6840 C.3   246  991246     -0.0158
     25  C4B       44.8640    2.6230   35.9920 C.3   246  991246     -0.0496
     26  C5B       43.5380    3.3190   36.0270 C.3   246  991246     -0.0496
     27  HC3       43.4520    0.1750   26.5340 H     246  991246      0.0653
     28  HC6       44.0330   -4.7550   26.8950 H     246  991246      0.0633
     29 HH11       43.2480   -5.4900   25.0180 H     246  991246      0.2883
     30 HH12       43.8710   -5.6510   23.4420 H     246  991246      0.2883
     31 HH21       45.3630   -2.3660   23.6480 H     246  991246      0.3009
     32 HH22       45.2050   -3.7120   22.6140 H     246  991246      0.3009
     33  HN3       43.2020   -0.0950   29.2070 H     246  991246      0.1659
     34 HCN4       43.6800   -4.1960   29.6410 H     246  991246      0.0645
     35 HC2'       43.0070   -4.0030   31.6650 H     246  991246      0.0625
     36 HC3'       42.6970   -3.7380   34.1010 H     246  991246      0.0619
     37 HC4'       42.6980   -1.5250   35.1320 H     246  991246      0.0655
     38  H1A       42.2850    2.8680   34.3710 H     246  991246      0.0301
     39  H1B       41.6170    2.3960   35.9290 H     246  991246      0.0301
     40  H2A       42.5600    0.3690   35.7930 H     246  991246      0.0733
     41  H3A       44.7050    0.6360   36.6090 H     246  991246      0.0301
     42  H3B       45.2820    0.7870   34.9800 H     246  991246      0.0301
     43  H4A       45.5020    3.0660   35.2420 H     246  991246      0.0266
     44  H4B       45.3360    2.7340   36.9590 H     246  991246      0.0266
     45  H5A       43.6280    4.2350   35.4770 H     246  991246      0.0266
     46  H5B       43.2330    3.5470   37.0410 H     246  991246      0.0266
@<TRIPOS>BOND
     1    32    10    1
     2    30     9    1
     3    10    31    1
     4    10     8    2
     5     3     2    1
     6     9     8    1
     7     9    29    1
     8     8     1    1
     9     2     1   ar
    10     2     4   ar
    11     1     7   ar
    12    27     4    1
    13     4     5   ar
    14     7    28    1
    15     7     6   ar
    16     5     6   ar
    17     5    11   ar
    18     6    12   ar
    19    11    33    1
    20    11    13   ar
    21    12    34    1
    22    12    13   ar
    23    13    14    1
    24    21    20    1
    25    14    20   ar
    26    14    15   ar
    27    35    15    1
    28    20    18   ar
    29    15    16   ar
    30    18    19    1
    31    18    17   ar
    32    16    17   ar
    33    16    36    1
    34    19    23    1
    35    17    37    1
    36    38    22    1
    37    42    24    1
    38    23    22    1
    39    23    24    1
    40    23    40    1
    41    43    25    1
    42    22    39    1
    43    22    26    1
    44    45    26    1
    45    24    25    1
    46    24    41    1
    47    25    26    1
    48    25    44    1
    49    26    46    1
