@<TRIPOS>MOLECULE
1o2s_CR4_A_1.pdb
 31 33 0 0 0
SMALL
GASTEIGER

@<TRIPOS>ATOM
      1  C1        44.4320   -3.1000   26.2090 C.2   246  CR4246      0.0493
      2  C2        44.8530   -1.7570   26.2780 C.2   246  CR4246     -0.0485
      3  C3        44.8200   -1.0550   27.4740 C.2   246  CR4246     -0.0372
      4  C4        44.3690   -1.7070   28.5790 C.2   246  CR4246      0.0674
      5  C5        43.9510   -2.9880   28.5690 C.2   246  CR4246      0.1232
      6  C6        43.9680   -3.7260   27.3860 C.3   246  CR4246      0.0604
      7  C7        44.4890   -3.7890   24.9880 C.2   246  CR4246      0.2628
      8  N1        44.2160   -5.0750   24.9500 N.pl3 246  CR4246     -0.2500
      9  N2        44.8110   -3.1340   23.8960 N.2   246  CR4246     -0.2887
     10  N3        44.2410   -1.3060   29.7810 N.pl3 246  CR4246     -0.2868
     11  N4        43.5570   -3.4060   29.7520 N.2   246  CR4246     -0.3899
     12  C8        43.7710   -2.3000   30.4570 C.2   246  CR4246      0.1858
     13  C1'       43.5750   -2.1580   31.8270 C.ar  246  CR4246      0.0739
     14  C2'       43.3790   -3.3150   32.6020 C.ar  246  CR4246     -0.0466
     15  C3'       43.1840   -3.2160   33.9690 C.ar  246  CR4246     -0.0608
     16  C4'       43.1850   -1.9660   34.5710 C.ar  246  CR4246     -0.0581
     17  C5'       43.3800   -0.7990   33.8160 C.ar  246  CR4246     -0.0142
     18  C6'       43.5740   -0.8660   32.4370 C.ar  246  CR4246      0.1904
     19  O6'       43.7320    0.3260   31.7190 O.3   246  CR4246     -0.2871
     20  HC2       45.2130   -1.2420   25.4060 H     246  CR4246      0.0624
     21  HC3       45.1360   -0.0270   27.5450 H     246  CR4246      0.0637
     22  HC6       43.6340   -4.7530   27.3850 H     246  CR4246      0.0436
     23 HH11       44.0010   -5.5520   25.8160 H     246  CR4246      0.2883
     24 HH12       44.2200   -5.6430   24.1330 H     246  CR4246      0.2883
     25 HH21       44.9960   -2.1430   23.9470 H     246  CR4246      0.3009
     26 HH22       44.9090   -3.5580   23.0030 H     246  CR4246      0.3009
     27  HN3       44.4460   -0.4320   30.1840 H     246  CR4246      0.1546
     28 HC2'       43.3750   -4.2930   32.1420 H     246  CR4246      0.0626
     29 HC3'       43.0320   -4.1060   34.5640 H     246  CR4246      0.0618
     30 HC4'       43.0380   -1.8990   35.6400 H     246  CR4246      0.0619
     31 HC5'       43.3890    0.1580   34.3170 H     246  CR4246      0.0656
@<TRIPOS>BOND
     1    26     9    1
     2     9    25    1
     3     9     7    2
     4    24     8    1
     5     8     7    1
     6     8    23    1
     7     7     1    1
     8    20     2    1
     9     1     2    2
    10     1     6    1
    11     2     3    1
    12    22     6    1
    13     6     5    1
    14     3    21    1
    15     3     4    2
    16     5     4    1
    17     5    11    2
    18     4    10    1
    19    11    12    2
    20    10    27    1
    21    10    12    1
    22    12    13    1
    23    19    18    1
    24    13    18   ar
    25    13    14   ar
    26    28    14    1
    27    18    17   ar
    28    14    15   ar
    29    17    31    1
    30    17    16   ar
    31    15    29    1
    32    15    16   ar
    33    16    30    1
