@<TRIPOS>MOLECULE
1o2t_783_A_1.pdb
 46 49 0 0 0
SMALL
GASTEIGER

@<TRIPOS>ATOM
      1  C1        44.2780   -3.1340   26.0590 C.ar  246  783246      0.0615
      2  C2        44.6320   -1.7640   26.1090 C.ar  246  783246     -0.0451
      3  C3        44.5840   -1.0180   27.2880 C.ar  246  783246     -0.0370
      4  C4        44.1730   -1.6670   28.4050 C.ar  246  783246      0.0470
      5  C5        43.8190   -2.9600   28.4280 C.ar  246  783246      0.0011
      6  C6        43.8590   -3.7220   27.2640 C.ar  246  783246     -0.0378
      7  C7        44.3490   -3.8640   24.8650 C.2   246  783246      0.2662
      8  N1        43.9970   -5.1330   24.8270 N.pl3 246  783246     -0.2497
      9  N2        44.7820   -3.2510   23.7920 N.2   246  783246     -0.2884
     10  N3        44.0500   -1.2020   29.6330 N.ar  246  783246     -0.3540
     11  CN4       43.3960   -3.2290   29.6720 C.ar  246  783246     -0.0285
     12  C8        43.6260   -2.1350   30.4700 C.ar  246  783246      0.0513
     13  C1'       43.3930   -1.8930   31.8160 C.ar  246  783246      0.0490
     14  C2'       43.0830   -2.9860   32.6260 C.ar  246  783246     -0.0071
     15  C3'       42.8380   -2.8490   33.9750 C.ar  246  783246      0.1215
     16  O3'       42.5180   -3.9370   34.7750 O.3   246  783246     -0.4951
     17  C3X       41.1470   -3.9560   35.1580 C.3   246  783246      0.0788
     18  C4'       42.9000   -1.6070   34.5350 C.ar  246  783246     -0.0085
     19  C5'       43.2020   -0.4760   33.8010 C.ar  246  783246      0.0329
     20  C6'       43.4470   -0.6200   32.4130 C.ar  246  783246      0.1959
     21  O6'       43.7190    0.4550   31.5840 O.3   246  783246     -0.2866
     22  C1B       43.2590    0.7010   34.5330 C.ar  246  783246     -0.0141
     23  C2B       44.4190    1.4820   34.5830 C.ar  246  783246     -0.0539
     24  C3B       44.4820    2.6380   35.3460 C.ar  246  783246     -0.0612
     25  C4B       43.3820    3.0290   36.0880 C.ar  246  783246     -0.0617
     26  C5B       42.2150    2.2800   36.0650 C.ar  246  783246     -0.0612
     27  C6B       42.1600    1.1250   35.2950 C.ar  246  783246     -0.0539
     28  HC2       44.9540   -1.2580   25.2110 H     246  783246      0.0627
     29  HC3       44.8550    0.0230   27.3160 H     246  783246      0.0638
     30  HC6       43.5670   -4.7630   27.3040 H     246  783246      0.0632
     31 HH11       43.7060   -5.5840   25.6830 H     246  783246      0.2883
     32 HH12       44.0030   -5.7190   24.0200 H     246  783246      0.2883
     33 HH21       45.0920   -2.2990   23.8440 H     246  783246      0.3009
     34 HH22       44.8590   -3.7080   22.9090 H     246  783246      0.3009
     35  HN3       44.2460   -0.2910   29.9420 H     246  783246      0.1659
     36 HCN4       42.9450   -4.1560   29.9940 H     246  783246      0.0645
     37 HC2'       43.0370   -3.9740   32.1890 H     246  783246      0.0662
     38 H31'       40.9070   -4.9200   35.5780 H     246  783246      0.0660
     39 H32'       40.9700   -3.1910   35.8990 H     246  783246      0.0660
     40 H33'       40.5190   -3.7780   34.2930 H     246  783246      0.0660
     41 HC4'       42.7050   -1.5150   35.5920 H     246  783246      0.0661
     42  H2B       45.2880    1.1890   34.0090 H     246  783246      0.0624
     43  H3B       45.3930    3.2190   35.3670 H     246  783246      0.0618
     44  H4B       43.4220    3.9240   36.6740 H     246  783246      0.0618
     45  H5B       41.3580    2.5870   36.6420 H     246  783246      0.0618
     46  H6B       41.2510    0.5400   35.2790 H     246  783246      0.0624
@<TRIPOS>BOND
     1    34     9    1
     2     9    33    1
     3     9     7    2
     4    32     8    1
     5     8     7    1
     6     8    31    1
     7     7     1    1
     8    28     2    1
     9     1     2   ar
    10     1     6   ar
    11     2     3   ar
    12     6    30    1
    13     6     5   ar
    14     3    29    1
    15     3     4   ar
    16     4     5   ar
    17     4    10   ar
    18     5    11   ar
    19    10    35    1
    20    10    12   ar
    21    11    36    1
    22    11    12   ar
    23    12    13    1
    24    21    20    1
    25    13    20   ar
    26    13    14   ar
    27    37    14    1
    28    20    19   ar
    29    14    15   ar
    30    19    22    1
    31    19    18   ar
    32    15    18   ar
    33    15    16    1
    34    42    23    1
    35    40    17    1
    36    22    23   ar
    37    22    27   ar
    38    18    41    1
    39    23    24   ar
    40    16    17    1
    41    17    38    1
    42    17    39    1
    43    46    27    1
    44    27    26   ar
    45    24    43    1
    46    24    25   ar
    47    26    25   ar
    48    26    45    1
    49    25    44    1
