@<TRIPOS>MOLECULE
1o2u_847_A_1.pdb
 41 43 0 0 0
SMALL
GASTEIGER

@<TRIPOS>ATOM
      1  C1        44.1980   -3.1170   26.0000 C.2   246  847246      0.0492
      2  C2        44.5440   -1.7560   26.2980 C.3   246  847246      0.0224
      3  C3        44.4350   -1.2030   27.5900 C.2   246  847246     -0.0511
      4  C4        43.9780   -2.0460   28.5660 C.2   246  847246      0.0677
      5  C5        43.6420   -3.3250   28.3290 C.2   246  847246      0.1376
      6  C6        43.7280   -3.9110   27.0820 C.2   246  847246     -0.0111
      7  C7        44.3220   -3.6520   24.6930 C.2   246  847246      0.2628
      8  N1        44.0060   -4.9080   24.4640 N.pl3 246  847246     -0.2500
      9  N2        44.7540   -2.8890   23.7140 N.2   246  847246     -0.2887
     10  N3        43.7760   -1.8470   29.8240 N.pl3 246  847246     -0.2867
     11  N4        43.2270   -3.9550   29.4070 N.2   246  847246     -0.3862
     12  C8        43.3390   -2.9820   30.2910 C.2   246  847246      0.1863
     13  C1'       43.0340   -3.2050   31.6530 C.ar  246  847246      0.0753
     14  C2'       42.4410   -4.4100   32.1240 C.ar  246  847246     -0.0425
     15  C3'       42.1390   -4.6260   33.4900 C.ar  246  847246     -0.0310
     16  CVX       41.4620   -5.9100   34.0240 C.3   246  847246      0.0958
     17  CWX       39.9570   -5.5950   33.7240 C.2   246  847246      0.3638
     18  OXX       39.4120   -6.2490   32.8500 O.co2 246  847246     -0.2457
     19  OYX       39.4180   -4.7020   34.3700 O.co2 246  847246     -0.2457
     20  C6X       41.6700   -6.2130   35.6230 C.3   246  847246      0.0662
     21  C7X       43.0320   -6.8500   36.1510 C.2   246  847246      0.3571
     22  O8X       43.2740   -8.0180   35.9280 O.co2 246  847246     -0.2463
     23  O9X       43.8160   -6.1730   36.8010 O.co2 246  847246     -0.2463
     24  C4'       42.4440   -3.6370   34.3760 C.ar  246  847246     -0.0400
     25  C5'       43.0160   -2.4870   33.9490 C.ar  246  847246      0.0655
     26  C6'       43.3190   -2.2260   32.6260 C.ar  246  847246      0.2043
     27  O6'       43.8690   -0.9990   32.3010 O.3   246  847246     -0.2860
     28 BR5'       43.4920   -1.3440   35.4140 Br    246  847246     -0.0463
     29  HC2       44.9110   -1.1150   25.5140 H     246  847246      0.0403
     30  HC3       44.6990   -0.1780   27.8020 H     246  847246      0.0598
     31  HC6       43.4420   -4.9420   26.9480 H     246  847246      0.0655
     32 HH11       43.7150   -5.4880   25.2420 H     246  847246      0.2883
     33 HH12       44.0560   -5.3520   23.5770 H     246  847246      0.2883
     34 HH21       44.9950   -1.9250   23.9020 H     246  847246      0.3009
     35 HH22       44.8990   -3.1960   22.7790 H     246  847246      0.3009
     36  HN3       43.9120   -1.0220   30.3500 H     246  847246      0.1546
     37 HC2'       42.2080   -5.1940   31.4210 H     246  847246      0.0629
     38 H31B       41.7870   -6.7550   33.4350 H     246  847246      0.0469
     39 H42A       41.4860   -5.3160   36.1930 H     246  847246      0.0390
     40 H42B       40.8790   -6.8920   35.9050 H     246  847246      0.0390
     41 HC4'       42.2370   -3.7300   35.4290 H     246  847246      0.0633
@<TRIPOS>BOND
     1    35     9    1
     2    33     8    1
     3     9    34    1
     4     9     7    2
     5     8     7    1
     6     8    32    1
     7     7     1    1
     8    29     2    1
     9     1     2    1
    10     1     6    2
    11     2     3    1
    12    31     6    1
    13     6     5    1
    14     3    30    1
    15     3     4    2
    16     5     4    1
    17     5    11    2
    18     4    10    1
    19    11    12    2
    20    10    12    1
    21    10    36    1
    22    12    13    1
    23    37    14    1
    24    13    14   ar
    25    13    26   ar
    26    14    15   ar
    27    27    26    1
    28    26    25   ar
    29    18    17   ar
    30    38    16    1
    31    15    16    1
    32    15    24   ar
    33    17    16    1
    34    17    19   ar
    35    25    24   ar
    36    25    28    1
    37    16    20    1
    38    24    41    1
    39    20    40    1
    40    20    21    1
    41    20    39    1
    42    22    21   ar
    43    21    23   ar
