@<TRIPOS>MOLECULE
1o2v_847_A_1.pdb
 41 43 0 0 0
SMALL
GASTEIGER

@<TRIPOS>ATOM
      1  C1        44.0890   -2.9160   26.5630 C.2   246  847246      0.0492
      2  C2        44.4540   -1.5420   26.5400 C.3   246  847246      0.0224
      3  C3        44.4070   -0.7280   27.6810 C.2   246  847246     -0.0511
      4  C4        43.9890   -1.3190   28.8370 C.2   246  847246      0.0677
      5  C5        43.6290   -2.6030   28.9240 C.2   246  847246      0.1376
      6  C6        43.6620   -3.4560   27.8120 C.2   246  847246     -0.0111
      7  C7        44.1610   -3.6760   25.3890 C.2   246  847246      0.2628
      8  N1        44.0410   -4.9790   25.4560 N.pl3 246  847246     -0.2500
      9  N2        44.3470   -3.0680   24.2280 N.2   246  847246     -0.2887
     10  N3        43.8540   -0.8140   30.0080 N.pl3 246  847246     -0.2867
     11  N4        43.2670   -2.9360   30.1540 N.2   246  847246     -0.3862
     12  C8        43.4290   -1.7700   30.7650 C.2   246  847246      0.1863
     13  C1'       43.1630   -1.5650   32.1360 C.ar  246  847246      0.0753
     14  C2'       42.7830   -2.6280   32.9540 C.ar  246  847246     -0.0425
     15  C3'       42.4920   -2.5030   34.3220 C.ar  246  847246     -0.0310
     16  CVX       42.0100   -3.8340   35.0120 C.3   246  847246      0.0958
     17  CWX       40.5720   -4.1410   34.4250 C.2   246  847246      0.3638
     18  OXX       40.4140   -5.1680   33.7870 O.co2 246  847246     -0.2457
     19  OYX       39.6640   -3.3510   34.6050 O.co2 246  847246     -0.2457
     20  C6X       42.0610   -3.8530   36.6210 C.3   246  847246      0.0662
     21  C7X       43.0160   -4.9420   37.2840 C.2   246  847246      0.3571
     22  O8X       43.3430   -5.9550   36.6890 O.co2 246  847246     -0.2463
     23  O9X       43.4300   -4.7540   38.4170 O.co2 246  847246     -0.2463
     24  C4'       42.5960   -1.2290   34.9070 C.ar  246  847246     -0.0400
     25  C5'       42.9770   -0.0830   34.1370 C.ar  246  847246      0.0655
     26  C6'       43.2520   -0.2960   32.7520 C.ar  246  847246      0.2043
     27  O6'       43.6030    0.8010   32.0050 O.3   246  847246     -0.2860
     28 BR5'       43.0840    1.7460   34.9270 Br    246  847246     -0.0463
     29  HC2       44.7880   -1.0940   25.6200 H     246  847246      0.0403
     30  HC3       44.6830    0.3130   27.6580 H     246  847246      0.0598
     31  HC6       43.3680   -4.4900   27.8960 H     246  847246      0.0655
     32 HH11       43.8770   -5.4140   26.3530 H     246  847246      0.2883
     33 HH12       44.0530   -5.6090   24.6820 H     246  847246      0.2883
     34 HH21       44.4310   -2.0620   24.1950 H     246  847246      0.3009
     35 HH22       44.4670   -3.5540   23.3640 H     246  847246      0.3009
     36  HN3       44.0110    0.1160   30.3050 H     246  847246      0.1546
     37 HC2'       42.7070   -3.6090   32.5020 H     246  847246      0.0629
     38 H31B       42.6540   -4.6260   34.6580 H     246  847246      0.0469
     39 H42A       42.3740   -2.8830   36.9720 H     246  847246      0.0390
     40 H42B       41.0620   -4.0210   36.9960 H     246  847246      0.0390
     41 HC4'       42.3880   -1.0880   35.9520 H     246  847246      0.0633
@<TRIPOS>BOND
     1    35     9    1
     2    34     9    1
     3     9     7    2
     4    33     8    1
     5     7     8    1
     6     7     1    1
     7     8    32    1
     8    29     2    1
     9     2     1    1
    10     2     3    1
    11     1     6    2
    12    30     3    1
    13     3     4    2
    14     6    31    1
    15     6     5    1
    16     4     5    1
    17     4    10    1
    18     5    11    2
    19    10    36    1
    20    10    12    1
    21    11    12    2
    22    12    13    1
    23    27    26    1
    24    13    26   ar
    25    13    14   ar
    26    37    14    1
    27    26    25   ar
    28    14    15   ar
    29    18    17   ar
    30    25    24   ar
    31    25    28    1
    32    15    24   ar
    33    15    16    1
    34    17    19   ar
    35    17    16    1
    36    38    16    1
    37    24    41    1
    38    16    20    1
    39    20    39    1
    40    20    40    1
    41    20    21    1
    42    22    21   ar
    43    21    23   ar
