@<TRIPOS>MOLECULE
1o2w_847_A_1.pdb
 41 43 0 0 0
SMALL
GASTEIGER

@<TRIPOS>ATOM
      1  C1        44.0710   -2.9590   26.4710 C.2   246  847246      0.0492
      2  C2        44.4520   -1.5810   26.4460 C.3   246  847246      0.0224
      3  C3        44.3730   -0.7600   27.5730 C.2   246  847246     -0.0511
      4  C4        43.9140   -1.3460   28.7220 C.2   246  847246      0.0677
      5  C5        43.5430   -2.6330   28.7990 C.2   246  847246      0.1376
      6  C6        43.5980   -3.4890   27.7060 C.2   246  847246     -0.0111
      7  C7        44.1750   -3.7460   25.3230 C.2   246  847246      0.2628
      8  N1        43.9530   -5.0330   25.4110 N.pl3 246  847246     -0.2500
      9  N2        44.4890   -3.1740   24.1790 N.2   246  847246     -0.2887
     10  N3        43.7440   -0.8520   29.8950 N.pl3 246  847246     -0.2867
     11  N4        43.1360   -2.9770   30.0040 N.2   246  847246     -0.3862
     12  C8        43.2930   -1.8190   30.6260 C.2   246  847246      0.1863
     13  C1'       43.0220   -1.6460   32.0050 C.ar  246  847246      0.0753
     14  C2'       42.5790   -2.7150   32.8110 C.ar  246  847246     -0.0425
     15  C3'       42.3030   -2.5710   34.1780 C.ar  246  847246     -0.0310
     16  CVX       41.7700   -3.8380   34.9550 C.3   246  847246      0.0958
     17  CWX       40.2780   -4.0050   34.4620 C.2   246  847246      0.3638
     18  OXX       40.0010   -4.9840   33.7930 O.co2 246  847246     -0.2457
     19  OYX       39.4440   -3.1620   34.7340 O.co2 246  847246     -0.2457
     20  C6X       41.9590   -3.7570   36.5780 C.3   246  847246      0.0662
     21  C7X       42.9600   -4.8000   37.2550 C.2   246  847246      0.3571
     22  O8X       43.1590   -5.9060   36.7880 O.co2 246  847246     -0.2463
     23  O9X       43.5510   -4.4730   38.2740 O.co2 246  847246     -0.2463
     24  C4'       42.4850   -1.3000   34.7560 C.ar  246  847246     -0.0400
     25  C5'       42.9240   -0.2000   34.0050 C.ar  246  847246      0.0655
     26  C6'       43.1830   -0.3900   32.6390 C.ar  246  847246      0.2043
     27  O6'       43.5940    0.6950   31.9010 O.3   246  847246     -0.2860
     28 BR5'       43.1810    1.5710   34.8510 Br    246  847246     -0.0463
     29  HC2       44.8180   -1.1430   25.5350 H     246  847246      0.0403
     30  HC3       44.6580    0.2780   27.5470 H     246  847246      0.0598
     31  HC6       43.2890   -4.5190   27.7980 H     246  847246      0.0655
     32 HH11       43.7100   -5.4180   26.3140 H     246  847246      0.2883
     33 HH12       43.9710   -5.6990   24.6710 H     246  847246      0.2883
     34 HH21       44.6260   -2.1740   24.1480 H     246  847246      0.3009
     35 HH22       44.6310   -3.6820   23.3330 H     246  847246      0.3009
     36  HN3       43.8990    0.0710   30.2120 H     246  847246      0.1546
     37 HC2'       42.4480   -3.6920   32.3590 H     246  847246      0.0629
     38 H31B       42.3120   -4.7040   34.6050 H     246  847246      0.0469
     39 H42A       42.3320   -2.7770   36.8320 H     246  847246      0.0390
     40 H42B       40.9980   -3.8520   37.0600 H     246  847246      0.0390
     41 HC4'       42.2790   -1.1480   35.8010 H     246  847246      0.0633
@<TRIPOS>BOND
     1    35     9    1
     2    34     9    1
     3     9     7    2
     4    33     8    1
     5     7     8    1
     6     7     1    1
     7     8    32    1
     8    29     2    1
     9     2     1    1
    10     2     3    1
    11     1     6    2
    12    30     3    1
    13     3     4    2
    14     6    31    1
    15     6     5    1
    16     4     5    1
    17     4    10    1
    18     5    11    2
    19    10    36    1
    20    10    12    1
    21    11    12    2
    22    12    13    1
    23    27    26    1
    24    13    26   ar
    25    13    14   ar
    26    37    14    1
    27    26    25   ar
    28    14    15   ar
    29    18    17   ar
    30    25    24   ar
    31    25    28    1
    32    15    24   ar
    33    15    16    1
    34    17    19   ar
    35    17    16    1
    36    38    16    1
    37    24    41    1
    38    16    20    1
    39    20    39    1
    40    20    40    1
    41    20    21    1
    42    22    21   ar
    43    21    23   ar
