@<TRIPOS>MOLECULE
1o2x_847_A_1.pdb
 41 43 0 0 0
SMALL
GASTEIGER

@<TRIPOS>ATOM
      1  C1        44.0400   -2.8750   26.4080 C.2   246  847246      0.0492
      2  C2        44.4300   -1.5110   26.4210 C.3   246  847246      0.0224
      3  C3        44.3550   -0.7170   27.5690 C.2   246  847246     -0.0511
      4  C4        43.8830   -1.3300   28.7040 C.2   246  847246      0.0677
      5  C5        43.5010   -2.6140   28.7330 C.2   246  847246      0.1376
      6  C6        43.5540   -3.4370   27.6240 C.2   246  847246     -0.0111
      7  C7        44.1340   -3.6390   25.2300 C.2   246  847246      0.2628
      8  N1        43.9450   -4.9280   25.2930 N.pl3 246  847246     -0.2500
      9  N2        44.4180   -3.0420   24.0720 N.2   246  847246     -0.2887
     10  N3        43.6990   -0.8630   29.8910 N.pl3 246  847246     -0.2867
     11  N4        43.0700   -2.9850   29.9250 N.2   246  847246     -0.3862
     12  C8        43.2310   -1.8450   30.5920 C.2   246  847246      0.1863
     13  C1'       42.9770   -1.7160   31.9740 C.ar  246  847246      0.0753
     14  C2'       42.5690   -2.8100   32.7540 C.ar  246  847246     -0.0425
     15  C3'       42.3060   -2.7170   34.1290 C.ar  246  847246     -0.0310
     16  CVX       41.8100   -4.0150   34.8700 C.3   246  847246      0.0958
     17  CWX       40.3640   -4.2390   34.3380 C.2   246  847246      0.3638
     18  OXX       40.1270   -5.2870   33.7780 O.co2 246  847246     -0.2457
     19  OYX       39.5330   -3.3670   34.4860 O.co2 246  847246     -0.2457
     20  C6X       41.9390   -3.9820   36.5100 C.3   246  847246      0.0662
     21  C7X       42.9200   -5.0460   37.1680 C.2   246  847246      0.3571
     22  O8X       43.2700   -6.0440   36.5670 O.co2 246  847246     -0.2463
     23  O9X       43.3390   -4.8510   38.2960 O.co2 246  847246     -0.2463
     24  C4'       42.4690   -1.4700   34.7460 C.ar  246  847246     -0.0400
     25  C5'       42.8800   -0.3800   33.9980 C.ar  246  847246      0.0655
     26  C6'       43.1300   -0.4920   32.6390 C.ar  246  847246      0.2043
     27  O6'       43.5170    0.6360   31.9590 O.3   246  847246     -0.2860
     28 BR5'       43.0590    1.3260   34.8980 Br    246  847246     -0.0463
     29  HC2       44.7900   -1.0370   25.5250 H     246  847246      0.0403
     30  HC3       44.6350    0.3280   27.5840 H     246  847246      0.0598
     31  HC6       43.2270   -4.4590   27.6760 H     246  847246      0.0655
     32 HH11       43.7450   -5.3490   26.1960 H     246  847246      0.2883
     33 HH12       43.9770   -5.5810   24.5340 H     246  847246      0.2883
     34 HH21       44.5520   -2.0440   24.0490 H     246  847246      0.3009
     35 HH22       44.5600   -3.5430   23.2170 H     246  847246      0.3009
     36  HN3       43.8590    0.0640   30.2250 H     246  847246      0.1546
     37 HC2'       42.4550   -3.7750   32.2800 H     246  847246      0.0629
     38 H31B       42.4330   -4.8250   34.5230 H     246  847246      0.0469
     39 H42A       42.2690   -3.0060   36.8390 H     246  847246      0.0390
     40 H42B       40.9590   -4.1390   36.9360 H     246  847246      0.0390
     41 HC4'       42.2770   -1.3370   35.8010 H     246  847246      0.0633
@<TRIPOS>BOND
     1    35     9    1
     2    34     9    1
     3     9     7    2
     4    33     8    1
     5     7     8    1
     6     7     1    1
     7     8    32    1
     8    29     2    1
     9     1     2    1
    10     1     6    2
    11     2     3    1
    12     3    30    1
    13     3     4    2
    14     6    31    1
    15     6     5    1
    16     4     5    1
    17     4    10    1
    18     5    11    2
    19    10    36    1
    20    10    12    1
    21    11    12    2
    22    12    13    1
    23    27    26    1
    24    13    26   ar
    25    13    14   ar
    26    37    14    1
    27    26    25   ar
    28    14    15   ar
    29    18    17   ar
    30    25    24   ar
    31    25    28    1
    32    15    24   ar
    33    15    16    1
    34    17    19   ar
    35    17    16    1
    36    38    16    1
    37    24    41    1
    38    16    20    1
    39    20    39    1
    40    20    40    1
    41    20    21    1
    42    22    21   ar
    43    21    23   ar
