@<TRIPOS>MOLECULE
1o2y_847_A_1.pdb
 41 43 0 0 0
SMALL
GASTEIGER

@<TRIPOS>ATOM
      1  C1        44.2040   -2.9070   26.2020 C.2   246  847246      0.0492
      2  C2        44.7670   -1.5910   26.2920 C.3   246  847246      0.0224
      3  C3        44.7580   -0.8460   27.4750 C.2   246  847246     -0.0511
      4  C4        44.1860   -1.4390   28.5700 C.2   246  847246      0.0677
      5  C5        43.6440   -2.6580   28.5510 C.2   246  847246      0.1376
      6  C6        43.6260   -3.4410   27.3980 C.2   246  847246     -0.0111
      7  C7        44.2290   -3.6140   24.9810 C.2   246  847246      0.2628
      8  N1        43.7850   -4.8480   24.9260 N.pl3 246  847246     -0.2500
      9  N2        44.7170   -3.0400   23.9000 N.2   246  847246     -0.2887
     10  N3        44.0500   -0.9990   29.7740 N.pl3 246  847246     -0.2867
     11  N4        43.1440   -3.0230   29.7270 N.2   246  847246     -0.3862
     12  C8        43.4400   -1.9360   30.4440 C.2   246  847246      0.1863
     13  C1'       43.1280   -1.7920   31.8210 C.ar  246  847246      0.0753
     14  C2'       42.5550   -2.8280   32.5990 C.ar  246  847246     -0.0425
     15  C3'       42.2570   -2.6820   33.9820 C.ar  246  847246     -0.0310
     16  CVX       41.5920   -3.8650   34.7840 C.3   246  847246      0.0958
     17  CWX       40.0900   -3.8620   34.2780 C.2   246  847246      0.3638
     18  OXX       39.7600   -4.7550   33.5160 O.co2 246  847246     -0.2457
     19  OYX       39.3240   -2.9870   34.6320 O.co2 246  847246     -0.2457
     20  C6X       41.7900   -3.7710   36.4410 C.3   246  847246      0.0662
     21  C7X       42.7860   -4.8030   37.1620 C.2   246  847246      0.3571
     22  O8X       43.0870   -5.8650   36.6520 O.co2 246  847246     -0.2463
     23  O9X       43.2600   -4.5190   38.2540 O.co2 246  847246     -0.2463
     24  C4'       42.5530   -1.4510   34.5870 C.ar  246  847246     -0.0400
     25  C5'       43.1240   -0.3930   33.8710 C.ar  246  847246      0.0655
     26  C6'       43.3970   -0.5700   32.5100 C.ar  246  847246      0.2043
     27  O6'       43.9460    0.5010   31.8500 O.3   246  847246     -0.2860
     28 BR5'       43.5940    1.3110   34.7460 Br    246  847246     -0.0463
     29  HC2       45.2160   -1.1470   25.4180 H     246  847246      0.0403
     30  HC3       45.1930    0.1430   27.5280 H     246  847246      0.0598
     31  HC6       43.1750   -4.4240   27.4110 H     246  847246      0.0655
     32 HH11       43.4390   -5.2880   25.7690 H     246  847246      0.2883
     33 HH12       43.7760   -5.4260   24.1120 H     246  847246      0.2883
     34 HH21       45.0620   -2.0930   23.9460 H     246  847246      0.3009
     35 HH22       44.7940   -3.5000   23.0180 H     246  847246      0.3009
     36  HN3       44.3060   -0.1240   30.1420 H     246  847246      0.1546
     37 HC2'       42.3480   -3.7780   32.1140 H     246  847246      0.0629
     38 H31B       42.0340   -4.7950   34.4600 H     246  847246      0.0469
     39 H42A       42.1540   -2.7940   36.7090 H     246  847246      0.0390
     40 H42B       40.8210   -3.8580   36.9110 H     246  847246      0.0390
     41 HC4'       42.3240   -1.2870   35.6250 H     246  847246      0.0633
@<TRIPOS>BOND
     1    35     9    1
     2     9    34    1
     3     9     7    2
     4    33     8    1
     5     8     7    1
     6     8    32    1
     7     7     1    1
     8    29     2    1
     9     1     2    1
    10     1     6    2
    11     2     3    1
    12     6    31    1
    13     6     5    1
    14     3    30    1
    15     3     4    2
    16     5     4    1
    17     5    11    2
    18     4    10    1
    19    11    12    2
    20    10    36    1
    21    10    12    1
    22    12    13    1
    23    13    26   ar
    24    13    14   ar
    25    27    26    1
    26    37    14    1
    27    26    25   ar
    28    14    15   ar
    29    18    17   ar
    30    25    24   ar
    31    25    28    1
    32    15    24   ar
    33    15    16    1
    34    17    19   ar
    35    17    16    1
    36    38    16    1
    37    24    41    1
    38    16    20    1
    39    20    39    1
    40    20    40    1
    41    20    21    1
    42    22    21   ar
    43    21    23   ar
