@<TRIPOS>MOLECULE
1o31_801_A_1.pdb
 30 32 0 0 0
SMALL
GASTEIGER

@<TRIPOS>ATOM
      1  C1        44.3700   -3.0900   26.2670 C.2   246  801246      0.0492
      2  C2        44.8140   -1.7530   26.3560 C.3   246  801246      0.0224
      3  C3        44.7790   -1.0720   27.5660 C.2   246  801246     -0.0511
      4  C4        44.3020   -1.7470   28.6640 C.2   246  801246      0.0677
      5  C5        43.8680   -3.0290   28.6200 C.2   246  801246      0.1377
      6  C6        43.8890   -3.7360   27.4270 C.2   246  801246     -0.0111
      7  C7        44.4050   -3.7600   25.0410 C.2   246  801246      0.2628
      8  N1        44.1950   -5.0560   25.0070 N.pl3 246  801246     -0.2500
      9  N2        44.6400   -3.0780   23.9430 N.2   246  801246     -0.2887
     10  N3        44.1530   -1.3860   29.8830 N.pl3 246  801246     -0.2849
     11  N4        43.4520   -3.4780   29.7850 N.2   246  801246     -0.3839
     12  C8        43.6620   -2.3940   30.5310 C.2   246  801246      0.2122
     13  C1'       43.4100   -2.2850   31.9030 C.2   246  801246      0.1855
     14  N2'       43.1470   -3.3710   32.6050 N.2   246  801246     -0.4083
     15  C3'       42.9040   -3.3380   33.9000 C.2   246  801246      0.0783
     16  C4'       42.9130   -2.1280   34.5910 C.2   246  801246     -0.0324
     17  C5'       43.1830   -0.9580   33.9010 C.2   246  801246     -0.0363
     18  C6'       43.4370   -1.0220   32.5440 C.3   246  801246      0.2215
     19  O6'       43.7020    0.1660   31.8820 O.3   246  801246     -0.2111
     20  HC2       45.1920   -1.2370   25.4880 H     246  801246      0.0403
     21  HC3       45.1160   -0.0490   27.6440 H     246  801246      0.0598
     22  HC6       43.5440   -4.7570   27.4000 H     246  801246      0.0655
     23 HH11       44.0080   -5.5370   25.8740 H     246  801246      0.2883
     24 HH12       44.1980   -5.6100   24.1770 H     246  801246      0.2883
     25 HH21       44.7860   -2.0840   24.0190 H     246  801246      0.3009
     26 HH22       44.6810   -3.4790   23.0300 H     246  801246      0.3009
     27  HN3       44.3430   -0.5280   30.3290 H     246  801246      0.1547
     28 HC3'       42.4450   -4.1930   34.3760 H     246  801246      0.0969
     29 HC4'       42.7140   -2.1000   35.6520 H     246  801246      0.0641
     30 HC5'       43.1980   -0.0080   34.4160 H     246  801246      0.0608
@<TRIPOS>BOND
     1    26     9    1
     2     9    25    1
     3     9     7    2
     4    24     8    1
     5     8     7    1
     6     8    23    1
     7     7     1    1
     8    20     2    1
     9     1     2    1
    10     1     6    2
    11     2     3    1
    12    22     6    1
    13     6     5    1
    14     3    21    1
    15     3     4    2
    16     5     4    1
    17     5    11    2
    18     4    10    1
    19    11    12    2
    20    10    27    1
    21    10    12    1
    22    12    13    1
    23    19    18    1
    24    13    18    1
    25    13    14    2
    26    18    17    1
    27    14    15    2
    28    15    28    1
    29    15    16    1
    30    17    30    1
    31    17    16    2
    32    16    29    1
