@<TRIPOS>MOLECULE
1o32_801_A_1.pdb
 30 32 0 0 0
SMALL
GASTEIGER

@<TRIPOS>ATOM
      1  C1        44.2810   -3.1230   26.0620 C.2   246  801246      0.0492
      2  C2        44.6630   -1.7910   26.3490 C.3   246  801246      0.0224
      3  C3        44.5530   -1.2790   27.6620 C.2   246  801246     -0.0511
      4  C4        44.0710   -2.1180   28.6360 C.2   246  801246      0.0677
      5  C5        43.6930   -3.3850   28.3730 C.2   246  801246      0.1377
      6  C6        43.7820   -3.9160   27.1040 C.2   246  801246     -0.0111
      7  C7        44.3910   -3.6670   24.7720 C.2   246  801246      0.2628
      8  N1        44.1110   -4.9340   24.5680 N.pl3 246  801246     -0.2500
      9  N2        44.7790   -2.9010   23.7850 N.2   246  801246     -0.2887
     10  N3        43.8660   -1.9530   29.8870 N.pl3 246  801246     -0.2849
     11  N4        43.2570   -4.0300   29.4240 N.2   246  801246     -0.3839
     12  C8        43.3970   -3.0840   30.3400 C.2   246  801246      0.2122
     13  C1'       43.1300   -3.2320   31.7120 C.2   246  801246      0.1855
     14  N2'       43.1280   -2.1250   32.4520 N.2   246  801246     -0.4083
     15  C3'       42.8990   -2.1360   33.7530 C.2   246  801246      0.0783
     16  C4'       42.6430   -3.3320   34.4180 C.2   246  801246     -0.0324
     17  C5'       42.6360   -4.5160   33.6920 C.2   246  801246     -0.0363
     18  C6'       42.8780   -4.4920   32.3220 C.3   246  801246      0.2215
     19  O6'       42.8550   -5.7200   31.6610 O.3   246  801246     -0.2111
     20  HC2       45.0500   -1.1450   25.5780 H     246  801246      0.0403
     21  HC3       44.8340   -0.2660   27.9100 H     246  801246      0.0598
     22  HC6       43.4630   -4.9330   26.9320 H     246  801246      0.0655
     23 HH11       43.8460   -5.5240   25.3460 H     246  801246      0.2883
     24 HH12       44.1550   -5.3670   23.6760 H     246  801246      0.2883
     25 HH21       44.9490   -1.9280   23.9730 H     246  801246      0.3009
     26 HH22       44.9170   -3.1970   22.8450 H     246  801246      0.3009
     27  HN3       44.0150   -1.1720   30.4580 H     246  801246      0.1547
     28 HC3'       42.8950   -1.2110   34.3070 H     246  801246      0.0969
     29 HC4'       42.4510   -3.3500   35.4820 H     246  801246      0.0641
     30 HC5'       42.4480   -5.4590   34.1890 H     246  801246      0.0608
@<TRIPOS>BOND
     1    26     9    1
     2    24     8    1
     3     9    25    1
     4     9     7    2
     5     8     7    1
     6     8    23    1
     7     7     1    1
     8    20     2    1
     9     1     2    1
    10     1     6    2
    11     2     3    1
    12    22     6    1
    13     6     5    1
    14     3    21    1
    15     3     4    2
    16     5     4    1
    17     5    11    2
    18     4    10    1
    19    11    12    2
    20    10    12    1
    21    10    27    1
    22    12    13    1
    23    19    18    1
    24    13    18    1
    25    13    14    2
    26    18    17    1
    27    14    15    2
    28    17    30    1
    29    17    16    2
    30    15    28    1
    31    15    16    1
    32    16    29    1
