@<TRIPOS>MOLECULE
1o33_801_A_1.pdb
 30 32 0 0 0
SMALL
GASTEIGER

@<TRIPOS>ATOM
      1  C1        44.0750   -3.0370   26.3070 C.2   246  801246      0.0493
      2  C2        44.5310   -1.7030   26.3610 C.2   246  801246     -0.0485
      3  C3        44.4530   -0.9550   27.5220 C.2   246  801246     -0.0372
      4  C4        43.9220   -1.5510   28.6160 C.2   246  801246      0.0675
      5  C5        43.4640   -2.8170   28.6130 C.2   246  801246      0.1233
      6  C6        43.5210   -3.6060   27.4640 C.3   246  801246      0.0604
      7  C7        44.1930   -3.7660   25.1090 C.2   246  801246      0.2628
      8  N1        43.9180   -5.0580   25.1100 N.pl3 246  801246     -0.2500
      9  N2        44.5810   -3.1240   24.0140 N.2   246  801246     -0.2887
     10  N3        43.7360   -1.1060   29.8050 N.pl3 246  801246     -0.2850
     11  N4        42.9940   -3.1730   29.7830 N.2   246  801246     -0.3876
     12  C8        43.2020   -2.0660   30.4840 C.2   246  801246      0.2118
     13  C1'       42.9290   -1.9290   31.8370 C.2   246  801246      0.1855
     14  N2'       42.6890   -3.0300   32.5210 N.2   246  801246     -0.4083
     15  C3'       42.4260   -3.0450   33.8060 C.2   246  801246      0.0783
     16  C4'       42.3880   -1.8530   34.5100 C.2   246  801246     -0.0324
     17  C5'       42.6370   -0.6510   33.8370 C.2   246  801246     -0.0363
     18  C6'       42.9150   -0.6710   32.4720 C.3   246  801246      0.2215
     19  O6'       43.1600    0.5190   31.7860 O.3   246  801246     -0.2111
     20  HC2       44.9610   -1.2320   25.4940 H     246  801246      0.0624
     21  HC3       44.8000    0.0630   27.5690 H     246  801246      0.0637
     22  HC6       43.1530   -4.6190   27.4730 H     246  801246      0.0436
     23 HH11       43.6420   -5.4960   25.9850 H     246  801246      0.2883
     24 HH12       43.9600   -5.6690   24.3270 H     246  801246      0.2883
     25 HH21       44.7660   -2.1350   24.0450 H     246  801246      0.3009
     26 HH22       44.7210   -3.5700   23.1370 H     246  801246      0.3009
     27  HN3       43.9380   -0.2290   30.2010 H     246  801246      0.1547
     28 HC3'       42.4240   -3.9850   34.3420 H     246  801246      0.0969
     29 HC4'       42.1710   -1.8620   35.5690 H     246  801246      0.0641
     30 HC5'       42.6120    0.2830   34.3810 H     246  801246      0.0608
@<TRIPOS>BOND
     1    26     9    1
     2     9    25    1
     3     9     7    2
     4    24     8    1
     5     7     8    1
     6     7     1    1
     7     8    23    1
     8    20     2    1
     9     1     2    2
    10     1     6    1
    11     2     3    1
    12     6    22    1
    13     6     5    1
    14     3    21    1
    15     3     4    2
    16     5     4    1
    17     5    11    2
    18     4    10    1
    19    11    12    2
    20    10    27    1
    21    10    12    1
    22    12    13    1
    23    19    18    1
    24    13    18    1
    25    13    14    2
    26    18    17    1
    27    14    15    2
    28    15    28    1
    29    15    16    1
    30    17    30    1
    31    17    16    2
    32    16    29    1
