@<TRIPOS>MOLECULE
1o34_801_A_1.pdb
 30 32 0 0 0
SMALL
GASTEIGER

@<TRIPOS>ATOM
      1  C1        43.9810   -3.0230   26.2160 C.2   246  801246      0.0493
      2  C2        44.5110   -1.7140   26.2640 C.2   246  801246     -0.0485
      3  C3        44.4860   -0.9620   27.4130 C.2   246  801246     -0.0372
      4  C4        43.9310   -1.5300   28.5240 C.2   246  801246      0.0675
      5  C5        43.3970   -2.7740   28.5200 C.2   246  801246      0.1233
      6  C6        43.4050   -3.5600   27.3670 C.3   246  801246      0.0604
      7  C7        44.0540   -3.7690   25.0350 C.2   246  801246      0.2628
      8  N1        43.7670   -5.0590   25.0530 N.pl3 246  801246     -0.2500
      9  N2        44.4230   -3.1350   23.9350 N.2   246  801246     -0.2887
     10  N3        43.7780   -1.0920   29.7220 N.pl3 246  801246     -0.2847
     11  N4        42.9210   -3.1120   29.7000 N.2   246  801246     -0.3872
     12  C8        43.1860   -2.0210   30.3930 C.2   246  801246      0.2163
     13  C1'       42.9830   -1.8940   31.7530 C.2   246  801246      0.2115
     14  N2'       42.6900   -2.9800   32.4360 N.2   246  801246     -0.4073
     15  C3'       42.4890   -2.9900   33.7380 C.2   246  801246      0.0642
     16  C4'       42.5700   -1.7940   34.4430 C.3   246  801246      0.0398
     17  C5'       42.8780   -0.6150   33.7670 C.2   246  801246     -0.0236
     18  C6'       43.1010   -0.6600   32.4020 C.2   246  801246      0.2172
     19  O6'       43.4180    0.4850   31.7020 O.2   246  801246     -0.2847
     20  HC2       44.9630   -1.2680   25.3940 H     246  801246      0.0624
     21  HC3       44.8950    0.0340   27.4620 H     246  801246      0.0637
     22  HC6       42.9800   -4.5460   27.3690 H     246  801246      0.0436
     23 HH11       43.5240   -5.4900   25.9370 H     246  801246      0.2883
     24 HH12       43.8070   -5.6760   24.2770 H     246  801246      0.2883
     25 HH21       44.6210   -2.1440   23.9660 H     246  801246      0.3009
     26 HH22       44.5520   -3.5820   23.0580 H     246  801246      0.3009
     27  HN3       44.0260   -0.2210   30.1150 H     246  801246      0.1547
     28 HC3'       42.6900   -3.9010   34.2800 H     246  801246      0.0928
     29 HC4'       42.4110   -1.7870   35.5120 H     246  801246      0.0422
     30 HC5'       42.9620    0.3180   34.3030 H     246  801246      0.0618
@<TRIPOS>BOND
     1    26     9    1
     2     9    25    1
     3     9     7    2
     4    24     8    1
     5     7     8    1
     6     7     1    1
     7     8    23    1
     8    20     2    1
     9     1     2    2
    10     1     6    1
    11     2     3    1
    12     6    22    1
    13     6     5    1
    14     3    21    1
    15     3     4    2
    16     5     4    1
    17     5    11    2
    18     4    10    1
    19    11    12    2
    20    10    27    1
    21    10    12    1
    22    12    13    1
    23    19    18    1
    24    13    18    1
    25    13    14    2
    26    18    17    2
    27    14    15    2
    28    15    28    1
    29    15    16    1
    30    17    30    1
    31    17    16    1
    32    16    29    1
