@<TRIPOS>MOLECULE
1o35_802_A_1.pdb
 31 33 0 0 0
SMALL
GASTEIGER

@<TRIPOS>ATOM
      1  C1        44.3020   -2.8610   26.6630 C.2   246  802246      0.0493
      2  C2        44.7860   -1.5240   26.6370 C.2   246  802246     -0.0485
      3  C3        44.7880   -0.7410   27.7960 C.2   246  802246     -0.0372
      4  C4        44.3120   -1.2930   28.9670 C.2   246  802246      0.0674
      5  C5        43.7690   -2.5260   29.0090 C.2   246  802246      0.1232
      6  C6        43.7580   -3.3510   27.8630 C.3   246  802246      0.0604
      7  C7        44.3110   -3.6160   25.4790 C.2   246  802246      0.2628
      8  N1        44.1310   -4.9040   25.5110 N.pl3 246  802246     -0.2500
      9  N2        44.5530   -3.0780   24.3050 N.2   246  802246     -0.2887
     10  N3        44.1810   -0.7830   30.1530 N.pl3 246  802246     -0.2868
     11  N4        43.3780   -2.8400   30.2310 N.2   246  802246     -0.3899
     12  C8        43.6250   -1.7090   30.8870 C.2   246  802246      0.1859
     13  C1'       43.3440   -1.5260   32.2390 C.ar  246  802246      0.0766
     14  C2'       42.9840   -2.5940   33.0670 C.ar  246  802246     -0.0113
     15  C3'       42.6920   -2.3630   34.4070 C.ar  246  802246      0.1243
     16  F3'       42.3250   -3.3910   35.2510 F     246  802246     -0.2055
     17  C4'       42.7420   -1.0770   34.9140 C.ar  246  802246     -0.0228
     18  C5'       43.0700   -0.0010   34.0860 C.ar  246  802246     -0.0115
     19  C6'       43.3780   -0.2310   32.7640 C.ar  246  802246      0.1906
     20  O6'       43.7070    0.8320   31.9570 O.3   246  802246     -0.2871
     21  HC2       45.1930   -1.1030   25.7350 H     246  802246      0.0624
     22  HC3       45.1920    0.2610   27.7970 H     246  802246      0.0637
     23  HC6       43.3550   -4.3480   27.9210 H     246  802246      0.0436
     24 HH11       43.9420   -5.3600   26.3770 H     246  802246      0.2883
     25 HH12       44.1330   -5.4300   24.6590 H     246  802246      0.2883
     26 HH21       44.7110   -2.0940   24.2130 H     246  802246      0.3009
     27 HH22       44.5560   -3.6510   23.4860 H     246  802246      0.3009
     28  HN3       44.4580    0.1110   30.4390 H     246  802246      0.1546
     29 HC2'       42.9540   -3.6010   32.6790 H     246  802246      0.0655
     30 HC4'       42.5030   -0.9090   35.9550 H     246  802246      0.0647
     31 HC5'       43.1160    1.0050   34.4820 H     246  802246      0.0657
@<TRIPOS>BOND
     1    27     9    1
     2    26     9    1
     3     9     7    2
     4    25     8    1
     5     7     8    1
     6     7     1    1
     7     8    24    1
     8    21     2    1
     9     2     1    2
    10     2     3    1
    11     1     6    1
    12     3    22    1
    13     3     4    2
    14     6    23    1
    15     6     5    1
    16     4     5    1
    17     4    10    1
    18     5    11    2
    19    10    28    1
    20    10    12    1
    21    11    12    2
    22    12    13    1
    23    20    19    1
    24    13    19   ar
    25    13    14   ar
    26    29    14    1
    27    19    18   ar
    28    14    15   ar
    29    18    31    1
    30    18    17   ar
    31    15    17   ar
    32    15    16    1
    33    17    30    1
