@<TRIPOS>MOLECULE
1o37_653_A_1.pdb
 50 53 0 0 0
SMALL
GASTEIGER

@<TRIPOS>ATOM
      1  C1        44.4980   -2.9990   26.1780 C.2   246  653246      0.0493
      2  C2        44.8270   -1.6290   26.2690 C.2   246  653246     -0.0485
      3  C3        44.7470   -0.8890   27.4430 C.2   246  653246     -0.0372
      4  C4        44.3220   -1.5550   28.5580 C.2   246  653246      0.0674
      5  C5        44.0010   -2.8480   28.5460 C.2   246  653246      0.1232
      6  C6        44.0660   -3.6350   27.3920 C.3   246  653246      0.0604
      7  C7        44.5970   -3.6560   24.9010 C.2   246  653246      0.2628
      8  N1        44.3260   -4.9420   24.7860 N.pl3 246  653246     -0.2500
      9  N2        44.9420   -2.9510   23.8290 N.2   246  653246     -0.2887
     10  N3        44.1480   -1.1200   29.7620 N.pl3 246  653246     -0.2868
     11  N4        43.6220   -3.2620   29.7350 N.2   246  653246     -0.3899
     12  C8        43.7430   -2.1340   30.4310 C.2   246  653246      0.1858
     13  C1'       43.4620   -2.0560   31.8270 C.ar  246  653246      0.0748
     14  C2'       43.0700   -3.2040   32.5180 C.ar  246  653246     -0.0434
     15  C3'       42.7820   -3.1860   33.8820 C.ar  246  653246     -0.0476
     16  CV'       42.3010   -4.1650   34.7970 C.3   246  653246     -0.0434
     17  CW'       40.8180   -4.4770   34.5760 C.3   246  653246     -0.0922
     18  NX'       40.5260   -5.8350   35.1270 N.4   246  653246      0.3783
     19  C4'       42.8870   -2.0100   34.6010 C.ar  246  653246     -0.0472
     20  C5'       43.2720   -0.8370   33.9940 C.ar  246  653246      0.0298
     21  C6'       43.5500   -0.8710   32.6030 C.ar  246  653246      0.1981
     22  O6'       43.8870    0.3130   32.0000 O.3   246  653246     -0.2865
     23  C1B       43.4070    0.3040   34.7740 C.ar  246  653246     -0.0142
     24  C2B       44.6160    1.0330   34.8030 C.ar  246  653246     -0.0539
     25  C3B       44.7790    2.1860   35.5950 C.ar  246  653246     -0.0612
     26  C4B       43.7310    2.6460   36.3850 C.ar  246  653246     -0.0617
     27  C5B       42.5200    1.9470   36.3770 C.ar  246  653246     -0.0612
     28  C6B       42.3600    0.7880   35.5810 C.ar  246  653246     -0.0539
     29  HC2       45.1690   -1.1080   25.3930 H     246  653246      0.0624
     30  HC3       45.0090    0.1560   27.4700 H     246  653246      0.0637
     31  HC6       43.8000   -4.6820   27.4210 H     246  653246      0.0436
     32 HH11       44.0630   -5.4540   25.6190 H     246  653246      0.2883
     33 HH12       44.3450   -5.4680   23.9420 H     246  653246      0.2883
     34 HH21       45.1010   -1.9560   23.9010 H     246  653246      0.3009
     35 HH22       45.0530   -3.3490   22.9240 H     246  653246      0.3009
     36  HN3       44.2730   -0.2100   30.1260 H     246  653246      0.1546
     37 HC2'       42.9900   -4.1390   31.9810 H     246  653246      0.0629
     38 H31A       42.4630   -3.9980   35.8530 H     246  653246      0.0295
     39 H31B       42.9070   -5.0060   34.4880 H     246  653246      0.0295
     40 H32A       40.5700   -4.4630   33.5260 H     246  653246      0.0052
     41 H32B       40.2050   -3.7600   35.1030 H     246  653246      0.0052
     42 H33A       40.4730   -6.5230   34.3490 H     246  653246     -0.0901
     43 H33B       39.6230   -5.8260   35.6450 H     246  653246     -0.0901
     44 H33C       41.2890   -6.1120   35.7780 H     246  653246     -0.0901
     45 HC4'       42.6620   -2.0150   35.6570 H     246  653246      0.0627
     46  H2B       45.4400    0.6910   34.1930 H     246  653246      0.0624
     47  H3B       45.7180    2.7160   35.5920 H     246  653246      0.0618
     48  H4B       43.8510    3.5290   36.9930 H     246  653246      0.0618
     49  H5B       41.6950    2.2950   36.9780 H     246  653246      0.0618
     50  H6B       41.4180    0.2550   35.5870 H     246  653246      0.0624
@<TRIPOS>BOND
     1    35     9    1
     2     9    34    1
     3     9     7    2
     4    33     8    1
     5     8     7    1
     6     8    32    1
     7     7     1    1
     8    29     2    1
     9     1     2    2
    10     1     6    1
    11     2     3    1
    12     6    31    1
    13     6     5    1
    14     3    30    1
    15     3     4    2
    16     5     4    1
    17     5    11    2
    18     4    10    1
    19    11    12    2
    20    10    36    1
    21    10    12    1
    22    12    13    1
    23    13    14   ar
    24    13    21   ar
    25    37    14    1
    26    22    21    1
    27    14    15   ar
    28    21    20   ar
    29    40    17    1
    30    15    19   ar
    31    15    16    1
    32    20    19   ar
    33    20    23    1
    34    46    24    1
    35    42    18    1
    36    39    16    1
    37    17    16    1
    38    17    41    1
    39    17    18    1
    40    19    45    1
    41    23    24   ar
    42    23    28   ar
    43    16    38    1
    44    24    25   ar
    45    18    43    1
    46    18    44    1
    47    28    50    1
    48    28    27   ar
    49    47    25    1
    50    25    26   ar
    51    27    26   ar
    52    27    49    1
    53    26    48    1
