@<TRIPOS>MOLECULE
1o38_653_A_1.pdb
 50 53 0 0 0
SMALL
GASTEIGER

@<TRIPOS>ATOM
      1  C1        44.0220   -3.0310   26.2340 C.2   246  653246      0.0493
      2  C2        44.3330   -1.6250   26.2420 C.2   246  653246     -0.0485
      3  C3        44.2310   -0.8210   27.3730 C.2   246  653246     -0.0372
      4  C4        43.8170   -1.4340   28.5140 C.2   246  653246      0.0674
      5  C5        43.5170   -2.7500   28.5750 C.2   246  653246      0.1232
      6  C6        43.5910   -3.6040   27.4670 C.3   246  653246      0.0604
      7  C7        44.1530   -3.7910   25.0430 C.2   246  653246      0.2628
      8  N1        43.9290   -5.0950   25.0620 N.pl3 246  653246     -0.2500
      9  N2        44.4950   -3.1640   23.9270 N.2   246  653246     -0.2887
     10  N3        43.6520   -0.9510   29.6990 N.pl3 246  653246     -0.2868
     11  N4        43.1500   -3.1160   29.7900 N.2   246  653246     -0.3899
     12  C8        43.2560   -1.9520   30.4260 C.2   246  653246      0.1858
     13  C1'       43.0090   -1.8400   31.8180 C.ar  246  653246      0.0748
     14  C2'       42.6560   -2.9710   32.5930 C.ar  246  653246     -0.0434
     15  C3'       42.4060   -2.8870   33.9640 C.ar  246  653246     -0.0476
     16  CV'       42.0430   -4.1490   34.8160 C.3   246  653246     -0.0434
     17  CW'       40.5370   -4.5580   34.6550 C.3   246  653246     -0.0922
     18  NX'       40.3380   -5.9590   35.2030 N.4   246  653246      0.3783
     19  C4'       42.5060   -1.6430   34.5750 C.ar  246  653246     -0.0472
     20  C5'       42.8490   -0.4840   33.8720 C.ar  246  653246      0.0298
     21  C6'       43.0940   -0.6050   32.4980 C.ar  246  653246      0.1981
     22  O6'       43.4330    0.5290   31.8090 O.3   246  653246     -0.2865
     23  C1B       42.9280    0.7280   34.5730 C.ar  246  653246     -0.0142
     24  C2B       44.1210    1.4670   34.6850 C.ar  246  653246     -0.0539
     25  C3B       44.1730    2.6630   35.4210 C.ar  246  653246     -0.0612
     26  C4B       43.0420    3.1580   36.0620 C.ar  246  653246     -0.0617
     27  C5B       41.8450    2.4450   35.9660 C.ar  246  653246     -0.0612
     28  C6B       41.7920    1.2510   35.2280 C.ar  246  653246     -0.0539
     29  HC2       44.6760   -1.1500   25.3460 H     246  653246      0.0624
     30  HC3       44.4610    0.2300   27.3610 H     246  653246      0.0637
     31  HC6       43.3340   -4.6530   27.5530 H     246  653246      0.0436
     32 HH11       43.6880   -5.5170   25.9520 H     246  653246      0.2883
     33 HH12       43.9790   -5.7190   24.2870 H     246  653246      0.2883
     34 HH21       44.6410   -2.1640   23.9310 H     246  653246      0.3009
     35 HH22       44.6500   -3.6320   23.0600 H     246  653246      0.3009
     36  HN3       43.7570   -0.0290   30.0230 H     246  653246      0.1546
     37 HC2'       42.5740   -3.9360   32.1110 H     246  653246      0.0629
     38 H31A       42.2760   -3.9500   35.8630 H     246  653246      0.0295
     39 H31B       42.6970   -4.9580   34.5210 H     246  653246      0.0295
     40 H32A       40.2270   -4.5060   33.6200 H     246  653246      0.0052
     41 H32B       39.9120   -3.8590   35.1990 H     246  653246      0.0052
     42 H33A       40.2810   -6.6820   34.4510 H     246  653246     -0.0901
     43 H33B       39.4730   -6.0370   35.7830 H     246  653246     -0.0901
     44 H33C       41.1480   -6.1920   35.8060 H     246  653246     -0.0901
     45 HC4'       42.3120   -1.5670   35.6370 H     246  653246      0.0627
     46  H2B       45.0170    1.1090   34.1950 H     246  653246      0.0624
     47  H3B       45.1010    3.2140   35.4990 H     246  653246      0.0618
     48  H4B       43.0880    4.0800   36.6320 H     246  653246      0.0618
     49  H5B       40.9550    2.8140   36.4580 H     246  653246      0.0618
     50  H6B       40.8520    0.7180   35.1700 H     246  653246      0.0624
@<TRIPOS>BOND
     1    35     9    1
     2     9    34    1
     3     9     7    2
     4    33     8    1
     5     7     8    1
     6     7     1    1
     7     8    32    1
     8    29     2    1
     9     1     2    2
    10     1     6    1
    11     2     3    1
    12    30     3    1
    13     3     4    2
    14     6    31    1
    15     6     5    1
    16     4     5    1
    17     4    10    1
    18     5    11    2
    19    10    36    1
    20    10    12    1
    21    11    12    2
    22    12    13    1
    23    22    21    1
    24    13    21   ar
    25    13    14   ar
    26    37    14    1
    27    21    20   ar
    28    14    15   ar
    29    40    17    1
    30    20    23    1
    31    20    19   ar
    32    15    19   ar
    33    15    16    1
    34    46    24    1
    35    42    18    1
    36    39    16    1
    37    23    24   ar
    38    23    28   ar
    39    19    45    1
    40    17    16    1
    41    17    41    1
    42    17    18    1
    43    24    25   ar
    44    16    38    1
    45    50    28    1
    46    18    43    1
    47    18    44    1
    48    28    27   ar
    49    25    47    1
    50    25    26   ar
    51    27    26   ar
    52    27    49    1
    53    26    48    1
