@<TRIPOS>MOLECULE
1o39_780_A_1.pdb
 41 44 0 0 0
SMALL
GASTEIGER

@<TRIPOS>ATOM
      1  C1        44.2740   -3.0250   25.9010 C.2   246  780246      0.0492
      2  C2        44.7050   -1.6710   25.9980 C.3   246  780246      0.0224
      3  C3        44.6550   -0.9290   27.1860 C.2   246  780246     -0.0511
      4  C4        44.1650   -1.5680   28.2820 C.2   246  780246      0.0677
      5  C5        43.7430   -2.8330   28.2540 C.2   246  780246      0.1376
      6  C6        43.7710   -3.6160   27.0950 C.2   246  780246     -0.0111
      7  C7        44.3490   -3.7300   24.6640 C.2   246  780246      0.2628
      8  N1        44.0340   -5.0090   24.5820 N.pl3 246  780246     -0.2500
      9  N2        44.7390   -3.0740   23.5990 N.2   246  780246     -0.2887
     10  N3        43.9950   -1.1360   29.4880 N.pl3 246  780246     -0.2867
     11  N4        43.2950   -3.2380   29.4330 N.2   246  780246     -0.3862
     12  C8        43.4870   -2.1310   30.1340 C.2   246  780246      0.1862
     13  C1'       43.2510   -2.0680   31.5330 C.ar  246  780246      0.0745
     14  C2'       42.8990   -3.2180   32.2420 C.ar  246  780246     -0.0465
     15  C3'       42.6650   -3.1810   33.6070 C.ar  246  780246     -0.0603
     16  C4'       42.7710   -2.0060   34.3100 C.ar  246  780246     -0.0503
     17  C5'       43.1180   -0.8120   33.6870 C.ar  246  780246      0.0295
     18  C6'       43.3560   -0.8540   32.2840 C.ar  246  780246      0.1980
     19  O6'       43.6960    0.3170   31.6220 O.3   246  780246     -0.2865
     20  C1B       43.2170    0.3590   34.4670 C.ar  246  780246     -0.0142
     21  C2B       44.3940    1.1260   34.5490 C.ar  246  780246     -0.0539
     22  C3B       44.4710    2.2860   35.3310 C.ar  246  780246     -0.0612
     23  C4B       43.3650    2.7090   36.0560 C.ar  246  780246     -0.0617
     24  C5B       42.1910    1.9690   35.9930 C.ar  246  780246     -0.0612
     25  C6B       42.1230    0.8190   35.2140 C.ar  246  780246     -0.0539
     26  HC2       45.1000   -1.1720   25.1340 H     246  780246      0.0403
     27  HC3       44.9840    0.0940   27.2420 H     246  780246      0.0598
     28  HC6       43.4210   -4.6390   27.1100 H     246  780246      0.0655
     29 HH11       43.7690   -5.4820   25.4350 H     246  780246      0.2883
     30 HH12       44.0510   -5.5700   23.7620 H     246  780246      0.2883
     31 HH21       44.9630   -2.0920   23.6700 H     246  780246      0.3009
     32 HH22       44.8460   -3.4990   22.7060 H     246  780246      0.3009
     33  HN3       44.1750   -0.2550   29.9030 H     246  780246      0.1546
     34 HC2'       42.8060   -4.1620   31.7240 H     246  780246      0.0626
     35 HC3'       42.3940   -4.0870   34.1280 H     246  780246      0.0618
     36 HC4'       42.5780   -2.0200   35.3740 H     246  780246      0.0625
     37  H2B       45.2650    0.8110   33.9930 H     246  780246      0.0624
     38  H3B       45.3870    2.8540   35.3770 H     246  780246      0.0618
     39  H4B       43.4150    3.6020   36.6620 H     246  780246      0.0618
     40  H5B       41.3210    2.2850   36.5510 H     246  780246      0.0618
     41  H6B       41.1950    0.2640   35.1890 H     246  780246      0.0624
@<TRIPOS>BOND
     1    32     9    1
     2     9    31    1
     3     9     7    2
     4    30     8    1
     5     8     7    1
     6     8    29    1
     7     7     1    1
     8    26     2    1
     9     1     2    1
    10     1     6    2
    11     2     3    1
    12     6    28    1
    13     6     5    1
    14     3    27    1
    15     3     4    2
    16     5     4    1
    17     5    11    2
    18     4    10    1
    19    11    12    2
    20    10    33    1
    21    10    12    1
    22    12    13    1
    23    13    14   ar
    24    13    18   ar
    25    19    18    1
    26    34    14    1
    27    14    15   ar
    28    18    17   ar
    29    15    35    1
    30    15    16   ar
    31    17    16   ar
    32    17    20    1
    33    37    21    1
    34    16    36    1
    35    20    21   ar
    36    20    25   ar
    37    21    22   ar
    38    41    25    1
    39    25    24   ar
    40    22    38    1
    41    22    23   ar
    42    24    23   ar
    43    24    40    1
    44    23    39    1
