@<TRIPOS>MOLECULE
1o3a_780_A_1.pdb
 41 44 0 0 0
SMALL
GASTEIGER

@<TRIPOS>ATOM
      1  C1        44.4020   -2.9880   26.5030 C.2   246  780246      0.0492
      2  C2        44.8330   -1.6210   26.5000 C.3   246  780246      0.0224
      3  C3        44.8220   -0.8210   27.6460 C.2   246  780246     -0.0511
      4  C4        44.3780   -1.3940   28.7700 C.2   246  780246      0.0677
      5  C5        43.9710   -2.6780   28.8450 C.2   246  780246      0.1376
      6  C6        43.9570   -3.5200   27.7300 C.2   246  780246     -0.0111
      7  C7        44.4180   -3.7570   25.3350 C.2   246  780246      0.2628
      8  N1        44.2090   -5.0550   25.3910 N.pl3 246  780246     -0.2500
      9  N2        44.6340   -3.1620   24.1870 N.2   246  780246     -0.2887
     10  N3        44.2580   -0.9230   29.9600 N.pl3 246  780246     -0.2867
     11  N4        43.5800   -3.0240   30.0860 N.2   246  780246     -0.3862
     12  C8        43.8090   -1.8860   30.6930 C.2   246  780246      0.1862
     13  C1'       43.5490   -1.7530   32.0560 C.ar  246  780246      0.0745
     14  C2'       43.3000   -2.8840   32.8330 C.ar  246  780246     -0.0465
     15  C3'       42.9880   -2.7770   34.1780 C.ar  246  780246     -0.0603
     16  C4'       42.9210   -1.5290   34.7710 C.ar  246  780246     -0.0503
     17  C5'       43.1620   -0.3470   34.0410 C.ar  246  780246      0.0295
     18  C6'       43.4820   -0.5000   32.6690 C.ar  246  780246      0.1980
     19  O6'       43.8050    0.5710   31.8580 O.3   246  780246     -0.2865
     20  C1B       43.0610    0.8870   34.6970 C.ar  246  780246     -0.0142
     21  C2B       44.1080    1.8140   34.6800 C.ar  246  780246     -0.0539
     22  C3B       44.0180    3.0230   35.3400 C.ar  246  780246     -0.0612
     23  C4B       42.8620    3.3550   36.0500 C.ar  246  780246     -0.0617
     24  C5B       41.8020    2.4640   36.0900 C.ar  246  780246     -0.0612
     25  C6B       41.9040    1.2420   35.4180 C.ar  246  780246     -0.0539
     26  HC2       45.1890   -1.1710   25.5850 H     246  780246      0.0403
     27  HC3       45.1420    0.2040   27.6620 H     246  780246      0.0598
     28  HC6       43.6220   -4.5440   27.8040 H     246  780246      0.0655
     29 HH11       44.0680   -5.4790   26.2970 H     246  780246      0.2883
     30 HH12       44.1620   -5.6760   24.6170 H     246  780246      0.2883
     31 HH21       44.7510   -2.1610   24.1520 H     246  780246      0.3009
     32 HH22       44.7170   -3.6550   23.3250 H     246  780246      0.3009
     33  HN3       44.4470   -0.0260   30.3100 H     246  780246      0.1546
     34 HC2'       43.3510   -3.8630   32.3810 H     246  780246      0.0626
     35 HC3'       42.8030   -3.6660   34.7620 H     246  780246      0.0618
     36 HC4'       42.6720   -1.4700   35.8200 H     246  780246      0.0625
     37  H2B       45.0130    1.5810   34.1390 H     246  780246      0.0624
     38  H3B       44.8520    3.7070   35.3040 H     246  780246      0.0618
     39  H4B       42.7940    4.3000   36.5690 H     246  780246      0.0618
     40  H5B       40.9070    2.7180   36.6390 H     246  780246      0.0618
     41  H6B       41.0670    0.5580   35.4580 H     246  780246      0.0624
@<TRIPOS>BOND
     1    32     9    1
     2    31     9    1
     3     9     7    2
     4    30     8    1
     5     7     8    1
     6     7     1    1
     7     8    29    1
     8    26     2    1
     9     2     1    1
    10     2     3    1
    11     1     6    2
    12     3    27    1
    13     3     4    2
    14     6    28    1
    15     6     5    1
    16     4     5    1
    17     4    10    1
    18     5    11    2
    19    10    33    1
    20    10    12    1
    21    11    12    2
    22    12    13    1
    23    19    18    1
    24    13    18   ar
    25    13    14   ar
    26    34    14    1
    27    18    17   ar
    28    14    15   ar
    29    17    20    1
    30    17    16   ar
    31    37    21    1
    32    15    35    1
    33    15    16   ar
    34    21    20   ar
    35    21    22   ar
    36    20    25   ar
    37    16    36    1
    38    38    22    1
    39    22    23   ar
    40    25    41    1
    41    25    24   ar
    42    23    24   ar
    43    23    39    1
    44    24    40    1
