@<TRIPOS>MOLECULE
1o3b_780_A_1.pdb
 41 44 0 0 0
SMALL
GASTEIGER

@<TRIPOS>ATOM
      1  C1        44.3240   -2.9170   26.5310 C.2   246  780246      0.0492
      2  C2        44.7870   -1.5640   26.5240 C.3   246  780246      0.0224
      3  C3        44.7780   -0.7470   27.6710 C.2   246  780246     -0.0511
      4  C4        44.3040   -1.3040   28.8230 C.2   246  780246      0.0677
      5  C5        43.8610   -2.5680   28.8750 C.2   246  780246      0.1376
      6  C6        43.8470   -3.4190   27.7680 C.2   246  780246     -0.0111
      7  C7        44.3460   -3.6970   25.3680 C.2   246  780246      0.2628
      8  N1        44.1500   -4.9930   25.4240 N.pl3 246  780246     -0.2500
      9  N2        44.5590   -3.1040   24.2170 N.2   246  780246     -0.2887
     10  N3        44.1900   -0.8020   30.0110 N.pl3 246  780246     -0.2867
     11  N4        43.4640   -2.9130   30.0810 N.2   246  780246     -0.3862
     12  C8        43.6990   -1.7780   30.7160 C.2   246  780246      0.1862
     13  C1'       43.3550   -1.6750   32.0630 C.ar  246  780246      0.0745
     14  C2'       43.0420   -2.8080   32.8140 C.ar  246  780246     -0.0465
     15  C3'       42.6950   -2.7250   34.1500 C.ar  246  780246     -0.0603
     16  C4'       42.6490   -1.4910   34.7670 C.ar  246  780246     -0.0503
     17  C5'       42.9520   -0.3070   34.0770 C.ar  246  780246      0.0295
     18  C6'       43.3020   -0.4460   32.7150 C.ar  246  780246      0.1980
     19  O6'       43.6250    0.6460   31.9490 O.3   246  780246     -0.2865
     20  C1B       42.8910    0.9280   34.7500 C.ar  246  780246     -0.0142
     21  C2B       43.9520    1.8180   34.7220 C.ar  246  780246     -0.0539
     22  C3B       43.9300    3.0260   35.3780 C.ar  246  780246     -0.0612
     23  C4B       42.8160    3.3890   36.1030 C.ar  246  780246     -0.0617
     24  C5B       41.7270    2.5380   36.1640 C.ar  246  780246     -0.0612
     25  C6B       41.7680    1.3200   35.4940 C.ar  246  780246     -0.0539
     26  HC2       45.1630   -1.1370   25.6100 H     246  780246      0.0403
     27  HC3       45.1280    0.2700   27.6630 H     246  780246      0.0598
     28  HC6       43.4790   -4.4320   27.8550 H     246  780246      0.0655
     29 HH11       43.9980   -5.4260   26.3230 H     246  780246      0.2883
     30 HH12       44.1510   -5.6150   24.6460 H     246  780246      0.2883
     31 HH21       44.6640   -2.1000   24.1860 H     246  780246      0.3009
     32 HH22       44.6620   -3.5950   23.3550 H     246  780246      0.3009
     33  HN3       44.4150    0.1020   30.3110 H     246  780246      0.1546
     34 HC2'       43.0710   -3.7840   32.3480 H     246  780246      0.0626
     35 HC3'       42.4540   -3.6220   34.7050 H     246  780246      0.0618
     36 HC4'       42.3730   -1.4510   35.8100 H     246  780246      0.0625
     37  H2B       44.8220    1.5540   34.1590 H     246  780246      0.0624
     38  H3B       44.7860    3.6830   35.3280 H     246  780246      0.0618
     39  H4B       42.7890    4.3370   36.6140 H     246  780246      0.0618
     40  H5B       40.8520    2.8180   36.7290 H     246  780246      0.0618
     41  H6B       41.0000    0.6670   35.5520 H     246  780246      0.0624
@<TRIPOS>BOND
     1    32     9    1
     2    31     9    1
     3     9     7    2
     4    30     8    1
     5     7     8    1
     6     7     1    1
     7     8    29    1
     8    26     2    1
     9     2     1    1
    10     2     3    1
    11     1     6    2
    12    27     3    1
    13     3     4    2
    14     6    28    1
    15     6     5    1
    16     4     5    1
    17     4    10    1
    18     5    11    2
    19    10    33    1
    20    10    12    1
    21    11    12    2
    22    12    13    1
    23    19    18    1
    24    13    18   ar
    25    13    14   ar
    26    34    14    1
    27    18    17   ar
    28    14    15   ar
    29    17    20    1
    30    17    16   ar
    31    15    35    1
    32    15    16   ar
    33    37    21    1
    34    21    20   ar
    35    21    22   ar
    36    20    25   ar
    37    16    36    1
    38    38    22    1
    39    22    23   ar
    40    25    41    1
    41    25    24   ar
    42    23    24   ar
    43    23    39    1
    44    24    40    1
