@<TRIPOS>MOLECULE
1o3c_780_A_1.pdb
 41 44 0 0 0
SMALL
GASTEIGER

@<TRIPOS>ATOM
      1  C1        44.3310   -2.8890   26.5230 C.2   246  780246      0.0492
      2  C2        44.7660   -1.5300   26.5360 C.3   246  780246      0.0224
      3  C3        44.7590   -0.7320   27.6890 C.2   246  780246     -0.0511
      4  C4        44.3090   -1.3210   28.8200 C.2   246  780246      0.0677
      5  C5        43.8950   -2.5930   28.8680 C.2   246  780246      0.1376
      6  C6        43.8820   -3.4230   27.7500 C.2   246  780246     -0.0111
      7  C7        44.3590   -3.6570   25.3440 C.2   246  780246      0.2628
      8  N1        44.1300   -4.9500   25.3840 N.pl3 246  780246     -0.2500
      9  N2        44.6110   -3.0680   24.1950 N.2   246  780246     -0.2887
     10  N3        44.2090   -0.8350   30.0140 N.pl3 246  780246     -0.2867
     11  N4        43.5170   -2.9620   30.0840 N.2   246  780246     -0.3862
     12  C8        43.7440   -1.8260   30.7210 C.2   246  780246      0.1862
     13  C1'       43.4140   -1.7110   32.0690 C.ar  246  780246      0.0745
     14  C2'       43.0880   -2.8300   32.8300 C.ar  246  780246     -0.0465
     15  C3'       42.7560   -2.7150   34.1610 C.ar  246  780246     -0.0603
     16  C4'       42.7420   -1.4770   34.7620 C.ar  246  780246     -0.0503
     17  C5'       43.0610   -0.2960   34.0580 C.ar  246  780246      0.0295
     18  C6'       43.3940   -0.4630   32.6990 C.ar  246  780246      0.1980
     19  O6'       43.7350    0.5980   31.8960 O.3   246  780246     -0.2865
     20  C1B       43.0140    0.9360   34.7450 C.ar  246  780246     -0.0142
     21  C2B       44.0810    1.8250   34.7700 C.ar  246  780246     -0.0539
     22  C3B       44.0310    3.0160   35.4770 C.ar  246  780246     -0.0612
     23  C4B       42.8900    3.3580   36.1880 C.ar  246  780246     -0.0617
     24  C5B       41.8070    2.5030   36.1900 C.ar  246  780246     -0.0612
     25  C6B       41.8710    1.3120   35.4770 C.ar  246  780246     -0.0539
     26  HC2       45.1230   -1.0780   25.6260 H     246  780246      0.0403
     27  HC3       45.0870    0.2920   27.6990 H     246  780246      0.0598
     28  HC6       43.5360   -4.4440   27.8240 H     246  780246      0.0655
     29 HH11       43.9610   -5.3870   26.2800 H     246  780246      0.2883
     30 HH12       44.1240   -5.5630   24.5980 H     246  780246      0.2883
     31 HH21       44.7400   -2.0700   24.1660 H     246  780246      0.3009
     32 HH22       44.7030   -3.5580   23.3310 H     246  780246      0.3009
     33  HN3       44.4190    0.0740   30.3160 H     246  780246      0.1546
     34 HC2'       43.0950   -3.8090   32.3690 H     246  780246      0.0626
     35 HC3'       42.5050   -3.5950   34.7320 H     246  780246      0.0618
     36 HC4'       42.4790   -1.4210   35.8080 H     246  780246      0.0625
     37  H2B       44.9720    1.5840   34.2200 H     246  780246      0.0624
     38  H3B       44.8830    3.6800   35.4720 H     246  780246      0.0618
     39  H4B       42.8390    4.2830   36.7360 H     246  780246      0.0618
     40  H5B       40.9150    2.7590   36.7410 H     246  780246      0.0618
     41  H6B       41.0100    0.6580   35.4890 H     246  780246      0.0624
@<TRIPOS>BOND
     1    32     9    1
     2    31     9    1
     3     9     7    2
     4    30     8    1
     5     7     8    1
     6     7     1    1
     7     8    29    1
     8    26     2    1
     9     1     2    1
    10     1     6    2
    11     2     3    1
    12     3    27    1
    13     3     4    2
    14     6    28    1
    15     6     5    1
    16     4     5    1
    17     4    10    1
    18     5    11    2
    19    10    33    1
    20    10    12    1
    21    11    12    2
    22    12    13    1
    23    19    18    1
    24    13    18   ar
    25    13    14   ar
    26    34    14    1
    27    18    17   ar
    28    14    15   ar
    29    17    20    1
    30    17    16   ar
    31    15    35    1
    32    15    16   ar
    33    37    21    1
    34    20    21   ar
    35    20    25   ar
    36    16    36    1
    37    21    22   ar
    38    38    22    1
    39    25    41    1
    40    25    24   ar
    41    22    23   ar
    42    23    24   ar
    43    23    39    1
    44    24    40    1
