@<TRIPOS>MOLECULE
1o3d_780_A_1.pdb
 41 44 0 0 0
SMALL
GASTEIGER

@<TRIPOS>ATOM
      1  C1        44.0740   -3.0450   26.1440 C.2   246  780246      0.0493
      2  C2        44.3730   -1.6480   26.1430 C.2   246  780246     -0.0485
      3  C3        44.2860   -0.8450   27.2840 C.2   246  780246     -0.0372
      4  C4        43.8980   -1.4660   28.4440 C.2   246  780246      0.0674
      5  C5        43.6130   -2.7750   28.5110 C.2   246  780246      0.1232
      6  C6        43.6830   -3.6180   27.3890 C.3   246  780246      0.0604
      7  C7        44.1900   -3.7910   24.9550 C.2   246  780246      0.2628
      8  N1        43.9180   -5.0750   24.9340 N.pl3 246  780246     -0.2500
      9  N2        44.5740   -3.1680   23.8560 N.2   246  780246     -0.2887
     10  N3        43.7480   -1.0060   29.6280 N.pl3 246  780246     -0.2868
     11  N4        43.2670   -3.1460   29.7330 N.2   246  780246     -0.3899
     12  C8        43.3750   -1.9840   30.3600 C.2   246  780246      0.1858
     13  C1'       43.1120   -1.8690   31.7450 C.ar  246  780246      0.0745
     14  C2'       42.7840   -2.9940   32.5200 C.ar  246  780246     -0.0465
     15  C3'       42.5220   -2.8930   33.8830 C.ar  246  780246     -0.0603
     16  C4'       42.5840   -1.6720   34.5030 C.ar  246  780246     -0.0503
     17  C5'       42.9040   -0.5010   33.8060 C.ar  246  780246      0.0295
     18  C6'       43.1620   -0.6300   32.4260 C.ar  246  780246      0.1980
     19  O6'       43.4600    0.5010   31.7040 O.3   246  780246     -0.2865
     20  C1B       42.9640    0.7150   34.5110 C.ar  246  780246     -0.0142
     21  C2B       44.1120    1.5220   34.5090 C.ar  246  780246     -0.0539
     22  C3B       44.1810    2.7080   35.2320 C.ar  246  780246     -0.0612
     23  C4B       43.0960    3.1220   35.9770 C.ar  246  780246     -0.0617
     24  C5B       41.9460    2.3580   36.0050 C.ar  246  780246     -0.0612
     25  C6B       41.8830    1.1720   35.2810 C.ar  246  780246     -0.0539
     26  HC2       44.6790   -1.1670   25.2340 H     246  780246      0.0624
     27  HC3       44.5080    0.2070   27.2660 H     246  780246      0.0637
     28  HC6       43.4410   -4.6660   27.4740 H     246  780246      0.0436
     29 HH11       43.6570   -5.5130   25.8060 H     246  780246      0.2883
     30 HH12       43.9720   -5.6740   24.1410 H     246  780246      0.2883
     31 HH21       44.7600   -2.1780   23.8810 H     246  780246      0.3009
     32 HH22       44.7230   -3.6300   22.9870 H     246  780246      0.3009
     33  HN3       43.8900   -0.0540   29.8930 H     246  780246      0.1546
     34 HC2'       42.7320   -3.9660   32.0560 H     246  780246      0.0626
     35 HC3'       42.2700   -3.7690   34.4600 H     246  780246      0.0618
     36 HC4'       42.3750   -1.6210   35.5610 H     246  780246      0.0625
     37  H2B       44.9680    1.2150   33.9280 H     246  780246      0.0624
     38  H3B       45.0800    3.3060   35.2150 H     246  780246      0.0618
     39  H4B       43.1360    4.0410   36.5320 H     246  780246      0.0618
     40  H5B       41.0970    2.6830   36.5880 H     246  780246      0.0618
     41  H6B       41.0030    0.5910   35.3150 H     246  780246      0.0624
@<TRIPOS>BOND
     1    32     9    1
     2     9    31    1
     3     9     7    2
     4    30     8    1
     5     8     7    1
     6     8    29    1
     7     7     1    1
     8    26     2    1
     9     2     1    2
    10     2     3    1
    11     1     6    1
    12    27     3    1
    13     3     4    2
    14     6    28    1
    15     6     5    1
    16     4     5    1
    17     4    10    1
    18     5    11    2
    19    10    33    1
    20    10    12    1
    21    11    12    2
    22    12    13    1
    23    19    18    1
    24    13    18   ar
    25    13    14   ar
    26    34    14    1
    27    18    17   ar
    28    14    15   ar
    29    17    16   ar
    30    17    20    1
    31    15    35    1
    32    15    16   ar
    33    37    21    1
    34    16    36    1
    35    21    20   ar
    36    21    22   ar
    37    20    25   ar
    38    38    22    1
    39    22    23   ar
    40    25    41    1
    41    25    24   ar
    42    23    24   ar
    43    23    39    1
    44    24    40    1
