@<TRIPOS>MOLECULE
1o3e_696_A_1.pdb
 41 44 0 0 0
SMALL
GASTEIGER

@<TRIPOS>ATOM
      1  C1        44.3120   -3.0750   26.4970 C.ar  246  696246      0.0615
      2  C2        44.6700   -1.6920   26.4710 C.ar  246  696246     -0.0451
      3  C3        44.6720   -0.8720   27.6030 C.ar  246  696246     -0.0370
      4  C4        44.3020   -1.4620   28.7630 C.ar  246  696246      0.0476
      5  C5        43.9530   -2.7800   28.8630 C.ar  246  696246      0.0089
      6  C6        43.9430   -3.6280   27.7490 C.ar  246  696246     -0.0373
      7  C7        44.3430   -3.8310   25.3190 C.2   246  696246      0.2662
      8  N1        44.0400   -5.1120   25.3400 N.pl3 246  696246     -0.2497
      9  N2        44.6870   -3.2250   24.1970 N.2   246  696246     -0.2884
     10  N3        44.2120   -1.0010   29.9660 N.ar  246  696246     -0.3536
     11  CN4       43.6470   -3.1350   30.1200 C.ar  246  696246      0.0179
     12  C8        43.8430   -1.9850   30.7110 C.ar  246  696246      0.0591
     13  C1'       43.5710   -1.8430   32.0690 C.ar  246  696246      0.0462
     14  C2'       43.3280   -2.9750   32.8530 C.ar  246  696246     -0.0489
     15  C3'       43.0450   -2.8810   34.2010 C.ar  246  696246     -0.0603
     16  C4'       42.9980   -1.6440   34.8050 C.ar  246  696246     -0.0503
     17  C5'       43.2290   -0.4620   34.0680 C.ar  246  696246      0.0295
     18  C6'       43.5180   -0.5850   32.6990 C.ar  246  696246      0.1957
     19  O6'       43.7790    0.5550   31.9530 O.3   246  696246     -0.2866
     20  C1B       43.1620    0.7840   34.7020 C.ar  246  696246     -0.0142
     21  C2B       44.1870    1.7290   34.5880 C.ar  246  696246     -0.0539
     22  C3B       44.1240    2.9570   35.2250 C.ar  246  696246     -0.0612
     23  C4B       43.0300    3.2880   36.0040 C.ar  246  696246     -0.0617
     24  C5B       41.9850    2.3730   36.1400 C.ar  246  696246     -0.0612
     25  C6B       42.0560    1.1370   35.4920 C.ar  246  696246     -0.0539
     26  H2        44.9630   -1.2310   25.5440 H     246  696246      0.0627
     27  H3        44.9440    0.1650   27.5810 H     246  696246      0.0638
     28  H6        43.6660   -4.6690   27.8370 H     246  696246      0.0633
     29 HH11       43.7960   -5.5430   26.2220 H     246  696246      0.2883
     30 HH12       44.0240   -5.7140   24.5460 H     246  696246      0.2883
     31 HH21       44.9050   -2.2430   24.1940 H     246  696246      0.3009
     32 HH22       44.7750   -3.7010   23.3270 H     246  696246      0.3009
     33  HN3       44.3670   -0.1110   30.3670 H     246  696246      0.1659
     34  H2'       43.3610   -3.9580   32.3960 H     246  696246      0.0625
     35  H3'       42.8670   -3.7760   34.7790 H     246  696246      0.0618
     36  H4'       42.7780   -1.5900   35.8590 H     246  696246      0.0625
     37  H2B       45.0580    1.4960   33.9870 H     246  696246      0.0624
     38  H3B       44.9370    3.6560   35.1090 H     246  696246      0.0618
     39  H4B       42.9880    4.2450   36.5020 H     246  696246      0.0618
     40  H5B       41.1230    2.6150   36.7430 H     246  696246      0.0618
     41  H6B       41.2390    0.4360   35.6040 H     246  696246      0.0624
@<TRIPOS>BOND
     1    32     9    1
     2    31     9    1
     3     9     7    2
     4    30     8    1
     5     7     8    1
     6     7     1    1
     7     8    29    1
     8    26     2    1
     9     2     1   ar
    10     2     3   ar
    11     1     6   ar
    12    27     3    1
    13     3     4   ar
    14     6    28    1
    15     6     5   ar
    16     4     5   ar
    17     4    10   ar
    18     5    11   ar
    19    10    33    1
    20    10    12   ar
    21    11    12   ar
    22    12    13    1
    23    19    18    1
    24    13    18   ar
    25    13    14   ar
    26    34    14    1
    27    18    17   ar
    28    14    15   ar
    29    37    21    1
    30    17    20    1
    31    17    16   ar
    32    15    35    1
    33    15    16   ar
    34    21    20   ar
    35    21    22   ar
    36    20    25   ar
    37    16    36    1
    38    38    22    1
    39    22    23   ar
    40    25    41    1
    41    25    24   ar
    42    23    24   ar
    43    23    39    1
    44    24    40    1
