@<TRIPOS>MOLECULE
1o3f_696_A_1.pdb
 41 44 0 0 0
SMALL
GASTEIGER

@<TRIPOS>ATOM
      1  C1        44.2570   -3.0900   26.6230 C.ar  246  696246      0.0615
      2  C2        44.6160   -1.6990   26.6140 C.ar  246  696246     -0.0451
      3  C3        44.5970   -0.9100   27.7630 C.ar  246  696246     -0.0370
      4  C4        44.2190   -1.5220   28.9120 C.ar  246  696246      0.0476
      5  C5        43.8760   -2.8110   28.9950 C.ar  246  696246      0.0089
      6  C6        43.8740   -3.6490   27.8750 C.ar  246  696246     -0.0373
      7  C7        44.3090   -3.8330   25.4280 C.2   246  696246      0.2662
      8  N1        44.0290   -5.1160   25.4280 N.pl3 246  696246     -0.2497
      9  N2        44.6390   -3.2350   24.3000 N.2   246  696246     -0.2884
     10  N3        44.1380   -1.0270   30.0930 N.ar  246  696246     -0.3536
     11  CN4       43.5630   -3.1650   30.2360 C.ar  246  696246      0.0179
     12  C8        43.7520   -2.0100   30.8460 C.ar  246  696246      0.0591
     13  C1'       43.4930   -1.8600   32.2100 C.ar  246  696246      0.0462
     14  C2'       43.2460   -2.9610   33.0230 C.ar  246  696246     -0.0489
     15  C3'       42.9840   -2.8260   34.3670 C.ar  246  696246     -0.0603
     16  C4'       42.9590   -1.5750   34.9360 C.ar  246  696246     -0.0503
     17  C5'       43.1980   -0.4060   34.1790 C.ar  246  696246      0.0295
     18  C6'       43.4640   -0.5890   32.8210 C.ar  246  696246      0.1957
     19  O6'       43.7270    0.5210   32.0460 O.3   246  696246     -0.2866
     20  C1B       43.1380    0.8680   34.7920 C.ar  246  696246     -0.0142
     21  C2B       44.1270    1.8280   34.6310 C.ar  246  696246     -0.0539
     22  C3B       44.0730    3.0550   35.2570 C.ar  246  696246     -0.0612
     23  C4B       43.0170    3.3770   36.0720 C.ar  246  696246     -0.0617
     24  C5B       41.9940    2.4580   36.2690 C.ar  246  696246     -0.0612
     25  C6B       42.0620    1.2220   35.6310 C.ar  246  696246     -0.0539
     26  H2        44.9160   -1.2250   25.6940 H     246  696246      0.0627
     27  H3        44.8660    0.1330   27.7500 H     246  696246      0.0638
     28  H6        43.5880   -4.6850   27.9640 H     246  696246      0.0633
     29 HH11       43.7980   -5.5580   26.3100 H     246  696246      0.2883
     30 HH12       44.0470   -5.7160   24.6330 H     246  696246      0.2883
     31 HH21       44.8360   -2.2480   24.2980 H     246  696246      0.3009
     32 HH22       44.7520   -3.7170   23.4350 H     246  696246      0.3009
     33  HN3       44.3350   -0.1070   30.3450 H     246  696246      0.1659
     34  H2'       43.2610   -3.9500   32.5900 H     246  696246      0.0625
     35  H3'       42.7980   -3.6970   34.9740 H     246  696246      0.0618
     36  H4'       42.7490   -1.4960   35.9920 H     246  696246      0.0625
     37  H2B       44.9600    1.6120   33.9880 H     246  696246      0.0624
     38  H3B       44.8660    3.7680   35.1130 H     246  696246      0.0618
     39  H4B       42.9860    4.3420   36.5520 H     246  696246      0.0618
     40  H5B       41.1550    2.6990   36.9070 H     246  696246      0.0618
     41  H6B       41.2570    0.5190   35.7890 H     246  696246      0.0624
@<TRIPOS>BOND
     1    32     9    1
     2    31     9    1
     3     9     7    2
     4    30     8    1
     5     7     8    1
     6     7     1    1
     7     8    29    1
     8    26     2    1
     9     2     1   ar
    10     2     3   ar
    11     1     6   ar
    12    27     3    1
    13     3     4   ar
    14     6    28    1
    15     6     5   ar
    16     4     5   ar
    17     4    10   ar
    18     5    11   ar
    19    10    33    1
    20    10    12   ar
    21    11    12   ar
    22    12    13    1
    23    19    18    1
    24    13    18   ar
    25    13    14   ar
    26    34    14    1
    27    18    17   ar
    28    14    15   ar
    29    37    21    1
    30    17    20    1
    31    17    16   ar
    32    15    16   ar
    33    15    35    1
    34    21    20   ar
    35    21    22   ar
    36    20    25   ar
    37    16    36    1
    38    38    22    1
    39    22    23   ar
    40    25    41    1
    41    25    24   ar
    42    23    24   ar
    43    23    39    1
    44    24    40    1
