@<TRIPOS>MOLECULE
1o3h_907_A_1.pdb
 35 37 0 0 0
SMALL
GASTEIGER

@<TRIPOS>ATOM
      1  C1        43.9920   -3.0850   26.0230 C.ar  246  907246      0.0615
      2  C2        44.3040   -1.7060   26.1130 C.ar  246  907246     -0.0451
      3  C3        44.1810   -1.0010   27.3120 C.ar  246  907246     -0.0370
      4  C4        43.7530   -1.6780   28.4200 C.ar  246  907246      0.0470
      5  C5        43.4410   -2.9980   28.3750 C.ar  246  907246      0.0011
      6  C6        43.5400   -3.7500   27.1920 C.ar  246  907246     -0.0378
      7  C7        44.1550   -3.7530   24.7840 C.2   246  907246      0.2662
      8  N1        43.8530   -5.0280   24.6700 N.pl3 246  907246     -0.2497
      9  N2        44.6180   -3.0670   23.7560 N.2   246  907246     -0.2884
     10  N3        43.5800   -1.2370   29.6300 N.ar  246  907246     -0.3540
     11  CN4       43.0550   -3.3590   29.6590 C.ar  246  907246     -0.0285
     12  C8        43.1700   -2.1950   30.4230 C.ar  246  907246      0.0512
     13  C1'       42.9440   -2.0180   31.8010 C.ar  246  907246      0.0463
     14  C2'       42.5940   -3.1000   32.6100 C.ar  246  907246     -0.0460
     15  C3'       42.3750   -2.9290   33.9790 C.ar  246  907246     -0.0486
     16  CV'       41.9910   -4.1270   34.8490 C.3   246  907246     -0.0397
     17  C4'       42.5070   -1.6770   34.5530 C.ar  246  907246     -0.0411
     18  C5'       42.8540   -0.6020   33.7630 C.ar  246  907246      0.0654
     19  C6'       43.0760   -0.7450   32.3950 C.ar  246  907246      0.2019
     20  O6'       43.3980    0.3720   31.6390 O.3   246  907246     -0.2860
     21 BR5'       43.0890    1.1080   34.6370 Br    246  907246     -0.0463
     22  HC2       44.6490   -1.1640   25.2540 H     246  907246      0.0627
     23  HC3       44.4190    0.0500   27.3720 H     246  907246      0.0638
     24  HC6       43.2800   -4.7980   27.1860 H     246  907246      0.0632
     25 HH11       43.5340   -5.5230   25.4920 H     246  907246      0.2883
     26 HH12       43.9220   -5.5750   23.8430 H     246  907246      0.2883
     27 HH21       44.8350   -2.0870   23.8550 H     246  907246      0.3009
     28 HH22       44.7960   -3.4690   22.8640 H     246  907246      0.3009
     29  HN3       43.7310   -0.3210   29.9540 H     246  907246      0.1659
     30 HCN4       42.7390   -4.3480   29.9990 H     246  907246      0.0645
     31 HC2'       42.4910   -4.0860   32.1840 H     246  907246      0.0628
     32 H32'       41.1280   -3.8760   35.4460 H     246  907246      0.0278
     33 H33'       41.7650   -4.9710   34.2160 H     246  907246      0.0278
     34 H34'       42.8200   -4.3730   35.4960 H     246  907246      0.0278
     35 HC4'       42.3380   -1.5340   35.6110 H     246  907246      0.0632
@<TRIPOS>BOND
     1    28     9    1
     2     9    27    1
     3     9     7    2
     4    26     8    1
     5     8     7    1
     6     8    25    1
     7     7     1    1
     8    22     2    1
     9     1     2   ar
    10     1     6   ar
    11     2     3   ar
    12    24     6    1
    13     6     5   ar
    14     3    23    1
    15     3     4   ar
    16     5     4   ar
    17     5    11   ar
    18     4    10   ar
    19    10    29    1
    20    10    12   ar
    21    11    30    1
    22    11    12   ar
    23    12    13    1
    24    20    19    1
    25    13    19   ar
    26    13    14   ar
    27    31    14    1
    28    19    18   ar
    29    14    15   ar
    30    18    17   ar
    31    18    21    1
    32    15    17   ar
    33    15    16    1
    34    33    16    1
    35    17    35    1
    36    16    32    1
    37    16    34    1
