@<TRIPOS>MOLECULE
1o3i_907_A_1.pdb
 35 37 0 0 0
SMALL
GASTEIGER

@<TRIPOS>ATOM
      1  C1        44.2440   -3.0370   25.8830 C.ar  246  907246      0.0615
      2  C2        44.6460   -1.6870   26.0030 C.ar  246  907246     -0.0451
      3  C3        44.5720   -1.0070   27.2140 C.ar  246  907246     -0.0370
      4  C4        44.1010   -1.6690   28.3180 C.ar  246  907246      0.0470
      5  C5        43.6970   -2.9570   28.2460 C.ar  246  907246      0.0011
      6  C6        43.7470   -3.6920   27.0540 C.ar  246  907246     -0.0378
      7  C7        44.3520   -3.6950   24.6090 C.2   246  907246      0.2662
      8  N1        43.9890   -4.9600   24.4500 N.pl3 246  907246     -0.2497
      9  N2        44.8280   -2.9980   23.5970 N.2   246  907246     -0.2884
     10  N3        43.9570   -1.2390   29.5440 N.ar  246  907246     -0.3540
     11  CN4       43.2920   -3.3100   29.5090 C.ar  246  907246     -0.0285
     12  C8        43.4810   -2.1820   30.3070 C.ar  246  907246      0.0512
     13  C1'       43.2640   -2.0470   31.7000 C.ar  246  907246      0.0463
     14  C2'       42.9160   -3.1610   32.4830 C.ar  246  907246     -0.0460
     15  C3'       42.7070   -3.0250   33.8780 C.ar  246  907246     -0.0486
     16  CV'       42.3430   -4.1930   34.7610 C.3   246  907246     -0.0397
     17  C4'       42.8370   -1.8170   34.4930 C.ar  246  907246     -0.0411
     18  C5'       43.1740   -0.7480   33.7360 C.ar  246  907246      0.0654
     19  C6'       43.3930   -0.8150   32.3460 C.ar  246  907246      0.2019
     20  O6'       43.7220    0.3330   31.6420 O.3   246  907246     -0.2860
     21 BR5'       43.3620    0.8820   34.7170 Br    246  907246     -0.0463
     22  HC2       45.0290   -1.1420   25.1590 H     246  907246      0.0627
     23  HC3       44.8820    0.0260   27.2890 H     246  907246      0.0638
     24  HC6       43.4180   -4.7180   27.0330 H     246  907246      0.0632
     25 HH11       43.6710   -5.4880   25.2530 H     246  907246      0.2883
     26 HH12       44.0270   -5.4620   23.5930 H     246  907246      0.2883
     27 HH21       45.1060   -2.0360   23.7260 H     246  907246      0.3009
     28 HH22       44.9700   -3.3720   22.6860 H     246  907246      0.3009
     29  HN3       44.1730   -0.3390   29.8900 H     246  907246      0.1659
     30 HCN4       42.9060   -4.2790   29.8190 H     246  907246      0.0645
     31 HC2'       42.8060   -4.1260   32.0160 H     246  907246      0.0628
     32 H32'       41.4930   -3.9140   35.3670 H     246  907246      0.0278
     33 H33'       42.0910   -5.0400   34.1440 H     246  907246      0.0278
     34 H34'       43.1890   -4.4260   35.3890 H     246  907246      0.0278
     35 HC4'       42.6790   -1.6990   35.5540 H     246  907246      0.0632
@<TRIPOS>BOND
     1    28     9    1
     2    26     8    1
     3     9    27    1
     4     9     7    2
     5     8     7    1
     6     8    25    1
     7     7     1    1
     8    22     2    1
     9     1     2   ar
    10     1     6   ar
    11     2     3   ar
    12    24     6    1
    13     6     5   ar
    14     3    23    1
    15     3     4   ar
    16     5     4   ar
    17     5    11   ar
    18     4    10   ar
    19    11    30    1
    20    11    12   ar
    21    10    29    1
    22    10    12   ar
    23    12    13    1
    24    20    19    1
    25    13    19   ar
    26    13    14   ar
    27    31    14    1
    28    19    18   ar
    29    14    15   ar
    30    18    17   ar
    31    18    21    1
    32    15    17   ar
    33    15    16    1
    34    33    16    1
    35    17    35    1
    36    16    32    1
    37    16    34    1
