@<TRIPOS>MOLECULE
1o3j_334_A_1.pdb
 34 36 0 0 0
SMALL
GASTEIGER

@<TRIPOS>ATOM
      1  C1        44.1980   -3.0840   26.0990 C.2   246  334246      0.0493
      2  C2        44.6300   -1.7460   26.1740 C.2   246  334246     -0.0485
      3  C3        44.5890   -1.0420   27.3690 C.2   246  334246     -0.0372
      4  C4        44.1150   -1.6840   28.4810 C.2   246  334246      0.0674
      5  C5        43.6790   -2.9550   28.4740 C.2   246  334246      0.1232
      6  C6        43.7050   -3.7020   27.2840 C.3   246  334246      0.0604
      7  C7        44.2690   -3.7640   24.8580 C.2   246  334246      0.2628
      8  N1        43.8920   -5.0210   24.7680 N.pl3 246  334246     -0.2500
      9  N2        44.7160   -3.1280   23.7960 N.2   246  334246     -0.2887
     10  N3        43.9770   -1.2760   29.6820 N.pl3 246  334246     -0.2868
     11  N4        43.2690   -3.3480   29.6670 N.2   246  334246     -0.3899
     12  C8        43.4790   -2.2480   30.3870 C.2   246  334246      0.1859
     13  C1'       43.2550   -2.0950   31.7790 C.ar  246  334246      0.0753
     14  C2'       42.9140   -3.1900   32.5880 C.ar  246  334246     -0.0436
     15  C3'       42.6990   -3.0160   33.9660 C.ar  246  334246     -0.0485
     16  CV'       42.3240   -4.1950   34.8770 C.3   246  334246     -0.0397
     17  C4'       42.8260   -1.7580   34.5460 C.ar  246  334246     -0.0411
     18  C5'       43.1690   -0.6520   33.7620 C.ar  246  334246      0.0655
     19  C6'       43.3760   -0.8220   32.3860 C.ar  246  334246      0.2043
     20  O6'       43.6720    0.2990   31.6290 O.3   246  334246     -0.2860
     21 BR5'       43.4270    1.1160   34.5720 Br    246  334246     -0.0463
     22  HC2       45.0070   -1.2390   25.3060 H     246  334246      0.0624
     23  HC3       44.9160   -0.0170   27.4290 H     246  334246      0.0637
     24  HC6       43.3540   -4.7240   27.2790 H     246  334246      0.0436
     25 HH11       43.5780   -5.4920   25.6030 H     246  334246      0.2883
     26 HH12       43.9060   -5.5780   23.9390 H     246  334246      0.2883
     27 HH21       45.0060   -2.1640   23.8690 H     246  334246      0.3009
     28 HH22       44.8140   -3.5560   22.9030 H     246  334246      0.3009
     29  HN3       44.1930   -0.3950   30.0490 H     246  334246      0.1546
     30 HC2'       42.8140   -4.1740   32.1510 H     246  334246      0.0629
     31 H32'       41.4400   -3.9430   35.4470 H     246  334246      0.0278
     32 H33'       42.1280   -5.0800   34.2890 H     246  334246      0.0278
     33 H34'       43.1410   -4.3860   35.5550 H     246  334246      0.0278
     34 HC4'       42.6480   -1.6450   35.6060 H     246  334246      0.0632
@<TRIPOS>BOND
     1    28     9    1
     2     9    27    1
     3     9     7    2
     4    26     8    1
     5     8     7    1
     6     8    25    1
     7     7     1    1
     8    22     2    1
     9     1     2    2
    10     1     6    1
    11     2     3    1
    12    24     6    1
    13     6     5    1
    14     3    23    1
    15     3     4    2
    16     5     4    1
    17     5    11    2
    18     4    10    1
    19    11    12    2
    20    10    29    1
    21    10    12    1
    22    12    13    1
    23    20    19    1
    24    13    19   ar
    25    13    14   ar
    26    30    14    1
    27    19    18   ar
    28    14    15   ar
    29    18    17   ar
    30    18    21    1
    31    15    17   ar
    32    15    16    1
    33    32    16    1
    34    17    34    1
    35    16    31    1
    36    16    33    1
