@<TRIPOS>MOLECULE
1o3k_334_A_1.pdb
 34 36 0 0 0
SMALL
GASTEIGER

@<TRIPOS>ATOM
      1  C1        43.9150   -3.0920   26.1460 C.2   246  334246      0.0492
      2  C2        44.2420   -1.7110   26.2460 C.3   246  334246      0.0224
      3  C3        44.1100   -1.0170   27.4450 C.2   246  334246     -0.0511
      4  C4        43.6600   -1.7010   28.5350 C.2   246  334246      0.0677
      5  C5        43.3340   -3.0220   28.4660 C.2   246  334246      0.1376
      6  C6        43.4450   -3.7550   27.2920 C.2   246  334246     -0.0111
      7  C7        44.0690   -3.7710   24.9270 C.2   246  334246      0.2628
      8  N1        43.8060   -5.0600   24.8600 N.pl3 246  334246     -0.2500
      9  N2        44.4790   -3.0860   23.8770 N.2   246  334246     -0.2887
     10  N3        43.4580   -1.2820   29.7430 N.pl3 246  334246     -0.2867
     11  N4        42.9180   -3.4080   29.7040 N.2   246  334246     -0.3862
     12  C8        43.0100   -2.2650   30.4850 C.2   246  334246      0.1863
     13  C1'       42.7980   -2.1530   31.8580 C.ar  246  334246      0.0753
     14  C2'       42.5490   -3.2970   32.6470 C.ar  246  334246     -0.0436
     15  C3'       42.3350   -3.1720   34.0260 C.ar  246  334246     -0.0485
     16  CV'       42.0340   -4.3620   34.9380 C.3   246  334246     -0.0397
     17  C4'       42.3730   -1.9330   34.6090 C.ar  246  334246     -0.0411
     18  C5'       42.6160   -0.8230   33.8360 C.ar  246  334246      0.0655
     19  C6'       42.8320   -0.8830   32.4640 C.ar  246  334246      0.2043
     20  O6'       43.0550    0.2890   31.7380 O.3   246  334246     -0.2860
     21 BR5'       42.6340    0.8430   34.7960 Br    246  334246     -0.0463
     22  HC2       44.6100   -1.1690   25.3980 H     246  334246      0.0403
     23  HC3       44.3580    0.0300   27.5200 H     246  334246      0.0598
     24  HC6       43.1730   -4.7980   27.2790 H     246  334246      0.0655
     25 HH11       43.5290   -5.5420   25.7030 H     246  334246      0.2883
     26 HH12       43.8660   -5.6250   24.0460 H     246  334246      0.2883
     27 HH21       44.6340   -2.0930   23.9590 H     246  334246      0.3009
     28 HH22       44.6420   -3.4860   22.9810 H     246  334246      0.3009
     29  HN3       43.6030   -0.3760   30.0980 H     246  334246      0.1546
     30 HC2'       42.5220   -4.2780   32.1970 H     246  334246      0.0629
     31 H32'       41.1720   -4.1190   35.5470 H     246  334246      0.0278
     32 H33'       41.8200   -5.2400   34.3500 H     246  334246      0.0278
     33 H34'       42.8810   -4.5400   35.5860 H     246  334246      0.0278
     34 HC4'       42.2160   -1.8180   35.6730 H     246  334246      0.0632
@<TRIPOS>BOND
     1    28     9    1
     2     9    27    1
     3     9     7    2
     4    26     8    1
     5     8     7    1
     6     8    25    1
     7     7     1    1
     8    22     2    1
     9     1     2    1
    10     1     6    2
    11     2     3    1
    12    24     6    1
    13     6     5    1
    14     3    23    1
    15     3     4    2
    16     5     4    1
    17     5    11    2
    18     4    10    1
    19    11    12    2
    20    10    29    1
    21    10    12    1
    22    12    13    1
    23    20    19    1
    24    13    19   ar
    25    13    14   ar
    26    30    14    1
    27    19    18   ar
    28    14    15   ar
    29    18    17   ar
    30    18    21    1
    31    15    17   ar
    32    15    16    1
    33    32    16    1
    34    17    34    1
    35    16    31    1
    36    16    33    1
