@<TRIPOS>MOLECULE
1o3l_678_A_1.pdb
 37 39 0 0 0
SMALL
GASTEIGER

@<TRIPOS>ATOM
      1  C1        43.9660   -2.9640   26.0870 C.ar  246  678246      0.0615
      2  C2        44.2610   -1.5780   26.1950 C.ar  246  678246     -0.0451
      3  C3        44.1330   -0.8650   27.3850 C.ar  246  678246     -0.0370
      4  C4        43.7140   -1.5620   28.4750 C.ar  246  678246      0.0470
      5  C5        43.4090   -2.8710   28.4590 C.ar  246  678246      0.0011
      6  C6        43.5240   -3.6050   27.2790 C.ar  246  678246     -0.0378
      7  C7        44.1170   -3.6620   24.8510 C.2   246  678246      0.2662
      8  N1        43.8230   -4.9430   24.7440 N.pl3 246  678246     -0.2497
      9  N2        44.5530   -3.0480   23.7710 N.2   246  678246     -0.2884
     10  N3        43.5030   -1.1210   29.7020 N.ar  246  678246     -0.3540
     11  CN4       43.0240   -3.1900   29.7020 C.ar  246  678246     -0.0285
     12  C8        43.0730   -2.0810   30.5250 C.ar  246  678246      0.0512
     13  C1'       42.9180   -1.9290   31.9390 C.ar  246  678246      0.0463
     14  C2'       42.6480   -3.0430   32.7920 C.ar  246  678246     -0.0452
     15  C3'       42.4840   -2.9410   34.1950 C.ar  246  678246     -0.0347
     16  CV'       42.1740   -4.2470   34.9990 C.3   246  678246      0.0743
     17  CW'       42.0880   -4.0950   36.5220 C.2   246  678246      0.3603
     18  OX'       41.0700   -3.6060   36.9600 O.co2 246  678246     -0.2460
     19  OY'       43.0300   -4.4660   37.1970 O.co2 246  678246     -0.2460
     20  C4'       42.6000   -1.6820   34.7680 C.ar  246  678246     -0.0403
     21  C5'       42.8580   -0.6130   33.9450 C.ar  246  678246      0.0654
     22  C6'       43.0150   -0.7100   32.5740 C.ar  246  678246      0.2019
     23  O6'       43.2450    0.4340   31.8500 O.3   246  678246     -0.2860
     24 BR5'       43.0180    1.1490   34.7080 Br    246  678246     -0.0463
     25  HC2       44.6010   -1.0470   25.3250 H     246  678246      0.0627
     26  HC3       44.3590    0.1860   27.4450 H     246  678246      0.0638
     27  HC6       43.2790   -4.6570   27.2810 H     246  678246      0.0632
     28 HH11       43.4860   -5.4400   25.5390 H     246  678246      0.2883
     29 HH12       43.9150   -5.4160   23.8710 H     246  678246      0.2883
     30 HH21       44.7830   -2.0750   23.7720 H     246  678246      0.3009
     31 HH22       44.6380   -3.5710   22.9260 H     246  678246      0.3009
     32  HN3       43.6500   -0.1920   29.9750 H     246  678246      0.1659
     33 HCN4       42.7150   -4.1640   30.0300 H     246  678246      0.0645
     34 HC2'       42.5600   -4.0280   32.3570 H     246  678246      0.0628
     35 H31B       41.2280   -4.6410   34.6580 H     246  678246      0.0428
     36 H31A       42.9400   -4.9760   34.7730 H     246  678246      0.0428
     37 HC4'       42.4910   -1.5320   35.8340 H     246  678246      0.0633
@<TRIPOS>BOND
     1    31     9    1
     2     9    30    1
     3     9     7    2
     4    29     8    1
     5     8     7    1
     6     8    28    1
     7     7     1    1
     8    25     2    1
     9     1     2   ar
    10     1     6   ar
    11     2     3   ar
    12     6    27    1
    13     6     5   ar
    14     3    26    1
    15     3     4   ar
    16     5     4   ar
    17     5    11   ar
    18     4    10   ar
    19    11    33    1
    20    11    12   ar
    21    10    32    1
    22    10    12   ar
    23    12    13    1
    24    23    22    1
    25    13    22   ar
    26    13    14   ar
    27    34    14    1
    28    22    21   ar
    29    14    15   ar
    30    21    24    1
    31    21    20   ar
    32    15    20   ar
    33    15    16    1
    34    35    16    1
    35    20    37    1
    36    36    16    1
    37    16    17    1
    38    17    18   ar
    39    17    19   ar
