@<TRIPOS>MOLECULE
1o3m_785_A_1.pdb
 35 37 0 0 0
SMALL
GASTEIGER

@<TRIPOS>ATOM
      1  C1        44.1190   -3.1540   26.2230 C.2   246  785246      0.0493
      2  C2        44.5980   -1.8190   26.2730 C.2   246  785246     -0.0485
      3  C3        44.5240   -1.0750   27.4210 C.2   246  785246     -0.0372
      4  C4        43.9780   -1.6690   28.5080 C.2   246  785246      0.0674
      5  C5        43.5050   -2.9330   28.5210 C.2   246  785246      0.1232
      6  C6        43.5560   -3.7300   27.3720 C.3   246  785246      0.0604
      7  C7        44.2330   -3.8660   25.0390 C.2   246  785246      0.2628
      8  N1        43.9570   -5.1530   25.0260 N.pl3 246  785246     -0.2500
      9  N2        44.6280   -3.2110   23.9660 N.2   246  785246     -0.2887
     10  N3        43.8060   -1.2190   29.6910 N.pl3 246  785246     -0.2868
     11  N4        43.0350   -3.2800   29.7040 N.2   246  785246     -0.3899
     12  C8        43.2540   -2.1590   30.3870 C.2   246  785246      0.1859
     13  C1'       42.9620   -1.9640   31.7370 C.ar  246  785246      0.0774
     14  C2'       42.4640   -3.0490   32.4770 C.ar  246  785246     -0.0044
     15  C3'       42.1500   -2.8950   33.8250 C.ar  246  785246      0.1309
     16  O3'       41.6640   -3.8370   34.4390 O.3   246  785246     -0.4057
     17  C3X       42.4580   -4.6920   35.2470 C.3   246  785246      0.5752
     18  FV'       41.5560   -5.6170   35.8250 F     246  785246     -0.1328
     19  FW'       43.3980   -5.3420   34.4020 F     246  785246     -0.1328
     20  FX'       43.0420   -3.9520   36.2930 F     246  785246     -0.1328
     21  C4'       42.3470   -1.6520   34.4370 C.ar  246  785246     -0.0160
     22  C5'       42.8430   -0.5570   33.7140 C.ar  246  785246     -0.0107
     23  C6'       43.1550   -0.6880   32.3590 C.ar  246  785246      0.1906
     24  O6'       43.6150    0.4480   31.6780 O.3   246  785246     -0.2871
     25  HC2       45.0360   -1.3460   25.4130 H     246  785246      0.0624
     26  HC3       44.8810   -0.0600   27.4660 H     246  785246      0.0637
     27  HC6       43.1690   -4.7390   27.3800 H     246  785246      0.0436
     28 HH11       43.6790   -5.5860   25.8960 H     246  785246      0.2883
     29 HH12       43.9940   -5.7610   24.2400 H     246  785246      0.2883
     30 HH21       44.8420   -2.2220   24.0210 H     246  785246      0.3009
     31 HH22       44.7670   -3.6520   23.0900 H     246  785246      0.3009
     32  HN3       44.0290   -0.3350   30.0580 H     246  785246      0.1546
     33 HC2'       42.3200   -4.0110   32.0030 H     246  785246      0.0663
     34 HC4'       42.1070   -1.5290   35.4820 H     246  785246      0.0655
     35 HC5'       42.9880    0.3950   34.2090 H     246  785246      0.0657
@<TRIPOS>BOND
     1    31     9    1
     2     9    30    1
     3     9     7    2
     4    29     8    1
     5     8     7    1
     6     8    28    1
     7     7     1    1
     8    25     2    1
     9     1     2    2
    10     1     6    1
    11     2     3    1
    12     6    27    1
    13     6     5    1
    14     3    26    1
    15     3     4    2
    16     4     5    1
    17     4    10    1
    18     5    11    2
    19    10    32    1
    20    10    12    1
    21    11    12    2
    22    12    13    1
    23    24    23    1
    24    13    23   ar
    25    13    14   ar
    26    33    14    1
    27    23    22   ar
    28    14    15   ar
    29    22    35    1
    30    22    21   ar
    31    15    21   ar
    32    15    16    1
    33    19    17    1
    34    21    34    1
    35    16    17    1
    36    17    18    1
    37    17    20    1
