@<TRIPOS>MOLECULE
1o3n_785_A_1.pdb
 35 37 0 0 0
SMALL
GASTEIGER

@<TRIPOS>ATOM
      1  C1        44.3960   -3.0680   26.0530 C.2   246  785246      0.0493
      2  C2        44.8250   -1.7340   26.1680 C.2   246  785246     -0.0485
      3  C3        44.7440   -1.0530   27.3750 C.2   246  785246     -0.0372
      4  C4        44.2380   -1.7180   28.4520 C.2   246  785246      0.0674
      5  C5        43.8110   -2.9880   28.4010 C.2   246  785246      0.1232
      6  C6        43.8720   -3.7120   27.2020 C.3   246  785246      0.0604
      7  C7        44.5060   -3.7340   24.8130 C.2   246  785246      0.2628
      8  N1        44.2230   -5.0170   24.7160 N.pl3 246  785246     -0.2500
      9  N2        44.8960   -3.0680   23.7570 N.2   246  785246     -0.2887
     10  N3        44.0660   -1.3350   29.6560 N.pl3 246  785246     -0.2868
     11  N4        43.3680   -3.4160   29.5640 N.2   246  785246     -0.3899
     12  C8        43.5580   -2.3280   30.3150 C.2   246  785246      0.1859
     13  C1'       43.2670   -2.2120   31.7000 C.ar  246  785246      0.0774
     14  C2'       42.8400   -3.3390   32.4440 C.ar  246  785246     -0.0044
     15  C3'       42.5410   -3.2310   33.8250 C.ar  246  785246      0.1309
     16  O3'       42.0860   -4.1930   34.4460 O.3   246  785246     -0.4057
     17  C3X       42.8330   -5.0240   35.3480 C.3   246  785246      0.5752
     18  FV'       41.9520   -5.9120   35.9250 F     246  785246     -0.1328
     19  FW'       43.7490   -5.7890   34.6520 F     246  785246     -0.1328
     20  FX'       43.3850   -4.2860   36.3840 F     246  785246     -0.1328
     21  C4'       42.6890   -1.9950   34.4510 C.ar  246  785246     -0.0160
     22  C5'       43.1120   -0.8760   33.7260 C.ar  246  785246     -0.0107
     23  C6'       43.3980   -0.9570   32.3550 C.ar  246  785246      0.1906
     24  O6'       43.7600    0.2230   31.6910 O.3   246  785246     -0.2871
     25  HC2       45.2310   -1.2060   25.3230 H     246  785246      0.0624
     26  HC3       45.0700   -0.0300   27.4710 H     246  785246      0.0637
     27  HC6       43.5250   -4.7350   27.1680 H     246  785246      0.0436
     28 HH11       43.9550   -5.5200   25.5510 H     246  785246      0.2883
     29 HH12       44.2760   -5.5580   23.8820 H     246  785246      0.2883
     30 HH21       45.1280   -2.0860   23.8410 H     246  785246      0.3009
     31 HH22       45.0240   -3.4780   22.8620 H     246  785246      0.3009
     32  HN3       44.2670   -0.4640   30.0570 H     246  785246      0.1546
     33 HC2'       42.7410   -4.3010   31.9570 H     246  785246      0.0663
     34 HC4'       42.4770   -1.8980   35.5080 H     246  785246      0.0655
     35 HC5'       43.2170    0.0740   34.2360 H     246  785246      0.0657
@<TRIPOS>BOND
     1    31     9    1
     2     9    30    1
     3     9     7    2
     4    29     8    1
     5     8     7    1
     6     8    28    1
     7     7     1    1
     8    25     2    1
     9     1     2    2
    10     1     6    1
    11     2     3    1
    12    27     6    1
    13     6     5    1
    14     3    26    1
    15     3     4    2
    16     5     4    1
    17     5    11    2
    18     4    10    1
    19    11    12    2
    20    10    32    1
    21    10    12    1
    22    12    13    1
    23    24    23    1
    24    13    23   ar
    25    13    14   ar
    26    33    14    1
    27    23    22   ar
    28    14    15   ar
    29    22    35    1
    30    22    21   ar
    31    15    16    1
    32    15    21   ar
    33    16    17    1
    34    21    34    1
    35    19    17    1
    36    17    18    1
    37    17    20    1
