@<TRIPOS>MOLECULE
1o3o_785_A_1.pdb
 35 37 0 0 0
SMALL
GASTEIGER

@<TRIPOS>ATOM
      1  C1        43.7840   -3.0220   26.1260 C.2   246  785246      0.0493
      2  C2        44.1730   -1.6660   26.2050 C.2   246  785246     -0.0485
      3  C3        44.1130   -0.9680   27.4030 C.2   246  785246     -0.0372
      4  C4        43.6740   -1.6350   28.5030 C.2   246  785246      0.0674
      5  C5        43.2870   -2.9240   28.4930 C.2   246  785246      0.1232
      6  C6        43.3240   -3.6650   27.3050 C.3   246  785246      0.0604
      7  C7        43.8810   -3.7060   24.8930 C.2   246  785246      0.2628
      8  N1        43.6760   -5.0040   24.8430 N.pl3 246  785246     -0.2500
      9  N2        44.1810   -3.0410   23.8020 N.2   246  785246     -0.2887
     10  N3        43.5390   -1.2360   29.7050 N.pl3 246  785246     -0.2868
     11  N4        42.9000   -3.3430   29.6840 N.2   246  785246     -0.3899
     12  C8        43.0930   -2.2330   30.3950 C.2   246  785246      0.1859
     13  C1'       42.9300   -2.0800   31.7810 C.ar  246  785246      0.0774
     14  C2'       42.8230   -3.2120   32.5740 C.ar  246  785246     -0.0044
     15  C3'       42.6690   -3.1110   33.9630 C.ar  246  785246      0.1309
     16  O3'       42.5830   -4.1060   34.6670 O.3   246  785246     -0.4057
     17  C3X       41.5870   -5.1120   34.3040 C.3   246  785246      0.5752
     18  FV'       41.4150   -5.9420   35.3820 F     246  785246     -0.1328
     19  FW'       40.3670   -4.5320   33.9900 F     246  785246     -0.1328
     20  FX'       42.0220   -5.9060   33.2470 F     246  785246     -0.1328
     21  C4'       42.6240   -1.8570   34.5600 C.ar  246  785246     -0.0160
     22  C5'       42.7350   -0.7050   33.7730 C.ar  246  785246     -0.0107
     23  C6'       42.8870   -0.8080   32.3830 C.ar  246  785246      0.1906
     24  O6'       42.9900    0.3380   31.6120 O.3   246  785246     -0.2871
     25  HC2       44.5250   -1.1350   25.3400 H     246  785246      0.0624
     26  HC3       44.3980    0.0700   27.4780 H     246  785246      0.0637
     27  HC6       43.0030   -4.6960   27.3030 H     246  785246      0.0436
     28 HH11       43.4990   -5.5010   25.7070 H     246  785246      0.2883
     29 HH12       43.7400   -5.5720   24.0290 H     246  785246      0.2883
     30 HH21       44.3360   -2.0410   23.8650 H     246  785246      0.3009
     31 HH22       44.3100   -3.4650   22.9140 H     246  785246      0.3009
     32  HN3       43.7200   -0.3540   30.0960 H     246  785246      0.1546
     33 HC2'       42.8570   -4.1790   32.1020 H     246  785246      0.0663
     34 HC4'       42.5100   -1.7720   35.6330 H     246  785246      0.0655
     35 HC5'       42.7080    0.2660   34.2510 H     246  785246      0.0657
@<TRIPOS>BOND
     1    31     9    1
     2     9    30    1
     3     9     7    2
     4    29     8    1
     5     8     7    1
     6     8    28    1
     7     7     1    1
     8    25     2    1
     9     1     2    2
    10     1     6    1
    11     2     3    1
    12    27     6    1
    13     6     5    1
    14     3    26    1
    15     3     4    2
    16     5     4    1
    17     5    11    2
    18     4    10    1
    19    11    12    2
    20    10    32    1
    21    10    12    1
    22    12    13    1
    23    24    23    1
    24    13    23   ar
    25    13    14   ar
    26    33    14    1
    27    23    22   ar
    28    14    15   ar
    29    20    17    1
    30    22    35    1
    31    22    21   ar
    32    15    21   ar
    33    15    16    1
    34    19    17    1
    35    17    16    1
    36    17    18    1
    37    21    34    1
