@<TRIPOS>MOLECULE
1o3p_655_B_1.pdb
 45 48 0 0 0
SMALL
GASTEIGER

@<TRIPOS>ATOM
      1  C1         8.7880    1.4610   24.6060 C.2   251  655251      0.0492
      2  C2         9.5720    1.3020   23.4300 C.3   251  655251      0.0224
      3  C3        10.2020    2.3670   22.8100 C.2   251  655251     -0.0511
      4  C4         9.9720    3.6110   23.3310 C.2   251  655251      0.0677
      5  C5         9.2090    3.8120   24.4350 C.2   251  655251      0.1376
      6  C6         8.5920    2.7660   25.0710 C.2   251  655251     -0.0111
      7  C7         8.1880    0.3730   25.2350 C.2   251  655251      0.2628
      8  N1         7.7520    0.4860   26.4730 N.pl3 251  655251     -0.2500
      9  N2         8.0910   -0.7720   24.6100 N.2   251  655251     -0.2887
     10  N3        10.3730    4.7820   22.9850 N.pl3 251  655251     -0.2867
     11  N4         9.1170    5.0700   24.7840 N.2   251  655251     -0.3862
     12  C8         9.8770    5.6220   23.8530 C.2   251  655251      0.1863
     13  C1'       10.1130    6.9650   23.7750 C.ar  251  655251      0.0776
     14  C2'        9.7870    7.8200   24.8490 C.ar  251  655251     -0.0463
     15  C3'       10.0400    9.1930   24.7850 C.ar  251  655251     -0.0574
     16  C4'       10.6290    9.7250   23.6570 C.ar  251  655251     -0.0161
     17  C5'       10.9610    8.8870   22.5700 C.ar  251  655251      0.1681
     18  O5'       11.5570    9.3300   21.3960 O.3   251  655251     -0.4850
     19  C6'       10.7210    7.5300   22.6460 C.ar  251  655251      0.2317
     20  O6'       11.1000    6.7680   21.5450 O.3   251  655251     -0.2832
     21  C1B       11.8090   11.0280   19.7310 C.3   251  655251     -0.0158
     22  C2B       11.8600   10.7160   21.2250 C.3   251  655251      0.1004
     23  C3B       13.2910   10.8790   21.6920 C.3   251  655251     -0.0158
     24  C4B       14.1130   11.3710   20.5140 C.3   251  655251     -0.0496
     25  C5B       13.2440   11.2120   19.2770 C.3   251  655251     -0.0496
     26  HC2        9.7460    0.3170   23.0410 H     251  655251      0.0403
     27  HC3       10.8160    2.2530   21.9280 H     251  655251      0.0598
     28  HC6        7.9880    2.9730   25.9480 H     251  655251      0.0655
     29 HH11        7.8470    1.3630   26.9570 H     251  655251      0.2883
     30 HH12        7.3230   -0.2440   27.0080 H     251  655251      0.2883
     31 HH21        8.4790   -0.8670   23.6860 H     251  655251      0.3009
     32 HH22        7.7370   -1.6000   25.0330 H     251  655251      0.3009
     33  HN3       10.9470    5.0650   22.2400 H     251  655251      0.1546
     34 HC2'        9.3280    7.4170   25.7440 H     251  655251      0.0626
     35 HC3'        9.7820    9.8360   25.6150 H     251  655251      0.0619
     36 HC4'       10.8130   10.7830   23.6280 H     251  655251      0.0655
     37  H1A       11.3210   10.2350   19.1810 H     251  655251      0.0301
     38  H1B       11.2500   11.9450   19.5790 H     251  655251      0.0301
     39  H2A       11.1590   11.3490   21.7600 H     251  655251      0.0733
     40  H3A       13.3150   11.6290   22.4630 H     251  655251      0.0301
     41  H3B       13.6920    9.9490   22.0750 H     251  655251      0.0301
     42  H4A       15.0200   10.7900   20.4110 H     251  655251      0.0266
     43  H4B       14.3660   12.4060   20.6530 H     251  655251      0.0266
     44  H5A       13.5670   10.3310   18.7440 H     251  655251      0.0266
     45  H5B       13.3320   12.0730   18.6370 H     251  655251      0.0266
@<TRIPOS>BOND
     1    45    25    1
     2    44    25    1
     3    37    21    1
     4    25    21    1
     5    25    24    1
     6    38    21    1
     7    21    22    1
     8    42    24    1
     9    24    43    1
    10    24    23    1
    11    22    18    1
    12    22    23    1
    13    22    39    1
    14    18    17    1
    15    20    19    1
    16    23    41    1
    17    23    40    1
    18    27     3    1
    19    33    10    1
    20    17    19   ar
    21    17    16   ar
    22    19    13   ar
    23     3     4    2
    24     3     2    1
    25    10     4    1
    26    10    12    1
    27    26     2    1
    28     4     5    1
    29     2     1    1
    30    36    16    1
    31    16    15   ar
    32    31     9    1
    33    13    12    1
    34    13    14   ar
    35    12    11    2
    36     5    11    2
    37     5     6    1
    38     1     6    2
    39     1     7    1
    40     9    32    1
    41     9     7    2
    42    15    14   ar
    43    15    35    1
    44    14    34    1
    45     6    28    1
    46     7     8    1
    47     8    29    1
    48     8    30    1
