@<TRIPOS>MOLECULE
1o3q_CMP_A_1.pdb
 22 25 0 0 0
SMALL
GASTEIGER

@<TRIPOS>ATOM
      1  P         27.2210    8.8380   40.5880 P.3     1  CMP1        0.2141
      2  O1P       27.6490    9.1410   41.9560 O.3     1  CMP1       -0.4373
      3  O2P       26.0120    9.4680   40.0550 O.2     1  CMP1       -0.5172
      4  O5'       28.4240    9.1750   39.5910 O.3     1  CMP1       -0.3114
      5  C5'       29.4630    8.2330   39.3200 C.3     1  CMP1        0.1812
      6  C4'       28.8390    6.9100   39.0680 C.3     1  CMP1        0.1793
      7  O4'       29.7910    5.8550   38.8010 O.3     1  CMP1       -0.3136
      8  C3'       28.1520    6.4330   40.3120 C.3     1  CMP1        0.1884
      9  O3'       27.0180    7.2500   40.4730 O.3     1  CMP1       -0.3111
     10  C2'       27.9300    4.9790   39.9560 C.3     1  CMP1        0.2541
     11  O2'       26.9220    4.8150   38.9810 O.3     1  CMP1       -0.2131
     12  C1'       29.3000    4.6400   39.3560 C.3     1  CMP1        0.3185
     13  N9        30.2400    4.2220   40.3940 N.pl3   1  CMP1       -0.1439
     14  C8        30.8660    5.0460   41.2870 C.3     1  CMP1        0.3377
     15  N7        31.6530    4.4230   42.1190 N.2     1  CMP1       -0.2095
     16  C5        31.5460    3.0940   41.7450 C.2     1  CMP1        0.2526
     17  C6        32.1690    1.9290   42.2220 C.2     1  CMP1        0.4393
     18  N6        33.0710    1.9260   43.2030 N.pl3   1  CMP1        0.2180
     19  N1        31.8410    0.7590   41.6330 N.2     1  CMP1        0.0021
     20  C2        30.9650    0.7780   40.6220 C.3     1  CMP1        0.5254
     21  N3        30.3310    1.8100   40.0740 N.2     1  CMP1       -0.0055
     22  C4        30.6700    2.9540   40.6880 C.2     1  CMP1        0.3518
@<TRIPOS>BOND
     1     7     6    1
     2     7    12    1
     3    11    10    1
     4     6     5    1
     5     6     8    1
     6     5     4    1
     7    12    10    1
     8    12    13    1
     9     4     1    1
    10    10     8    1
    11     3     1    2
    12    21    20    1
    13    21    22    2
    14     8     9    1
    15    13    22    1
    16    13    14    1
    17     9     1    1
    18     1     2    1
    19    20    19    1
    20    22    16    1
    21    14    15    1
    22    19    17    2
    23    16    15    2
    24    16    17    1
    25    17    18    1
