@<TRIPOS>MOLECULE
1o3r_CMP_A_1.pdb
 22 25 0 0 0
SMALL
GASTEIGER

@<TRIPOS>ATOM
      1  P         27.2730    8.7240   40.6190 P.3     1  CMP1        0.2141
      2  O1P       27.8840    9.1720   41.9030 O.3     1  CMP1       -0.4373
      3  O2P       25.9740    9.2800   40.2150 O.2     1  CMP1       -0.5172
      4  O5'       28.3100    8.9630   39.4180 O.3     1  CMP1       -0.3114
      5  C5'       29.3570    8.0240   39.1120 C.3     1  CMP1        0.1812
      6  C4'       28.7780    6.6470   39.0810 C.3     1  CMP1        0.1793
      7  O4'       29.7610    5.5950   38.8910 O.3     1  CMP1       -0.3136
      8  C3'       28.1970    6.2870   40.4230 C.3     1  CMP1        0.1884
      9  O3'       27.0710    7.1230   40.6470 O.3     1  CMP1       -0.3111
     10  C2'       27.9790    4.7980   40.2270 C.3     1  CMP1        0.2541
     11  O2'       26.9150    4.5090   39.3460 O.3     1  CMP1       -0.2131
     12  C1'       29.3110    4.4220   39.5670 C.3     1  CMP1        0.3185
     13  N9        30.3010    4.0490   40.5800 N.pl3   1  CMP1       -0.1439
     14  C8        30.9230    4.8720   41.4890 C.3     1  CMP1        0.3377
     15  N7        31.7280    4.2440   42.3050 N.2     1  CMP1       -0.2095
     16  C5        31.6440    2.9180   41.9030 C.2     1  CMP1        0.2526
     17  C6        32.2860    1.7470   42.3580 C.2     1  CMP1        0.4393
     18  N6        33.1750    1.7330   43.3480 N.pl3   1  CMP1        0.2180
     19  N1        31.9900    0.5850   41.7360 N.2     1  CMP1        0.0021
     20  C2        31.1210    0.6100   40.7130 C.3     1  CMP1        0.5254
     21  N3        30.4620    1.6450   40.1850 N.2     1  CMP1       -0.0055
     22  C4        30.7720    2.7840   40.8360 C.2     1  CMP1        0.3518
@<TRIPOS>BOND
     1     7     6    1
     2     7    12    1
     3     6     5    1
     4     6     8    1
     5     5     4    1
     6    11    10    1
     7     4     1    1
     8    12    10    1
     9    12    13    1
    10    21    20    1
    11    21    22    2
    12     3     1    2
    13    10     8    1
    14     8     9    1
    15    13    22    1
    16    13    14    1
    17     1     9    1
    18     1     2    1
    19    20    19    1
    20    22    16    1
    21    14    15    1
    22    19    17    2
    23    16    15    2
    24    16    17    1
    25    17    18    1
