@<TRIPOS>MOLECULE
1o3s_CMP_A_1.pdb
 22 25 0 0 0
SMALL
GASTEIGER

@<TRIPOS>ATOM
      1  P        -17.4830   47.7770   16.5490 P.3     1  CMP1        0.2141
      2  O1P      -16.8650   47.2930   17.7830 O.3     1  CMP1       -0.4373
      3  O2P      -17.5160   49.2140   16.2770 O.2     1  CMP1       -0.5172
      4  O5'      -16.7560   47.0220   15.3450 O.3     1  CMP1       -0.3114
      5  C5'      -17.0420   45.6460   15.0560 C.3     1  CMP1        0.1812
      6  C4'      -18.5280   45.4580   15.0180 C.3     1  CMP1        0.1793
      7  O4'      -18.9430   44.0810   14.8320 O.3     1  CMP1       -0.3136
      8  C3'      -19.1280   45.7880   16.3540 C.3     1  CMP1        0.1884
      9  O3'      -18.9710   47.1840   16.5140 O.3     1  CMP1       -0.3111
     10  C2'      -20.5200   45.2070   16.1890 C.3     1  CMP1        0.2541
     11  O2'      -21.3420   45.9830   15.3450 O.3     1  CMP1       -0.2131
     12  C1'      -20.1800   43.8810   15.4990 C.3     1  CMP1        0.3185
     13  N9       -20.0150   42.8000   16.4680 N.pl3   1  CMP1       -0.1439
     14  C8       -18.9540   42.5560   17.3110 C.3     1  CMP1        0.3377
     15  N7       -19.1320   41.5220   18.1020 N.2     1  CMP1       -0.2095
     16  C5       -20.3840   41.0420   17.7420 C.2     1  CMP1        0.2526
     17  C6       -21.1380   39.9410   18.1800 C.2     1  CMP1        0.4393
     18  N6       -20.7170   39.0670   19.0910 N.pl3   1  CMP1        0.2180
     19  N1       -22.3500   39.7520   17.6230 N.2     1  CMP1        0.0021
     20  C2       -22.7510   40.5920   16.6650 C.3     1  CMP1        0.5254
     21  N3       -22.1270   41.6380   16.1450 N.2     1  CMP1       -0.0055
     22  C4       -20.9370   41.8180   16.7360 C.2     1  CMP1        0.3518
@<TRIPOS>BOND
     1     7     6    1
     2     7    12    1
     3     6     5    1
     4     6     8    1
     5     5     4    1
     6     4     1    1
     7    11    10    1
     8    12    10    1
     9    12    13    1
    10    21    20    1
    11    21    22    2
    12    10     8    1
    13     3     1    2
    14     8     9    1
    15    13    22    1
    16    13    14    1
    17     9     1    1
    18     1     2    1
    19    20    19    1
    20    22    16    1
    21    14    15    1
    22    19    17    2
    23    16    15    2
    24    16    17    1
    25    17    18    1
