@<TRIPOS>MOLECULE
1o3t_CMP_A_1.pdb
 22 25 0 0 0
SMALL
GASTEIGER

@<TRIPOS>ATOM
      1  P         30.7610   31.7600  -10.4280 P.3   762  CMP762      0.2141
      2  O1P       30.0490   31.5290   -9.1490 O.3   762  CMP762     -0.4373
      3  O2P       30.1150   32.5460  -11.5040 O.2   762  CMP762     -0.5172
      4  O5'       32.1760   32.4120  -10.0560 O.3   762  CMP762     -0.3114
      5  C5'       33.2240   31.6160   -9.4970 C.3   762  CMP762      0.1812
      6  C4'       33.3310   30.3450  -10.2840 C.3   762  CMP762      0.1793
      7  O4'       34.2700   29.4050   -9.7130 O.3   762  CMP762     -0.3136
      8  C3'       32.0390   29.5630  -10.2290 C.3   762  CMP762      0.1884
      9  O3'       31.1260   30.3070  -10.9740 O.3   762  CMP762     -0.3111
     10  C2'       32.5000   28.2410  -10.7710 C.3   762  CMP762      0.2541
     11  O2'       32.7740   28.4250  -12.1470 O.3   762  CMP762     -0.2131
     12  C1'       33.8090   28.0920   -9.9810 C.3   762  CMP762      0.3185
     13  N9        33.6050   27.4050   -8.7090 N.pl3 762  CMP762     -0.1439
     14  C8        32.9690   27.8320   -7.5720 C.3   762  CMP762      0.3377
     15  N7        32.9000   26.9250   -6.6360 N.2   762  CMP762     -0.2095
     16  C5        33.5510   25.8290   -7.1860 C.2   762  CMP762      0.2526
     17  C6        33.8020   24.5240   -6.7100 C.2   762  CMP762      0.4393
     18  N6        33.4160   24.0650   -5.5030 N.pl3 762  CMP762      0.2180
     19  N1        34.4740   23.6820   -7.5290 N.2   762  CMP762      0.0021
     20  C2        34.8700   24.1250   -8.7280 C.3   762  CMP762      0.5254
     21  N3        34.6940   25.3130   -9.2800 N.2   762  CMP762     -0.0055
     22  C4        34.0120   26.1240   -8.4510 C.2   762  CMP762      0.3518
@<TRIPOS>BOND
     1    11    10    1
     2     3     1    2
     3     9     1    1
     4     9     8    1
     5    10     8    1
     6    10    12    1
     7     1     4    1
     8     1     2    1
     9     6     8    1
    10     6     7    1
    11     6     5    1
    12     4     5    1
    13    12     7    1
    14    12    13    1
    15    21    20    1
    16    21    22    2
    17    20    19    1
    18    13    22    1
    19    13    14    1
    20    22    16    1
    21    14    15    1
    22    19    17    2
    23    16    17    1
    24    16    15    2
    25    17    18    1
