@<TRIPOS>MOLECULE
1o3y_GTP_A_1.pdb
 32 34 0 0 0
SMALL
GASTEIGER

@<TRIPOS>ATOM
      1  PG         6.4510  -10.4190   20.5960 P.3   1001  GTP1001     0.5373
      2  O1G        6.5700  -11.0810   21.9280 O.3   1001  GTP1001    -0.1143
      3  O2G        6.1470  -11.4720   19.5160 O.2   1001  GTP1001    -0.2221
      4  O3G        7.6890   -9.5940   20.2360 O.3   1001  GTP1001    -0.1143
      5  O3B        5.1610   -9.4380   20.7040 O.3   1001  GTP1001    -0.2258
      6  PB         4.6380   -8.4690   19.5140 P.3   1001  GTP1001     0.2277
      7  O1B        5.2760   -7.1400   19.5520 O.3   1001  GTP1001    -0.4368
      8  O2B        4.7320   -9.1660   18.1650 O.2   1001  GTP1001    -0.5168
      9  O3A        3.0700   -8.3110   19.8710 O.3   1001  GTP1001    -0.2700
     10  PA         1.8060   -8.9170   19.0680 P.3   1001  GTP1001     0.2189
     11  O1A        1.7840   -8.3700   17.7010 O.2   1001  GTP1001    -0.5170
     12  O2A        1.7880  -10.4260   19.2470 O.3   1001  GTP1001    -0.4371
     13  O5'        0.6110   -8.2490   19.8930 O.3   1001  GTP1001    -0.3112
     14  C5'        0.4370   -8.5040   21.2770 C.3   1001  GTP1001     0.1813
     15  C4'       -1.0160   -8.2540   21.6580 C.3   1001  GTP1001     0.1799
     16  O4'       -1.3240   -6.8790   21.4790 O.3   1001  GTP1001    -0.3326
     17  C3'       -1.9900   -9.0440   20.7930 C.3   1001  GTP1001     0.2158
     18  O3'       -3.0260   -9.5400   21.6240 O.3   1001  GTP1001    -0.2175
     19  C2'       -2.4970   -8.0080   19.8120 C.3   1001  GTP1001     0.2310
     20  O2'       -3.7880   -8.2700   19.2900 O.3   1001  GTP1001    -0.2158
     21  C1'       -2.4810   -6.7560   20.6730 C.3   1001  GTP1001     0.2293
     22  N9        -2.3830   -5.5190   19.8850 N.pl3 1001  GTP1001    -0.2354
     23  C8        -1.5550   -5.2240   18.8260 C.3   1001  GTP1001     0.2246
     24  N7        -1.8210   -3.9550   18.4330 N.2   1001  GTP1001    -0.2322
     25  C5        -2.8050   -3.4430   19.2260 C.2   1001  GTP1001     0.2182
     26  C6        -3.4630   -2.2120   19.2870 C.1   1001  GTP1001     0.2372
     27  O6        -3.2270   -1.2730   18.5170 O.2   1001  GTP1001    -0.2069
     28  N1        -4.4310   -2.0380   20.2490 N.2   1001  GTP1001    -0.2485
     29  C2        -4.7520   -3.0290   21.1440 C.1   1001  GTP1001     0.2531
     30  N2        -5.6870   -2.7880   22.0550 N.pl3 1001  GTP1001    -0.0226
     31  N3        -4.1030   -4.2350   21.0960 N.2   1001  GTP1001    -0.3074
     32  C4        -3.1580   -4.4280   20.1420 C.2   1001  GTP1001     0.2300
@<TRIPOS>BOND
     1    11    10    2
     2     8     6    2
     3    24    23    1
     4    24    25    2
     5    27    26    2
     6    23    22    1
     7    10    12    1
     8    10     9    1
     9    10    13    1
    10    25    26    1
    11    25    32    1
    12    26    28    2
    13    20    19    1
    14     6     7    1
    15     6     9    1
    16     6     5    1
    17     3     1    2
    18    19    21    1
    19    19    17    1
    20    22    32    1
    21    22    21    1
    22    13    14    1
    23    32    31    2
    24     4     1    1
    25    28    29    2
    26     1     5    1
    27     1     2    1
    28    21    16    1
    29    17    18    1
    30    17    15    1
    31    31    29    2
    32    29    30    1
    33    14    15    1
    34    16    15    1
