@<TRIPOS>MOLECULE
1o41_300_A_1.pdb
 15 15 0 0 0
SMALL
GASTEIGER

@<TRIPOS>ATOM
      1  C1        17.6820   24.5520   19.5270 C.ar  300  300300      0.0065
      2  C2        18.4290   24.9980   20.6370 C.ar  300  300300      0.0034
      3  C3        18.2370   26.3260   21.0830 C.ar  300  300300      0.0401
      4  C4        17.2770   27.1930   20.4760 C.ar  300  300300      0.1730
      5  C5        16.5390   26.7270   19.3340 C.ar  300  300300      0.1858
      6  C6        16.7650   25.4030   18.8060 C.ar  300  300300      0.0797
      7  C10       16.2630   24.7830   17.5220 C.2   300  300300      0.2373
      8  O11       15.5490   27.6080   18.8030 O.3   300  300300     -0.3965
      9  O12       17.0190   28.4500   21.0590 O.3   300  300300     -0.4684
     10  C13       17.3820   28.6490   22.4330 C.3   300  300300      0.2526
     11  P17       15.9060   28.5960   17.6640 P.3   300  300300      0.5888
     12  O18       14.6080   29.0560   17.0320 O.3   300  300300     -0.1039
     13  O19       16.7310   27.7490   16.6580 O.2   300  300300     -0.2114
     14  O20       16.7140   29.7560   18.1590 O.3   300  300300     -0.1039
     15  O21       16.5360   24.9600   16.5970 O.2   300  300300     -0.2830
@<TRIPOS>BOND
     1    15     7    2
     2    13    11    2
     3    12    11    1
     4     7     6    1
     5    11    14    1
     6    11     8    1
     7     8     5    1
     8     6     5   ar
     9     6     1   ar
    10     5     4   ar
    11     1     2   ar
    12     4     9    1
    13     4     3   ar
    14     2     3   ar
    15     9    10    1
