@<TRIPOS>MOLECULE
1o42_843_A_1.pdb
 41 44 0 0 0
SMALL
GASTEIGER

@<TRIPOS>ATOM
      1  C1        19.3210   26.3050   19.2960 C.ar  300  843300     -0.0011
      2  C2        18.5070   27.0090   18.3770 C.ar  300  843300      0.0371
      3  C3        17.1720   26.5550   18.1450 C.ar  300  843300      0.1490
      4  C4        16.6390   25.5050   18.8960 C.ar  300  843300      0.0371
      5  C5        17.4510   24.8170   19.8120 C.ar  300  843300     -0.0011
      6  C6        18.7840   25.2010   20.0000 C.ar  300  843300     -0.0198
      7  P7        15.9750   28.5680   17.5660 P.3   300  843300      0.5887
      8  O8        14.7640   28.7130   16.6630 O.2   300  843300     -0.2114
      9  O9        16.9940   29.7000   17.3240 O.3   300  843300     -0.1039
     10  O10       15.4970   28.6280   18.9770 O.3   300  843300     -0.1039
     11  C11       19.6780   24.4750   20.9690 C.3   300  843300      0.0574
     12  C12       19.5220   25.0730   22.3610 C.3   300  843300      0.1770
     13  C13       20.3970   24.3230   23.3480 C.2   300  843300      0.2619
     14  N14       19.7370   23.3120   23.9060 N.am  300  843300     -0.1964
     15  N15       19.9760   26.4480   22.3830 N.am  300  843300     -0.1974
     16  C16       19.3490   27.3880   23.1080 C.2   300  843300      0.2423
     17  C17       19.8030   28.8290   22.7290 C.3   300  843300      0.0964
     18  O18       18.4970   27.1280   23.9470 O.2   300  843300     -0.2733
     19  O19       21.5620   24.6870   23.5650 O.2   300  843300     -0.2715
     20  C20       20.3800   22.3640   24.8000 C.3   300  843300      0.1713
     21  C21       19.2710   21.4210   25.3450 C.3   300  843300      0.0311
     22  C22       19.6400   20.6300   26.6180 C.3   300  843300      0.0040
     23  C23       20.8490   19.7020   26.4480 C.3   300  843300      0.0216
     24  C24       22.1140   20.4740   26.1560 C.3   300  843300      0.0938
     25  N25       22.2600   20.6810   24.6850 N.am  300  843300     -0.2740
     26  C26       21.3950   21.5740   23.9400 C.2   300  843300      0.2457
     27  C27       23.2240   19.8030   23.9370 C.3   300  843300      0.1202
     28  C28       22.5680   18.4910   23.6560 C.ar  300  843300     -0.0023
     29  O29       21.3640   21.6850   22.6810 O.2   300  843300     -0.2730
     30  O30       16.4470   27.2240   17.1230 O.3   300  843300     -0.3998
     31  C54       21.3280   18.4410   22.9420 C.ar  300  843300     -0.0026
     32  C55       20.7210   17.1680   22.6640 C.ar  300  843300     -0.0003
     33  C56       21.3630   15.9890   23.0990 C.ar  300  843300     -0.0000
     34  C57       22.5330   16.0660   23.8850 C.ar  300  843300     -0.0003
     35  C58       23.1300   17.3100   24.1510 C.ar  300  843300     -0.0026
     36  C63       20.7590   14.6960   22.7790 C.ar  300  843300     -0.0000
     37  C64       21.5370   13.5390   22.6490 C.ar  300  843300     -0.0000
     38  C65       20.8230   12.3350   22.3900 C.ar  300  843300      0.0000
     39  C66       19.4170   12.2680   22.2620 C.ar  300  843300      0.0000
     40  C67       18.6550   13.4170   22.4460 C.ar  300  843300      0.0000
     41  C68       19.3330   14.6270   22.6910 C.ar  300  843300     -0.0000
@<TRIPOS>BOND
     1     8     7    2
     2    30     7    1
     3    30     3    1
     4     9     7    1
     5     7    10    1
     6     3     2   ar
     7     3     4   ar
     8     2     1   ar
     9     4     5   ar
    10     1     6   ar
    11     5     6   ar
    12     6    11    1
    13    11    12    1
    14    39    38   ar
    15    39    40   ar
    16    12    15    1
    17    12    13    1
    18    15    16   am
    19    38    37   ar
    20    40    41   ar
    21    37    36   ar
    22    32    31   ar
    23    32    33   ar
    24    29    26    2
    25    41    36   ar
    26    17    16    1
    27    36    33    1
    28    31    28   ar
    29    33    34   ar
    30    16    18    2
    31    13    19    2
    32    13    14   am
    33    28    27    1
    34    28    35   ar
    35    34    35   ar
    36    14    20    1
    37    27    25    1
    38    26    25   am
    39    26    20    1
    40    25    24    1
    41    20    21    1
    42    21    22    1
    43    24    23    1
    44    23    22    1
