@<TRIPOS>MOLECULE
1o43_821_A_1.pdb
 42 45 0 0 0
SMALL
GASTEIGER

@<TRIPOS>ATOM
      1  C1        19.1090   24.6530   20.9790 C.2   300  821300      0.0213
      2  C2        19.8740   25.2290   21.9620 C.2   300  821300      0.1282
      3  N3        20.1990   26.7220   22.1110 N.am  300  821300     -0.1745
      4  C4        19.4530   27.4360   22.9610 C.2   300  821300      0.2462
      5  C5        19.9140   28.8580   23.2910 C.3   300  821300      0.0968
      6  O9        18.5050   26.9250   23.5440 O.2   300  821300     -0.2730
      7  C10       20.4890   24.3210   23.0460 C.2   300  821300      0.2806
      8  O11       21.5830   24.6800   23.5150 O.2   300  821300     -0.2669
      9  N12       19.7980   23.2000   23.4840 N.am  300  821300     -0.1930
     10  C14       20.3760   22.3380   24.4690 C.3   300  821300      0.1716
     11  C15       19.2390   21.5160   25.0130 C.3   300  821300      0.0311
     12  C16       19.5400   20.7790   26.2910 C.3   300  821300      0.0040
     13  C19       20.6600   19.7320   26.1690 C.3   300  821300      0.0216
     14  C22       22.0260   20.3500   25.8960 C.3   300  821300      0.0938
     15  C25       21.4710   21.5380   23.6900 C.2   300  821300      0.2457
     16  N26       22.2770   20.6580   24.4650 N.am  300  821300     -0.2740
     17  O29       21.5960   21.6650   22.4530 O.2   300  821300     -0.2730
     18  C30       23.3410   19.7770   23.8190 C.3   300  821300      0.1202
     19  C31       22.7890   18.4190   23.5060 C.ar  300  821300     -0.0023
     20  C34       23.2840   17.2040   24.0410 C.ar  300  821300     -0.0026
     21  C35       22.5730   15.9950   23.7510 C.ar  300  821300     -0.0003
     22  C36       21.3920   15.9760   22.9450 C.ar  300  821300     -0.0000
     23  C37       20.8810   17.1850   22.4660 C.ar  300  821300     -0.0003
     24  C38       21.5890   18.3930   22.7280 C.ar  300  821300     -0.0026
     25  C43       20.7010   14.7030   22.5220 C.ar  300  821300     -0.0000
     26  C44       21.4360   13.4520   22.4650 C.ar  300  821300     -0.0000
     27  C45       20.6970   12.2360   22.2560 C.ar  300  821300      0.0000
     28  C46       19.3090   12.2720   22.1050 C.ar  300  821300      0.0000
     29  C47       18.6080   13.5090   22.0310 C.ar  300  821300      0.0000
     30  C48       19.2910   14.7110   22.2370 C.ar  300  821300     -0.0000
     31  C56       18.5120   25.4440   19.8810 C.ar  300  821300      0.0012
     32  C57       19.0000   26.7460   19.5200 C.ar  300  821300     -0.0003
     33  C58       18.4380   27.4950   18.4290 C.ar  300  821300     -0.0040
     34  C59       17.3560   26.9210   17.6610 C.ar  300  821300     -0.0125
     35  C60       16.8850   25.5810   18.0050 C.ar  300  821300      0.0072
     36  C61       17.4500   24.9080   19.1150 C.ar  300  821300     -0.0020
     37  C65       16.7060   27.8460   16.6030 C.3   300  821300      0.1401
     38  C66       15.4030   28.5600   17.2650 C.2   300  821300      0.3692
     39  O69       14.5650   29.0270   16.5490 O.co2 300  821300     -0.2453
     40  O70       15.2240   28.5860   18.6430 O.co2 300  821300     -0.2453
     41  C71       16.0550   24.7150   17.1880 C.3   300  821300      0.2083
     42  O72       16.6150   24.2000   16.0840 O.3   300  821300     -0.2152
@<TRIPOS>BOND
     1    42    41    1
     2    39    38   ar
     3    37    38    1
     4    37    34    1
     5    41    35    1
     6    38    40   ar
     7    34    35   ar
     8    34    33   ar
     9    35    36   ar
    10    33    32   ar
    11    36    31   ar
    12    32    31   ar
    13    31     1    1
    14     1     2    2
    15     2     3    1
    16     2     7    1
    17    29    28   ar
    18    29    30   ar
    19    28    27   ar
    20     3     4   am
    21    30    25   ar
    22    27    26   ar
    23    17    15    2
    24    26    25   ar
    25    23    24   ar
    26    23    22   ar
    27    25    22    1
    28    24    19   ar
    29    22    21   ar
    30     4     5    1
    31     4     6    2
    32     7     9   am
    33     7     8    2
    34     9    10    1
    35    19    18    1
    36    19    20   ar
    37    15    16   am
    38    15    10    1
    39    21    20   ar
    40    18    16    1
    41    16    14    1
    42    10    11    1
    43    11    12    1
    44    14    13    1
    45    13    12    1
