@<TRIPOS>MOLECULE
1o44_852_A_1.pdb
 46 49 0 0 0
SMALL
GASTEIGER

@<TRIPOS>ATOM
      1  C1        19.2380   25.6410   20.0780 C.ar  300  852300     -0.0198
      2  C2        17.8930   25.3380   19.7920 C.ar  300  852300     -0.0045
      3  C3        17.1740   26.1970   18.9590 C.ar  300  852300     -0.0033
      4  C4        17.7800   27.3790   18.5010 C.ar  300  852300      0.0054
      5  C5        19.1470   27.7350   18.8420 C.ar  300  852300      0.0766
      6  C6        19.9080   26.8100   19.5980 C.ar  300  852300      0.0021
      7  C7        20.0130   24.7630   21.0070 C.3   300  852300      0.0574
      8  C8        19.6820   25.2310   22.4180 C.3   300  852300      0.1770
      9  C9        20.4390   24.3170   23.3950 C.2   300  852300      0.2619
     10  N10       19.6870   23.2400   23.7510 N.am  300  852300     -0.1964
     11  O11       21.6050   24.5510   23.7760 O.2   300  852300     -0.2715
     12  N12       20.1280   26.6030   22.6040 N.am  300  852300     -0.1974
     13  C13       19.3270   27.5010   23.1640 C.2   300  852300      0.2423
     14  O14       18.2310   27.2440   23.6430 O.2   300  852300     -0.2733
     15  C15       19.8660   28.9370   23.0530 C.3   300  852300      0.0964
     16  C16       20.2770   22.2460   24.6060 C.3   300  852300      0.1713
     17  C17       21.3420   21.4860   23.7860 C.2   300  852300      0.2457
     18  N18       22.1520   20.6670   24.5570 N.am  300  852300     -0.2740
     19  O19       21.4010   21.6200   22.5460 O.2   300  852300     -0.2730
     20  C20       21.9980   20.4790   26.0080 C.3   300  852300      0.0938
     21  C21       20.7350   19.6590   26.1950 C.3   300  852300      0.0216
     22  C22       23.1310   19.8210   23.7850 C.3   300  852300      0.1202
     23  C23       22.5260   18.4860   23.3530 C.ar  300  852300     -0.0023
     24  C24       19.5230   20.5420   26.3410 C.3   300  852300      0.0040
     25  C25       19.1810   21.2930   25.0630 C.3   300  852300      0.0311
     26  C26       21.3440   18.4320   22.5190 C.ar  300  852300     -0.0026
     27  C27       20.7050   17.1900   22.2620 C.ar  300  852300     -0.0003
     28  C28       21.3100   16.0440   22.8510 C.ar  300  852300     -0.0000
     29  C29       22.4750   16.0610   23.6400 C.ar  300  852300     -0.0003
     30  C30       23.0840   17.2980   23.9020 C.ar  300  852300     -0.0026
     31  C31       20.6490   14.7260   22.6150 C.ar  300  852300     -0.0000
     32  C32       21.4560   13.5420   22.4670 C.ar  300  852300     -0.0000
     33  C33       20.7990   12.3110   22.1360 C.ar  300  852300      0.0000
     34  C34       19.4130   12.2830   21.9750 C.ar  300  852300      0.0000
     35  C35       18.6160   13.4230   22.1370 C.ar  300  852300      0.0000
     36  C36       19.2250   14.6580   22.4800 C.ar  300  852300     -0.0000
     37  C37       19.8350   29.0420   18.4520 C.2   300  852300      0.3875
     38  O38       19.5340   30.2120   19.1050 O.co2 300  852300     -0.2406
     39  O39       20.6260   29.0430   17.5730 O.co2 300  852300     -0.2406
     40  C40       16.9050   28.2340   17.6280 C.3   300  852300      0.2284
     41  C41       17.2300   28.4950   16.1580 C.2   300  852300      0.3793
     42  O42       17.3650   27.3560   15.5190 O.co2 300  852300     -0.2447
     43  O43       17.4200   29.5550   15.6680 O.co2 300  852300     -0.2447
     44  C76       15.4710   28.5710   17.9940 C.2   300  852300      0.3793
     45  O78       14.7690   28.7320   17.0670 O.co2 300  852300     -0.2447
     46  O79       15.1960   28.8440   19.2450 O.co2 300  852300     -0.2447
@<TRIPOS>BOND
     1    42    41   ar
     2    43    41   ar
     3    41    40    1
     4    45    44   ar
     5    39    37   ar
     6    40    44    1
     7    40     4    1
     8    44    46   ar
     9    37     5    1
    10    37    38   ar
    11     4     5   ar
    12     4     3   ar
    13     5     6   ar
    14     3     2   ar
    15     6     1   ar
    16     2     1   ar
    17     1     7    1
    18     7     8    1
    19    34    33   ar
    20    34    35   ar
    21    33    32   ar
    22    35    36   ar
    23    27    26   ar
    24    27    28   ar
    25     8    12    1
    26     8     9    1
    27    32    31   ar
    28    36    31   ar
    29    26    23   ar
    30    19    17    2
    31    12    13   am
    32    31    28    1
    33    28    29   ar
    34    15    13    1
    35    13    14    2
    36    23    22    1
    37    23    30   ar
    38     9    10   am
    39     9    11    2
    40    29    30   ar
    41    10    16    1
    42    22    18    1
    43    17    18   am
    44    17    16    1
    45    18    20    1
    46    16    25    1
    47    25    24    1
    48    20    21    1
    49    21    24    1
