@<TRIPOS>MOLECULE
1o45_687_A_1.pdb
 43 46 0 0 0
SMALL
GASTEIGER

@<TRIPOS>ATOM
      1  O76       16.6380   24.5230   15.9760 O.3   300  687300     -0.2151
      2  C1        19.2270   26.7550   19.0960 C.ar  300  687300     -0.0011
      3  C2        18.4400   27.5190   18.2270 C.ar  300  687300      0.0369
      4  C3        17.2100   26.9930   17.7080 C.ar  300  687300      0.1474
      5  C4        16.8050   25.6910   18.0680 C.ar  300  687300      0.0448
      6  C5        17.5340   24.9840   19.0590 C.ar  300  687300     -0.0029
      7  C6        18.7490   25.4950   19.5500 C.ar  300  687300     -0.0200
      8  P7        15.6600   29.0190   17.5870 P.3   300  687300      0.5887
      9  O8        14.4830   29.2940   16.6450 O.2   300  687300     -0.2114
     10  O9        16.5640   30.3360   17.6190 O.3   300  687300     -0.1039
     11  O10       15.2800   28.6700   18.9720 O.3   300  687300     -0.1039
     12  C11       19.6180   24.7050   20.5160 C.3   300  687300      0.0574
     13  C12       19.5020   25.2160   21.9180 C.3   300  687300      0.1770
     14  C13       20.3330   24.3850   22.8800 C.2   300  687300      0.2619
     15  N14       19.6900   23.2940   23.3820 N.am  300  687300     -0.1964
     16  N15       19.9850   26.5800   21.9190 N.am  300  687300     -0.1974
     17  C16       19.3610   27.4500   22.6950 C.2   300  687300      0.2423
     18  C17       19.8240   28.9110   22.4010 C.3   300  687300      0.0964
     19  O18       18.5410   27.1520   23.5610 O.2   300  687300     -0.2733
     20  O19       21.5000   24.7160   23.1540 O.2   300  687300     -0.2715
     21  C20       20.3410   22.4050   24.2910 C.3   300  687300      0.1713
     22  C21       19.2600   21.5380   24.9290 C.3   300  687300      0.0311
     23  C22       19.7290   20.6880   26.1170 C.3   300  687300      0.0040
     24  C23       20.8430   19.6530   26.0280 C.3   300  687300      0.0216
     25  C24       22.0970   20.4110   25.6400 C.3   300  687300      0.0938
     26  N25       22.2130   20.7250   24.2020 N.am  300  687300     -0.2740
     27  C26       21.3880   21.5640   23.4570 C.2   300  687300      0.2457
     28  C27       23.1290   19.8700   23.3880 C.3   300  687300      0.1202
     29  C28       22.4990   18.5080   23.2160 C.ar  300  687300     -0.0023
     30  O29       21.4110   21.6140   22.2030 O.2   300  687300     -0.2730
     31  O30       16.4570   27.8160   16.8140 O.3   300  687300     -0.4000
     32  C53       23.0350   17.3680   23.8840 C.ar  300  687300     -0.0026
     33  C54       22.4610   16.0930   23.6570 C.ar  300  687300     -0.0003
     34  C55       21.3550   15.9910   22.7770 C.ar  300  687300     -0.0000
     35  C56       20.7820   17.1360   22.1920 C.ar  300  687300     -0.0003
     36  C57       21.3280   18.4270   22.3950 C.ar  300  687300     -0.0026
     37  C62       20.7420   14.6790   22.5050 C.ar  300  687300     -0.0000
     38  C63       19.3040   14.5800   22.3610 C.ar  300  687300     -0.0000
     39  C64       18.6770   13.3160   22.1050 C.ar  300  687300      0.0000
     40  C65       19.4860   12.1450   22.0200 C.ar  300  687300      0.0000
     41  C66       20.8880   12.2410   22.1580 C.ar  300  687300      0.0000
     42  C67       21.5380   13.5010   22.4090 C.ar  300  687300     -0.0000
     43  C75       16.0370   24.8780   17.1560 C.3   300  687300      0.2116
@<TRIPOS>BOND
     1     1    43    1
     2     9     8    2
     3    31     8    1
     4    31     4    1
     5    43     5    1
     6     8    10    1
     7     8    11    1
     8     4     5   ar
     9     4     3   ar
    10     5     6   ar
    11     3     2   ar
    12     6     7   ar
    13     2     7   ar
    14     7    12    1
    15    12    13    1
    16    13    16    1
    17    13    14    1
    18    16    17   am
    19    40    39   ar
    20    40    41   ar
    21    39    38   ar
    22    41    42   ar
    23    35    36   ar
    24    35    34   ar
    25    30    27    2
    26    38    37   ar
    27    36    29   ar
    28    18    17    1
    29    42    37   ar
    30    37    34    1
    31    17    19    2
    32    34    33   ar
    33    14    20    2
    34    14    15   am
    35    29    28    1
    36    29    32   ar
    37    15    21    1
    38    28    26    1
    39    27    26   am
    40    27    21    1
    41    33    32   ar
    42    26    25    1
    43    21    22    1
    44    22    23    1
    45    25    24    1
    46    24    23    1
