@<TRIPOS>MOLECULE
1o46_903_A_1.pdb
 48 51 0 0 0
SMALL
GASTEIGER

@<TRIPOS>ATOM
      1  C1        19.1350   25.5170   19.9930 C.ar  300  903300     -0.0198
      2  C2        17.9590   25.0900   19.3290 C.ar  300  903300     -0.0044
      3  C3        17.2280   26.0830   18.5700 C.ar  300  903300     -0.0008
      4  C4        17.7610   27.4250   18.3690 C.ar  300  903300      0.0343
      5  C5        19.0400   27.8440   19.0330 C.ar  300  903300      0.0749
      6  C6        19.6720   26.8850   19.8450 C.ar  300  903300      0.0020
      7  C7        19.9100   24.6630   20.9570 C.3   300  903300      0.0574
      8  C8        19.6210   25.2090   22.3410 C.3   300  903300      0.1770
      9  C9        20.3880   24.4090   23.3980 C.2   300  903300      0.2619
     10  N10       19.6050   23.3080   23.8240 N.am  300  903300     -0.1964
     11  O11       21.5660   24.7110   23.7780 O.2   300  903300     -0.2715
     12  N12       20.1350   26.6240   22.4830 N.am  300  903300     -0.1974
     13  C13       19.3360   27.4970   23.0940 C.2   300  903300      0.2423
     14  O14       18.1180   27.3080   23.2730 O.2   300  903300     -0.2733
     15  C15       20.0850   28.8560   23.4910 C.3   300  903300      0.0964
     16  C16       20.4610   22.2750   24.4800 C.3   300  903300      0.1713
     17  C17       21.4640   21.5080   23.4880 C.2   300  903300      0.2457
     18  N18       22.4220   20.6160   24.2850 N.am  300  903300     -0.2740
     19  O19       21.4970   21.6360   22.2170 O.2   300  903300     -0.2730
     20  C20       22.2620   20.2370   25.7200 C.3   300  903300      0.0938
     21  C21       20.9390   19.6910   26.1560 C.3   300  903300      0.0216
     22  C22       23.5220   19.8970   23.6150 C.3   300  903300      0.1202
     23  C23       22.9310   18.6080   23.2750 C.ar  300  903300     -0.0023
     24  C24       19.9260   20.7840   26.5300 C.3   300  903300      0.0040
     25  C25       19.4000   21.5790   25.3600 C.3   300  903300      0.0311
     26  C26       23.3910   17.4840   23.9450 C.ar  300  903300     -0.0026
     27  C27       22.6330   16.2820   23.7810 C.ar  300  903300     -0.0003
     28  C28       21.4870   16.1930   23.0090 C.ar  300  903300     -0.0000
     29  C29       21.0140   17.3400   22.3090 C.ar  300  903300     -0.0003
     30  C30       21.7510   18.5660   22.4090 C.ar  300  903300     -0.0026
     31  C31       20.8770   14.8900   22.6510 C.ar  300  903300     -0.0000
     32  C32       19.4070   14.7970   22.4960 C.ar  300  903300     -0.0000
     33  C33       18.8070   13.5160   22.3050 C.ar  300  903300      0.0000
     34  C34       19.6400   12.3700   22.2470 C.ar  300  903300      0.0000
     35  C35       21.0700   12.5150   22.2160 C.ar  300  903300      0.0000
     36  C36       21.7540   13.7690   22.4340 C.ar  300  903300     -0.0000
     37  C37       19.8460   29.2090   18.9070 C.2   300  903300      0.3411
     38  O38       19.8400   29.8340   20.1370 O.3   300  903300     -0.4413
     39  O39       20.1760   29.6520   17.8550 O.2   300  903300     -0.2449
     40  C40       17.0580   28.3120   17.2720 C.3   300  903300      0.3361
     41  C41       17.2990   29.7870   17.1940 C.2   300  903300      0.4083
     42  O42       17.3420   30.3270   18.5670 O.co2 300  903300     -0.2417
     43  O43       17.3010   30.3620   16.0850 O.co2 300  903300     -0.2417
     44  C75       15.5720   28.6620   17.8910 C.2   300  903300      0.4083
     45  O76       14.7750   28.7100   17.0720 O.co2 300  903300     -0.2417
     46  O77       15.1620   29.0160   19.0580 O.co2 300  903300     -0.2417
     47  F80       17.3720   28.2160   15.7210 F     300  903300     -0.2120
     48  C81       20.2010   31.0060   21.0750 C.3   300  903300      0.2560
@<TRIPOS>BOND
     1    47    40    1
     2    43    41   ar
     3    45    44   ar
     4    41    40    1
     5    41    42   ar
     6    40    44    1
     7    40     4    1
     8    39    37    2
     9    44    46   ar
    10     4     3   ar
    11     4     5   ar
    12     3     2   ar
    13    37     5    1
    14    37    38    1
    15     5     6   ar
    16     2     1   ar
    17     6     1   ar
    18     1     7    1
    19    38    48    1
    20     7     8    1
    21    35    34   ar
    22    35    36   ar
    23    19    17    2
    24    34    33   ar
    25    33    32   ar
    26    29    30   ar
    27    29    28   ar
    28     8    12    1
    29     8     9    1
    30    30    23   ar
    31    36    31   ar
    32    12    13   am
    33    32    31   ar
    34    31    28    1
    35    28    27   ar
    36    13    14    2
    37    13    15    1
    38    23    22    1
    39    23    26   ar
    40     9    11    2
    41     9    10   am
    42    17    18   am
    43    17    16    1
    44    22    18    1
    45    27    26   ar
    46    10    16    1
    47    18    20    1
    48    16    25    1
    49    25    24    1
    50    20    21    1
    51    21    24    1
