@<TRIPOS>MOLECULE
1o47_822_A_1.pdb
 43 46 0 0 0
SMALL
GASTEIGER

@<TRIPOS>ATOM
      1  C1        19.4240   24.9570   20.1250 C.ar  300  822300     -0.0200
      2  C2        19.9800   25.8960   19.2510 C.ar  300  822300     -0.0043
      3  C3        19.1920   26.3790   18.1810 C.ar  300  822300      0.0011
      4  C4        17.8020   26.0000   18.0910 C.ar  300  822300      0.0444
      5  C5        17.2850   25.0700   18.9970 C.ar  300  822300      0.0011
      6  C6        18.0830   24.5020   19.9870 C.ar  300  822300     -0.0043
      7  C11       16.9190   26.6460   17.0140 C.3   300  822300      0.3249
      8  F12       15.8890   25.8170   16.7100 F     300  822300     -0.1920
      9  F13       17.6140   26.8760   15.8720 F     300  822300     -0.1920
     10  P14       16.3220   28.3460   17.4480 P.3   300  822300      0.1831
     11  O15       15.1940   28.7000   16.4530 O.2   300  822300     -0.4543
     12  O16       17.3820   29.3300   17.2510 O.3   300  822300     -0.3533
     13  O17       15.6890   28.4760   18.8650 O.3   300  822300     -0.3533
     14  C18       20.3070   24.3950   21.1770 C.3   300  822300      0.0574
     15  C19       19.9480   25.0170   22.5210 C.3   300  822300      0.1770
     16  C22       20.6960   24.2990   23.6180 C.2   300  822300      0.2619
     17  N23       19.9660   23.2750   24.1800 N.am  300  822300     -0.1964
     18  O24       21.8530   24.6550   23.9280 O.2   300  822300     -0.2715
     19  N25       20.2830   26.4220   22.5370 N.am  300  822300     -0.1974
     20  C26       19.5610   27.3450   23.1640 C.2   300  822300      0.2423
     21  O27       18.6200   27.0650   23.8980 O.2   300  822300     -0.2733
     22  C28       19.9670   28.8210   22.8380 C.3   300  822300      0.0964
     23  C32       20.5770   22.3410   25.0850 C.3   300  822300      0.1713
     24  C33       21.6280   21.5460   24.2610 C.2   300  822300      0.2457
     25  N34       22.4330   20.6070   24.9690 N.am  300  822300     -0.2740
     26  O37       21.7590   21.6650   23.0380 O.2   300  822300     -0.2730
     27  C38       22.2570   20.2680   26.3960 C.3   300  822300      0.0938
     28  C39       20.9350   19.5430   26.6110 C.3   300  822300      0.0216
     29  C42       23.3850   19.7250   24.2360 C.3   300  822300      0.1202
     30  C43       22.7690   18.3660   23.9430 C.ar  300  822300     -0.0023
     31  C46       19.7630   20.5430   26.8230 C.3   300  822300      0.0040
     32  C49       19.4480   21.4420   25.5810 C.3   300  822300      0.0311
     33  C58       21.6950   18.2980   23.0160 C.ar  300  822300     -0.0026
     34  C59       21.0810   17.0480   22.7270 C.ar  300  822300     -0.0003
     35  C60       21.6030   15.9300   23.3900 C.ar  300  822300     -0.0000
     36  C61       22.6530   16.0030   24.3330 C.ar  300  822300     -0.0003
     37  C62       23.2220   17.2200   24.6140 C.ar  300  822300     -0.0026
     38  C67       20.9300   14.6240   23.0890 C.ar  300  822300     -0.0000
     39  C68       21.6630   13.4050   23.0050 C.ar  300  822300     -0.0000
     40  C69       20.9670   12.1930   22.7170 C.ar  300  822300      0.0000
     41  C70       19.5830   12.1750   22.5330 C.ar  300  822300      0.0000
     42  C71       18.8250   13.3490   22.6960 C.ar  300  822300      0.0000
     43  C72       19.5010   14.5720   22.9550 C.ar  300  822300     -0.0000
@<TRIPOS>BOND
     1     9     7    1
     2    11    10    2
     3     8     7    1
     4     7    10    1
     5     7     4    1
     6    12    10    1
     7    10    13    1
     8     4     3   ar
     9     4     5   ar
    10     3     2   ar
    11     5     6   ar
    12     2     1   ar
    13     6     1   ar
    14     1    14    1
    15    14    15    1
    16    15    19    1
    17    15    16    1
    18    41    42   ar
    19    41    40   ar
    20    19    20   am
    21    42    43   ar
    22    40    39   ar
    23    34    33   ar
    24    34    35   ar
    25    22    20    1
    26    43    38   ar
    27    39    38   ar
    28    33    30   ar
    29    26    24    2
    30    38    35    1
    31    20    21    2
    32    35    36   ar
    33    16    18    2
    34    16    17   am
    35    30    29    1
    36    30    37   ar
    37    17    23    1
    38    29    25    1
    39    24    25   am
    40    24    23    1
    41    36    37   ar
    42    25    27    1
    43    23    32    1
    44    32    31    1
    45    27    28    1
    46    28    31    1
