@<TRIPOS>MOLECULE
1o48_853_A_1.pdb
 43 46 0 0 0
SMALL
GASTEIGER

@<TRIPOS>ATOM
      1  C1        19.0180   25.2650   19.5650 C.ar  300  853300     -0.0198
      2  C2        17.6520   24.9090   19.3890 C.ar  300  853300     -0.0045
      3  C3        16.8230   25.6810   18.5460 C.ar  300  853300     -0.0038
      4  C4        17.4120   26.7520   17.7840 C.ar  300  853300     -0.0046
      5  C5        18.8340   27.0580   17.8510 C.ar  300  853300      0.0760
      6  C6        19.6220   26.3270   18.8080 C.ar  300  853300      0.0021
      7  C10       19.8470   24.4880   20.6190 C.3   300  853300      0.0574
      8  C11       19.6000   25.0830   22.0150 C.3   300  853300      0.1770
      9  C14       20.3030   24.2510   23.0760 C.2   300  853300      0.2619
     10  N15       19.6080   23.2240   23.5300 N.am  300  853300     -0.1964
     11  O16       21.4340   24.5430   23.4610 O.2   300  853300     -0.2715
     12  N17       20.0370   26.4980   22.0200 N.am  300  853300     -0.1974
     13  C18       19.3900   27.3850   22.8110 C.2   300  853300      0.2423
     14  O19       18.4100   27.0780   23.4990 O.2   300  853300     -0.2733
     15  C20       19.9870   28.8260   22.7870 C.3   300  853300      0.0964
     16  C24       20.2910   22.2440   24.3590 C.3   300  853300      0.1713
     17  C25       21.3620   21.4210   23.5300 C.2   300  853300      0.2457
     18  N26       22.1650   20.5580   24.2570 N.am  300  853300     -0.2740
     19  O27       21.4630   21.5680   22.3020 O.2   300  853300     -0.2730
     20  C28       22.0180   20.2790   25.6930 C.3   300  853300      0.0938
     21  C29       20.7200   19.5960   26.0560 C.3   300  853300      0.0216
     22  C32       23.1790   19.6830   23.5820 C.3   300  853300      0.1202
     23  C33       22.5560   18.3030   23.3220 C.ar  300  853300     -0.0023
     24  C36       19.5640   20.5780   26.2040 C.3   300  853300      0.0040
     25  C39       19.1950   21.3400   24.9190 C.3   300  853300      0.0311
     26  C46       21.4050   18.2670   22.4350 C.ar  300  853300     -0.0026
     27  C47       20.7220   17.0590   22.2680 C.ar  300  853300     -0.0003
     28  C48       21.2760   15.8760   22.8910 C.ar  300  853300     -0.0000
     29  C49       22.4610   15.8860   23.7320 C.ar  300  853300     -0.0003
     30  C50       23.0610   17.1320   23.9890 C.ar  300  853300     -0.0026
     31  C55       20.5670   14.5840   22.5790 C.ar  300  853300     -0.0000
     32  C56       19.1380   14.5620   22.3830 C.ar  300  853300     -0.0000
     33  C57       18.5180   13.3350   22.1240 C.ar  300  853300      0.0000
     34  C58       19.2670   12.1240   22.1060 C.ar  300  853300      0.0000
     35  C59       20.6550   12.1450   22.2830 C.ar  300  853300      0.0000
     36  C60       21.3340   13.3780   22.4640 C.ar  300  853300     -0.0000
     37  C68       19.5240   27.9820   16.8640 C.2   300  853300      0.3874
     38  O69       20.0090   29.1550   17.2750 O.co2 300  853300     -0.2406
     39  O70       19.6160   27.6680   15.7090 O.co2 300  853300     -0.2406
     40  C71       16.4750   27.4870   16.8220 C.3   300  853300      0.1406
     41  C72       15.3310   28.2450   17.4900 C.2   300  853300      0.3692
     42  O75       14.5580   28.8060   16.5620 O.co2 300  853300     -0.2453
     43  O76       15.1400   28.3530   18.6620 O.co2 300  853300     -0.2453
@<TRIPOS>BOND
     1    39    37   ar
     2    42    41   ar
     3    40    41    1
     4    40     4    1
     5    37    38   ar
     6    37     5    1
     7    41    43   ar
     8     4     5   ar
     9     4     3   ar
    10     5     6   ar
    11     3     2   ar
    12     6     1   ar
    13     2     1   ar
    14     1     7    1
    15     7     8    1
    16     8    12    1
    17     8     9    1
    18    12    13   am
    19    34    33   ar
    20    34    35   ar
    21    33    32   ar
    22    27    26   ar
    23    27    28   ar
    24    35    36   ar
    25    19    17    2
    26    32    31   ar
    27    26    23   ar
    28    36    31   ar
    29    31    28    1
    30    15    13    1
    31    13    14    2
    32    28    29   ar
    33     9    11    2
    34     9    10   am
    35    23    22    1
    36    23    30   ar
    37    10    16    1
    38    17    18   am
    39    17    16    1
    40    22    18    1
    41    29    30   ar
    42    18    20    1
    43    16    25    1
    44    25    24    1
    45    20    21    1
    46    21    24    1
