@<TRIPOS>MOLECULE
1o49_493_A_1.pdb
 45 48 0 0 0
SMALL
GASTEIGER

@<TRIPOS>ATOM
      1  C1        17.9950   24.7810   19.7560 C.ar  300  493300     -0.0011
      2  C2        16.9630   25.3480   19.0580 C.ar  300  493300      0.0367
      3  C3        17.2960   26.4740   18.3550 C.ar  300  493300      0.1419
      4  C4        18.6110   27.0000   18.2810 C.ar  300  493300      0.0625
      5  C5        19.6710   26.4390   19.0430 C.ar  300  493300      0.0016
      6  C6        19.2790   25.3190   19.7630 C.ar  300  493300     -0.0196
      7  C7        16.0200   28.0840   17.0160 C.3   300  493300      0.3186
      8  C8        15.1300   29.0820   17.6980 C.2   300  493300      0.4084
      9  C9        20.1580   24.5360   20.6750 C.3   300  493300      0.0574
     10  C10       19.7200   25.0560   21.9730 C.3   300  493300      0.1770
     11  C11       20.3640   24.2650   23.0800 C.2   300  493300      0.2619
     12  N12       19.6560   23.2710   23.6450 N.am  300  493300     -0.1964
     13  N13       20.2420   26.4830   22.0420 N.am  300  493300     -0.1974
     14  C14       19.5540   27.4340   22.6320 C.2   300  493300      0.2423
     15  C15       19.9200   28.7660   21.8800 C.3   300  493300      0.0964
     16  O16       18.6860   27.1840   23.4560 O.2   300  493300     -0.2733
     17  O17       21.4780   24.5410   23.4150 O.2   300  493300     -0.2715
     18  C18       20.3090   22.2960   24.4390 C.3   300  493300      0.1713
     19  C19       19.1850   21.4990   24.9430 C.3   300  493300      0.0311
     20  C20       19.4960   20.7240   26.2170 C.3   300  493300      0.0040
     21  C21       20.7210   19.7890   26.1940 C.3   300  493300      0.0216
     22  C22       22.1180   20.3880   25.8710 C.3   300  493300      0.0938
     23  N23       22.3370   20.6630   24.4090 N.am  300  493300     -0.2740
     24  C24       21.3700   21.4480   23.6410 C.2   300  493300      0.2457
     25  C25       23.3700   19.7860   23.6880 C.3   300  493300      0.1202
     26  C26       22.7690   18.4000   23.3840 C.ar  300  493300     -0.0023
     27  O27       21.4100   21.4690   22.3490 O.2   300  493300     -0.2730
     28  O28       16.1340   26.9460   17.8710 O.3   300  493300     -0.4636
     29  C49       23.2550   17.2490   23.9650 C.ar  300  493300     -0.0026
     30  C50       22.6330   16.0070   23.7130 C.ar  300  493300     -0.0003
     31  C51       21.4920   15.8870   22.8340 C.ar  300  493300     -0.0000
     32  C52       20.9040   17.0700   22.3200 C.ar  300  493300     -0.0003
     33  C53       21.5490   18.3500   22.5790 C.ar  300  493300     -0.0026
     34  C58       20.8760   14.5980   22.4400 C.ar  300  493300     -0.0000
     35  C59       19.4760   14.4650   22.2470 C.ar  300  493300     -0.0000
     36  C60       18.7350   13.3050   22.1580 C.ar  300  493300      0.0000
     37  C61       19.4900   12.1570   22.2020 C.ar  300  493300      0.0000
     38  C62       20.8410   12.1450   22.2260 C.ar  300  493300      0.0000
     39  C63       21.5750   13.3940   22.3830 C.ar  300  493300     -0.0000
     40  P71       18.9540   28.4970   17.2660 P.3   300  493300      0.1424
     41  O72       20.4880   28.8870   17.2560 O.3   300  493300     -0.3541
     42  O73       18.0130   29.6500   18.1210 O.3   300  493300     -0.3541
     43  O74       18.1370   28.2590   15.6050 O.2   300  493300     -0.4556
     44  O79       14.3170   29.4790   16.7160 O.co2 300  493300     -0.2415
     45  O80       15.1300   29.4220   18.8570 O.co2 300  493300     -0.2415
@<TRIPOS>BOND
     1    43    40    2
     2    44     8   ar
     3     7     8    1
     4     7    28    1
     5    41    40    1
     6    40    42    1
     7    40     4    1
     8     8    45   ar
     9    28     3    1
    10     4     3   ar
    11     4     5   ar
    12     3     2   ar
    13     5     6   ar
    14     2     1   ar
    15     1     6   ar
    16     6     9    1
    17     9    10    1
    18    15    14    1
    19    10    13    1
    20    10    11    1
    21    13    14   am
    22    36    37   ar
    23    36    35   ar
    24    37    38   ar
    25    38    39   ar
    26    35    34   ar
    27    32    33   ar
    28    32    31   ar
    29    27    24    2
    30    39    34   ar
    31    34    31    1
    32    33    26   ar
    33    14    16    2
    34    31    30   ar
    35    11    17    2
    36    11    12   am
    37    26    25    1
    38    26    29   ar
    39    24    23   am
    40    24    18    1
    41    12    18    1
    42    25    23    1
    43    30    29   ar
    44    23    22    1
    45    18    19    1
    46    19    20    1
    47    22    21    1
    48    21    20    1
