@<TRIPOS>MOLECULE
1o4a_197_A_1.pdb
 41 44 0 0 0
SMALL
GASTEIGER

@<TRIPOS>ATOM
      1  C1        19.7650   25.7160   18.0330 C.ar  300  197300     -0.0040
      2  C2        19.1120   26.4000   16.9760 C.ar  300  197300      0.0060
      3  C3        17.6760   26.3620   16.8220 C.ar  300  197300      0.0782
      4  C4        16.9490   25.5680   17.7600 C.ar  300  197300      0.0166
      5  C5        17.5950   24.9470   18.8810 C.ar  300  197300     -0.0057
      6  C6        18.9910   25.0230   19.0090 C.ar  300  197300     -0.0202
      7  C7        19.6770   24.3670   20.1900 C.3   300  197300      0.0574
      8  C8        19.2970   25.0390   21.5160 C.3   300  197300      0.1770
      9  C9        20.0570   24.3250   22.5960 C.2   300  197300      0.2619
     10  N10       19.3480   23.2980   23.1150 N.am  300  197300     -0.1964
     11  N11       19.7280   26.4500   21.5740 N.am  300  197300     -0.1974
     12  C12       18.8770   27.4740   21.6000 C.2   300  197300      0.2423
     13  C13       19.6670   28.7800   21.4210 C.3   300  197300      0.0964
     14  O14       17.6420   27.4150   21.6070 O.2   300  197300     -0.2733
     15  O15       21.2110   24.6650   22.9410 O.2   300  197300     -0.2715
     16  C16       20.0040   22.3290   23.9430 C.3   300  197300      0.1713
     17  C17       18.8880   21.4630   24.5380 C.3   300  197300      0.0311
     18  C18       19.4240   20.8530   25.8200 C.3   300  197300      0.0040
     19  C19       20.5950   19.9080   25.8250 C.3   300  197300      0.0216
     20  C20       21.9420   20.4580   25.3400 C.3   300  197300      0.0938
     21  N21       22.0390   20.7010   23.8890 N.am  300  197300     -0.2740
     22  C22       21.1540   21.5130   23.1340 C.2   300  197300      0.2457
     23  C23       23.0340   19.8310   23.2040 C.3   300  197300      0.1202
     24  C24       22.4410   18.4940   22.9660 C.ar  300  197300     -0.0023
     25  O25       21.1830   21.6180   21.8970 O.2   300  197300     -0.2730
     26  C46       22.9840   17.2850   23.5730 C.ar  300  197300     -0.0026
     27  C47       22.3530   15.9970   23.3820 C.ar  300  197300     -0.0003
     28  C48       21.1690   15.9800   22.5690 C.ar  300  197300     -0.0000
     29  C49       20.6360   17.1750   21.9840 C.ar  300  197300     -0.0003
     30  C50       21.2650   18.4540   22.1630 C.ar  300  197300     -0.0026
     31  C55       20.4270   14.7220   22.2570 C.ar  300  197300     -0.0000
     32  C56       21.1720   13.5330   22.0600 C.ar  300  197300     -0.0000
     33  C57       20.4940   12.3360   21.7590 C.ar  300  197300      0.0000
     34  C58       19.0670   12.3760   21.6700 C.ar  300  197300      0.0000
     35  C59       18.3110   13.5950   21.9110 C.ar  300  197300      0.0000
     36  C60       19.0090   14.7680   22.1860 C.ar  300  197300     -0.0000
     37  C68       17.0580   27.2100   15.7360 C.2   300  197300      0.3875
     38  O69       17.5840   27.4880   14.7200 O.co2 300  197300     -0.2406
     39  O70       15.8570   27.6580   15.8510 O.co2 300  197300     -0.2406
     40  C71       15.5320   25.4910   17.7840 C.3   300  197300      0.2088
     41  O72       14.8670   26.6290   18.2070 O.3   300  197300     -0.2152
@<TRIPOS>BOND
     1    38    37   ar
     2    37    39   ar
     3    37     3    1
     4     3     2   ar
     5     3     4   ar
     6     2     1   ar
     7     4    40    1
     8     4     5   ar
     9    40    41    1
    10     1     6   ar
    11     5     6   ar
    12     6     7    1
    13     7     8    1
    14    13    12    1
    15     8    11    1
    16     8     9    1
    17    11    12   am
    18    12    14    2
    19    34    33   ar
    20    34    35   ar
    21    33    32   ar
    22    25    22    2
    23    35    36   ar
    24    29    30   ar
    25    29    28   ar
    26    32    31   ar
    27    30    24   ar
    28    36    31   ar
    29    31    28    1
    30    28    27   ar
    31     9    15    2
    32     9    10   am
    33    24    23    1
    34    24    26   ar
    35    10    16    1
    36    22    21   am
    37    22    16    1
    38    23    21    1
    39    27    26   ar
    40    21    20    1
    41    16    17    1
    42    17    18    1
    43    20    19    1
    44    18    19    1
