@<TRIPOS>MOLECULE
1o4b_876_A_1.pdb
 44 47 0 0 0
SMALL
GASTEIGER

@<TRIPOS>ATOM
      1  C1        18.3470   25.1510   18.2600 C.ar  300  876300     -0.0041
      2  C2        17.9190   25.7600   17.1210 C.ar  300  876300      0.0025
      3  C3        17.1620   26.8700   17.2590 C.ar  300  876300      0.0314
      4  C4        16.7820   27.3970   18.4740 C.ar  300  876300      0.0311
      5  C5        17.2130   26.8140   19.7180 C.ar  300  876300     -0.0014
      6  C6        18.0690   25.6410   19.5110 C.ar  300  876300     -0.0198
      7  C7        19.0000   24.7710   20.3300 C.3   300  876300      0.0574
      8  C8        19.0090   25.3390   21.7540 C.3   300  876300      0.1770
      9  C9        19.8580   24.4270   22.6270 C.2   300  876300      0.2619
     10  N10       19.2440   23.4080   23.2650 N.am  300  876300     -0.1964
     11  N11       19.4620   26.7300   21.7960 N.am  300  876300     -0.1974
     12  C12       18.7950   27.7140   22.4040 C.2   300  876300      0.2423
     13  C13       19.5500   28.9770   22.2110 C.3   300  876300      0.0964
     14  O14       17.7270   27.6140   23.0200 O.2   300  876300     -0.2733
     15  O15       21.0830   24.7080   22.7490 O.2   300  876300     -0.2715
     16  C16       20.0170   22.4290   24.0370 C.3   300  876300      0.1713
     17  C17       18.9530   21.4860   24.6210 C.3   300  876300      0.0311
     18  C18       19.4680   20.3020   25.5440 C.3   300  876300      0.0040
     19  C19       20.8290   20.5600   26.1470 C.3   300  876300      0.0216
     20  C20       21.9480   20.2400   25.1590 C.3   300  876300      0.0938
     21  N21       21.9310   20.7900   23.7660 N.am  300  876300     -0.2740
     22  C22       21.0520   21.7040   23.1560 C.2   300  876300      0.2457
     23  C23       22.9650   20.0820   22.9730 C.3   300  876300      0.1202
     24  C24       22.5360   18.6740   22.7880 C.ar  300  876300     -0.0023
     25  O25       21.0910   21.9630   21.9470 O.2   300  876300     -0.2730
     26  P26       16.6200   27.5360   15.7270 P.3   300  876300      0.1396
     27  C27       21.4810   18.4820   21.8760 C.ar  300  876300     -0.0026
     28  C28       20.8700   17.2110   21.7940 C.ar  300  876300     -0.0003
     29  C29       21.3390   16.1370   22.5960 C.ar  300  876300     -0.0000
     30  C30       22.4630   16.3150   23.4560 C.ar  300  876300     -0.0003
     31  C31       23.0630   17.5980   23.5580 C.ar  300  876300     -0.0026
     32  C32       20.6500   14.8290   22.4470 C.ar  300  876300     -0.0000
     33  C59       21.4160   13.6370   22.4180 C.ar  300  876300     -0.0000
     34  C60       20.8030   12.4050   22.0650 C.ar  300  876300      0.0000
     35  C61       19.4320   12.3720   21.7540 C.ar  300  876300      0.0000
     36  C62       18.6340   13.5270   21.8690 C.ar  300  876300      0.0000
     37  C63       19.2430   14.7500   22.2130 C.ar  300  876300     -0.0000
     38  P69       15.8670   28.8570   18.2340 P.3   300  876300      0.1396
     39  O70       14.8490   28.8820   17.1700 O.2   300  876300     -0.4557
     40  O71       16.7000   30.0440   18.2930 O.3   300  876300     -0.3542
     41  O72       15.0720   28.6650   19.3920 O.3   300  876300     -0.3542
     42  O73       15.2160   27.2480   15.4970 O.3   300  876300     -0.3542
     43  O74       17.4120   27.1530   14.4100 O.2   300  876300     -0.4557
     44  O75       17.1270   28.9920   15.6280 O.3   300  876300     -0.3542
@<TRIPOS>BOND
     1    43    26    2
     2    42    26    1
     3    44    26    1
     4    26     3    1
     5     2     3   ar
     6     2     1   ar
     7    39    38    2
     8     3     4   ar
     9    38    40    1
    10    38     4    1
    11    38    41    1
    12     1     6   ar
    13     4     5   ar
    14     6     5   ar
    15     6     7    1
    16     7     8    1
    17     8    11    1
    18     8     9    1
    19    35    36   ar
    20    35    34   ar
    21    28    27   ar
    22    28    29   ar
    23    11    12   am
    24    36    37   ar
    25    27    24   ar
    26    25    22    2
    27    34    33   ar
    28    13    12    1
    29    37    32   ar
    30    12    14    2
    31    33    32   ar
    32    32    29    1
    33    29    30   ar
    34     9    15    2
    35     9    10   am
    36    24    23    1
    37    24    31   ar
    38    23    21    1
    39    22    21   am
    40    22    16    1
    41    10    16    1
    42    30    31   ar
    43    21    20    1
    44    16    17    1
    45    17    18    1
    46    20    19    1
    47    18    19    1
