@<TRIPOS>MOLECULE
1o4d_262_A_1.pdb
 13 13 0 0 0
SMALL
GASTEIGER

@<TRIPOS>ATOM
      1  C1        17.3440   24.5310   19.4360 C.ar  300  262300      0.0013
      2  C2        18.0020   24.8400   20.6550 C.ar  300  262300     -0.0000
      3  C3        17.8620   26.1430   21.1930 C.ar  300  262300      0.0031
      4  C4        17.0680   27.1100   20.4950 C.ar  300  262300      0.0372
      5  C5        16.4050   26.7880   19.2680 C.ar  300  262300      0.1474
      6  C6        16.5180   25.4430   18.7450 C.ar  300  262300      0.0451
      7  C7        15.6710   24.8320   17.7000 C.3   300  262300      0.2116
      8  O8        15.4660   27.7390   18.7770 O.3   300  262300     -0.4000
      9  P9        15.8570   28.6660   17.5660 P.3   300  262300      0.5887
     10  O10       14.5170   29.0690   16.9400 O.3   300  262300     -0.1039
     11  O11       16.6830   27.8300   16.5400 O.2   300  262300     -0.2114
     12  O14       16.5710   29.9010   18.0600 O.3   300  262300     -0.1039
     13  O12       15.3390   25.2720   16.5240 O.3   300  262300     -0.2151
@<TRIPOS>BOND
     1    13     7    1
     2    11     9    2
     3    10     9    1
     4     9    12    1
     5     9     8    1
     6     7     6    1
     7     6     5   ar
     8     6     1   ar
     9     8     5    1
    10     5     4   ar
    11     1     2   ar
    12     4     3   ar
    13     2     3   ar
