@<TRIPOS>MOLECULE
1o4e_299_A_1.pdb
 16 16 0 0 0
SMALL
GASTEIGER

@<TRIPOS>ATOM
      1  C1        18.0910   26.2990   20.8470 C.ar  300  299300      0.0021
      2  C2        18.1810   24.9590   20.3710 C.ar  300  299300     -0.0218
      3  C3        17.3160   24.6000   19.2970 C.ar  300  299300     -0.0030
      4  C4        16.4710   25.5390   18.6490 C.ar  300  299300      0.0449
      5  C5        16.4000   26.8770   19.1250 C.ar  300  299300      0.1505
      6  C6        17.1870   27.2590   20.2550 C.ar  300  299300      0.0761
      7  C7        19.1210   24.0220   21.0240 C.3   300  299300      0.0310
      8  C11       15.6650   25.0640   17.5480 C.3   300  299300      0.2116
      9  C12       17.0630   28.5660   20.9380 C.2   300  299300      0.2372
     10  O13       15.4610   27.8200   18.6210 O.3   300  299300     -0.3999
     11  P14       15.7630   28.7100   17.4240 P.3   300  299300      0.5887
     12  O15       14.4500   29.4170   17.2260 O.3   300  299300     -0.1039
     13  O16       16.0550   27.8960   16.1760 O.2   300  299300     -0.2114
     14  O17       16.7910   29.6950   17.7040 O.3   300  299300     -0.1039
     15  O20       15.8190   25.2190   16.1940 O.3   300  299300     -0.2151
     16  O22       16.7070   28.6830   22.1060 O.2   300  299300     -0.2830
@<TRIPOS>BOND
     1    13    11    2
     2    15     8    1
     3    12    11    1
     4    11    14    1
     5    11    10    1
     6     8     4    1
     7    10     5    1
     8     4     5   ar
     9     4     3   ar
    10     5     6   ar
    11     3     2   ar
    12     6     1   ar
    13     6     9    1
    14     2     1   ar
    15     2     7    1
    16     9    16    2
