@<TRIPOS>MOLECULE
1o4f_790_A_1.pdb
 15 16 0 0 0
SMALL
GASTEIGER

@<TRIPOS>ATOM
      1  C1        18.8090   26.0860   20.1030 C.3   300  790300      0.0523
      2  C2        19.0410   25.9330   18.6140 C.2   300  790300     -0.0225
      3  C3        18.6520   27.1380   17.7550 C.ar  300  790300      0.0160
      4  C4        17.9880   28.2580   18.2870 C.ar  300  790300      0.1100
      5  N5        17.8860   28.3760   19.6580 N.2   300  790300     -0.2670
      6  C6        18.7600   27.5640   20.5180 C.3   300  790300      0.1303
      7  C13       19.0410   27.1710   16.4120 C.ar  300  790300      0.0014
      8  C14       18.8150   28.3140   15.6250 C.ar  300  790300      0.0032
      9  C15       18.1250   29.4100   16.1230 C.ar  300  790300      0.0390
     10  C16       17.6270   29.3220   17.4220 C.ar  300  790300      0.1660
     11  O17       16.7500   30.2890   17.8710 O.3   300  790300     -0.3982
     12  P18       15.2920   29.7010   18.0510 P.3   300  790300      0.5887
     13  O19       14.7740   31.0290   18.6060 O.3   300  790300     -0.1039
     14  O20       15.0540   28.6250   19.1130 O.3   300  790300     -0.1039
     15  O21       14.6020   29.3020   16.7930 O.2   300  790300     -0.2114
@<TRIPOS>BOND
     1     8     9   ar
     2     8     7   ar
     3     9    10   ar
     4     7     3   ar
     5    15    12    2
     6    10    11    1
     7    10     4   ar
     8     3     4   ar
     9     3     2    2
    10    11    12    1
    11    12    13    1
    12    12    14    1
    13     4     5    2
    14     2     1    1
    15     5     6    1
    16     1     6    1
