@<TRIPOS>MOLECULE
1o4g_I59_A_1.pdb
 16 17 0 0 0
SMALL
GASTEIGER

@<TRIPOS>ATOM
      1  C1        21.8620   29.4050   15.8120 C.ar  300  I59300     -0.0000
      2  C2        21.7960   28.7990   17.0960 C.ar  300  I59300     -0.0000
      3  C3        20.5400   28.3900   17.5910 C.ar  300  I59300     -0.0002
      4  C4        19.3210   28.5830   16.7830 C.ar  300  I59300     -0.0012
      5  C5        19.4290   29.2090   15.5000 C.ar  300  I59300     -0.0002
      6  C6        20.7030   29.6120   15.0280 C.ar  300  I59300     -0.0000
      7  C7        20.4670   27.7650   18.8530 C.ar  300  I59300     -0.0000
      8  C8        19.2250   27.3110   19.3150 C.ar  300  I59300     -0.0002
      9  C9        18.0460   27.4800   18.5260 C.ar  300  I59300     -0.0014
     10  C10       18.0530   28.1140   17.2640 C.ar  300  I59300      0.0147
     11  C11       16.8120   28.2920   16.4450 C.3   300  I59300      0.2251
     12  O12       16.4530   27.1220   15.6900 O.3   300  I59300     -0.2103
     13  P13       15.4140   29.0300   17.3630 P.3   300  I59300      0.1516
     14  O15       15.8490   30.5200   17.5180 O.3   300  I59300     -0.3553
     15  O16       15.0960   28.3870   18.6210 O.3   300  I59300     -0.3553
     16  O17       14.2020   29.0850   16.4470 O.2   300  I59300     -0.4573
@<TRIPOS>BOND
     1     6     5   ar
     2     6     1   ar
     3     5     4   ar
     4    12    11    1
     5     1     2   ar
     6    11    10    1
     7    11    13    1
     8    16    13    2
     9     4    10   ar
    10     4     3   ar
    11     2     3   ar
    12    10     9   ar
    13    13    14    1
    14    13    15    1
    15     3     7   ar
    16     9     8   ar
    17     7     8   ar
