@<TRIPOS>MOLECULE
1o4h_772_A_1.pdb
 17 18 0 0 0
SMALL
GASTEIGER

@<TRIPOS>ATOM
      1  C1        16.7110   31.9610   19.4770 C.3   300  772300      0.0554
      2  C2        17.9790   31.8470   20.0810 C.2   300  772300     -0.0187
      3  C3        18.8930   30.8940   19.6100 C.2   300  772300      0.0288
      4  C4        18.5020   30.0630   18.4520 C.2   300  772300      0.1658
      5  C5        17.2020   30.1800   17.8840 C.2   300  772300      0.1744
      6  C6        16.2980   31.1350   18.4000 C.2   300  772300      0.0186
      7  C7        20.1730   30.7640   20.1870 C.2   300  772300      0.0057
      8  C8        21.0670   29.8650   19.5740 C.2   300  772300      0.0428
      9  C9        20.6870   29.1040   18.4300 C.2   300  772300      0.1990
     10  N10       19.4150   29.1740   17.8860 N.2   300  772300     -0.3885
     11  O11       16.8330   29.2380   16.9450 O.2   300  772300     -0.3975
     12  P12       15.7830   28.1580   17.3590 P.3   300  772300      0.5887
     13  O13       16.3150   26.9080   16.7210 O.2   300  772300     -0.2114
     14  O14       14.4610   28.6100   16.7980 O.3   300  772300     -0.1039
     15  C15       21.6790   28.2050   17.9090 C.1   300  772300      0.1329
     16  N16       22.4300   27.5470   17.5450 N.1   300  772300     -0.1882
     17  O17       15.6590   27.9960   18.8410 O.3   300  772300     -0.1039
@<TRIPOS>BOND
     1    13    12    2
     2    14    12    1
     3    11    12    1
     4    11     5    1
     5    12    17    1
     6    16    15    3
     7     5     6    2
     8     5     4    1
     9    10     9    2
    10    10     4    2
    11    15     9    1
    12     6     1    1
    13     9     8    1
    14     4     3    1
    15     1     2    1
    16     8     7    2
    17     3     2    2
    18     3     7    1
