@<TRIPOS>MOLECULE
1o4i_219_A_1.pdb
 20 21 0 0 0
SMALL
GASTEIGER

@<TRIPOS>ATOM
      1  C1        18.2360   25.7640   20.7610 C.ar  300  219300      0.0031
      2  C2        18.3140   24.4640   20.1740 C.ar  300  219300     -0.0000
      3  C3        17.4920   24.1750   19.0240 C.ar  300  219300      0.0013
      4  C4        16.5600   25.1250   18.4410 C.ar  300  219300      0.0449
      5  C5        16.5010   26.4430   19.0640 C.ar  300  219300      0.1430
      6  C6        17.3650   26.7480   20.1920 C.ar  300  219300      0.0370
      7  C7        15.6100   24.6920   17.3250 C.3   300  219300      0.2116
      8  O8        15.4030   27.3610   18.7340 O.3   300  219300     -0.4402
      9  P9        15.5880   28.4930   17.5980 P.3   300  219300      0.2697
     10  O10       16.9780   28.0730   17.1570 O.3   300  219300     -0.3052
     11  O11       15.7930   29.7990   18.3810 O.3   300  219300     -0.4274
     12  C12       17.0910   27.6520   15.8360 C.3   300  219300      0.1500
     13  O17       15.3800   25.1590   16.0890 O.3   300  219300     -0.2151
     14  O19       14.4700   28.6400   16.5970 O.2   300  219300     -0.5082
     15  C21       17.6610   28.8630   15.1820 C.3   300  219300      0.0301
     16  C24       19.1270   28.4760   14.8870 C.3   300  219300      0.0025
     17  C25       20.0270   28.3590   16.1190 C.3   300  219300      0.0001
     18  C26       20.1670   29.7110   16.7980 C.3   300  219300      0.0000
     19  C27       18.7760   30.2270   17.1830 C.3   300  219300      0.0001
     20  C28       17.6840   30.1620   16.1040 C.3   300  219300      0.0025
@<TRIPOS>BOND
     1    16    15    1
     2    16    17    1
     3    15    12    1
     4    15    20    1
     5    12    10    1
     6    13     7    1
     7    20    19    1
     8    17    18    1
     9    14     9    2
    10    18    19    1
    11    10     9    1
    12     7     4    1
    13     9    11    1
    14     9     8    1
    15     4     3   ar
    16     4     5   ar
    17     8     5    1
    18     3     2   ar
    19     5     6   ar
    20     2     1   ar
    21     6     1   ar
