@<TRIPOS>MOLECULE
1o4j_IS2_A_1.pdb
 15 15 0 0 0
SMALL
GASTEIGER

@<TRIPOS>ATOM
      1  C1        21.7570   32.4490   16.3470 C.ar  300  IS2300     -0.0221
      2  C2        20.6130   32.8340   17.1460 C.ar  300  IS2300     -0.0029
      3  C3        19.4720   31.9850   17.2430 C.ar  300  IS2300      0.0163
      4  C4        19.5130   30.6620   16.6520 C.ar  300  IS2300      0.0738
      5  C5        20.7170   30.2180   16.0540 C.ar  300  IS2300      0.0163
      6  C6        21.8440   31.0750   15.9460 C.ar  300  IS2300     -0.0029
      7  N11       18.3580   29.8120   16.6040 N.am  300  IS2300     -0.1733
      8  C12       17.1160   30.2680   17.0430 C.2   300  IS2300      0.2953
      9  O13       17.0760   31.1770   17.8170 O.2   300  IS2300     -0.2652
     10  P14       15.9250   28.9850   17.2550 P.3   300  IS2300      0.1965
     11  O15       14.3950   29.5520   16.7260 O.3   300  IS2300     -0.3511
     12  O16       15.9300   28.5900   18.6860 O.3   300  IS2300     -0.3511
     13  O17       16.3060   27.9070   16.4040 O.2   300  IS2300     -0.4509
     14  C18       23.0150   33.2810   16.4030 C.3   300  IS2300      0.0264
     15  C19       22.6800   34.8080   16.2980 C.3   300  IS2300      0.0050
@<TRIPOS>BOND
     1     6     5   ar
     2     6     1   ar
     3     5     4   ar
     4    15    14    1
     5     1    14    1
     6     1     2   ar
     7    13    10    2
     8     7     4    1
     9     7     8   am
    10     4     3   ar
    11    11    10    1
    12     8    10    1
    13     8     9    2
    14     2     3   ar
    15    10    12    1
