@<TRIPOS>MOLECULE
1o4k_PSN_A_1.pdb
 20 21 0 0 0
SMALL
GASTEIGER

@<TRIPOS>ATOM
      1  C1        18.2550   26.2210   20.8860 C.ar  300  PSN300      0.0031
      2  C2        18.2980   24.8480   20.5000 C.ar  300  PSN300     -0.0000
      3  C3        17.4090   24.3740   19.4840 C.ar  300  PSN300      0.0013
      4  C4        16.4800   25.2360   18.8090 C.ar  300  PSN300      0.0449
      5  C5        16.4360   26.5960   19.2320 C.ar  300  PSN300      0.1430
      6  C6        17.2920   27.1030   20.2940 C.ar  300  PSN300      0.0370
      7  C7        15.6070   24.6710   17.7140 C.3   300  PSN300      0.2116
      8  O8        15.4480   27.4150   18.5870 O.3   300  PSN300     -0.4402
      9  P9        15.8280   28.2790   17.2910 P.3   300  PSN300      0.2700
     10  O10       16.5510   29.5990   17.5800 O.3   300  PSN300     -0.3003
     11  O11       14.4590   28.7830   16.7490 O.3   300  PSN300     -0.4274
     12  C12       17.5610   29.8470   18.6300 C.3   300  PSN300      0.1766
     13  C13       18.9590   29.1280   18.4410 C.ar  300  PSN300      0.0077
     14  C16       20.0200   29.4700   19.3790 C.ar  300  PSN300     -0.0018
     15  C17       21.3110   28.8980   19.1550 C.ar  300  PSN300     -0.0002
     16  C18       21.5380   27.9940   18.0290 C.ar  300  PSN300     -0.0000
     17  C19       20.4460   27.5500   17.1990 C.ar  300  PSN300     -0.0002
     18  C20       19.1590   28.1350   17.3870 C.ar  300  PSN300     -0.0018
     19  O32       16.5240   27.4650   16.1870 O.2   300  PSN300     -0.5082
     20  O25       15.7700   24.8240   16.3820 O.3   300  PSN300     -0.2151
@<TRIPOS>BOND
     1    19     9    2
     2    20     7    1
     3    11     9    1
     4    17    18   ar
     5    17    16   ar
     6     9    10    1
     7     9     8    1
     8    18    13   ar
     9    10    12    1
    10     7     4    1
    11    16    15   ar
    12    13    12    1
    13    13    14   ar
    14     8     5    1
    15     4     5   ar
    16     4     3   ar
    17    15    14   ar
    18     5     6   ar
    19     3     2   ar
    20     6     1   ar
    21     2     1   ar
