@<TRIPOS>MOLECULE
1o4l_CIT_A_1.pdb
 13 12 0 0 0
SMALL
GASTEIGER

@<TRIPOS>ATOM
      1  C1        15.2200   28.7550   17.7270 C.2   300  CIT300      0.3680
      2  O1        14.5170   28.5700   16.6050 O.co2 300  CIT300     -0.2455
      3  O2        14.8940   28.3450   18.8290 O.co2 300  CIT300     -0.2455
      4  C2        16.4970   29.5970   17.5930 C.3   300  CIT300      0.1560
      5  C3        17.5950   28.6730   17.0620 C.3   300  CIT300      0.2402
      6  O7        17.6300   27.5480   17.9420 O.3   300  CIT300     -0.2129
      7  C4        18.8300   29.6540   17.1360 C.3   300  CIT300      0.1560
      8  C5        20.1450   29.0290   16.5860 C.2   300  CIT300      0.3680
      9  O3        21.2650   29.4800   16.9030 O.co2 300  CIT300     -0.2455
     10  O4        20.0690   27.9750   15.7340 O.co2 300  CIT300     -0.2455
     11  C6        17.3640   28.2000   15.6890 C.2   300  CIT300      0.3927
     12  O5        17.3380   29.1900   14.7920 O.co2 300  CIT300     -0.2429
     13  O6        16.9790   27.0780   15.3980 O.co2 300  CIT300     -0.2429
@<TRIPOS>BOND
     1    12    11   ar
     2    13    11   ar
     3    11     5    1
     4    10     8   ar
     5     8     9   ar
     6     8     7    1
     7     2     1   ar
     8     5     7    1
     9     5     4    1
    10     5     6    1
    11     4     1    1
    12     1     3   ar
