@<TRIPOS>MOLECULE
1o4o_HPS_A_1.pdb
 11 11 0 0 0
SMALL
GASTEIGER

@<TRIPOS>ATOM
      1  C1        18.2230   15.5580   31.4990 C.ar  300  HPS300      0.0031
      2  C2        18.6700   15.5900   30.1050 C.ar  300  HPS300      0.0002
      3  C3        18.5480   16.6960   29.3360 C.ar  300  HPS300      0.0031
      4  C4        18.0280   17.8130   29.9800 C.ar  300  HPS300      0.0374
      5  C5        17.6850   17.8110   31.3730 C.ar  300  HPS300      0.1490
      6  C6        17.6760   16.6320   32.1560 C.ar  300  HPS300      0.0374
      7  O12       17.3970   19.0830   31.9390 O.3   300  HPS300     -0.3998
      8  P13       18.5160   20.2470   32.5240 P.3   300  HPS300      0.5887
      9  O14       17.8170   21.4550   33.1870 O.3   300  HPS300     -0.1039
     10  O15       19.3900   20.6690   31.2590 O.2   300  HPS300     -0.2114
     11  O16       19.4160   19.4700   33.5310 O.3   300  HPS300     -0.1039
@<TRIPOS>BOND
     1     3     4   ar
     2     3     2   ar
     3     4     5   ar
     4     2     1   ar
     5    10     8    2
     6     5     7    1
     7     5     6   ar
     8     1     6   ar
     9     7     8    1
    10     8     9    1
    11     8    11    1
