@<TRIPOS>MOLECULE
1o4p_791_A_1.pdb
 13 13 0 0 0
SMALL
GASTEIGER

@<TRIPOS>ATOM
      1  C1        18.3950   24.6180   19.6170 C.ar  300  791300     -0.0000
      2  C2        19.1640   25.8080   19.6450 C.ar  300  791300     -0.0003
      3  C3        18.7110   27.0130   19.0240 C.ar  300  791300     -0.0032
      4  C4        17.4530   26.9890   18.4000 C.ar  300  791300     -0.0010
      5  C5        16.7060   25.7860   18.4070 C.ar  300  791300     -0.0032
      6  C6        17.1370   24.5930   18.9880 C.ar  300  791300     -0.0003
      7  C12       16.8570   28.1540   17.6640 C.3   300  791300      0.2282
      8  C13       15.4520   28.5640   18.0810 C.2   300  791300      0.3793
      9  C14       17.4000   28.6220   16.3020 C.2   300  791300      0.3793
     10  O16       14.7160   28.8540   17.0720 O.co2 300  791300     -0.2447
     11  O17       15.2020   28.7360   19.2040 O.co2 300  791300     -0.2447
     12  O18       17.5040   29.9270   16.0100 O.co2 300  791300     -0.2447
     13  O19       17.5550   27.7640   15.5980 O.co2 300  791300     -0.2447
@<TRIPOS>BOND
     1    13     9   ar
     2    12     9   ar
     3     9     7    1
     4    10     8   ar
     5     7     8    1
     6     7     4    1
     7     8    11   ar
     8     4     5   ar
     9     4     3   ar
    10     5     6   ar
    11     6     1   ar
    12     3     2   ar
    13     1     2   ar
