@<TRIPOS>MOLECULE
1o4q_256_A_1.pdb
 14 14 0 0 0
SMALL
GASTEIGER

@<TRIPOS>ATOM
      1  C1        19.2570   25.6420   20.2430 C.ar  300  256300     -0.0000
      2  C2        18.2100   24.7790   19.9800 C.ar  300  256300     -0.0003
      3  C3        17.2820   25.1710   19.0340 C.ar  300  256300     -0.0021
      4  C4        17.4230   26.4420   18.4450 C.ar  300  256300      0.0108
      5  C5        18.5210   27.2830   18.6850 C.ar  300  256300     -0.0021
      6  C6        19.4480   26.8930   19.6280 C.ar  300  256300     -0.0003
      7  C7        16.3750   26.9920   17.5700 C.3   300  256300      0.2601
      8  C8        16.8680   27.1890   16.0860 C.2   300  256300      0.3909
      9  O9        16.4340   26.0580   15.3950 O.co2 300  256300     -0.2434
     10  S10       15.4940   28.4450   18.0420 S.3   300  256300      0.0355
     11  O12       14.4060   28.5190   16.8500 O.3   300  256300     -0.0687
     12  O13       17.4130   28.1450   15.5810 O.co2 300  256300     -0.2434
     13  O14       16.3730   29.6100   17.9990 O.3   300  256300     -0.0687
     14  O15       14.9320   28.2490   19.3570 O.3   300  256300     -0.0687
@<TRIPOS>BOND
     1     9     8   ar
     2    12     8   ar
     3     8     7    1
     4    11    10    1
     5     7    10    1
     6     7     4    1
     7    13    10    1
     8    10    14    1
     9     4     5   ar
    10     4     3   ar
    11     5     6   ar
    12     3     2   ar
    13     6     1   ar
    14     2     1   ar
