@<TRIPOS>MOLECULE
1o4r_787_A_1.pdb
 15 15 0 0 0
SMALL
GASTEIGER

@<TRIPOS>ATOM
      1  C1        17.7510   24.3380   19.0420 C.ar  300  787300     -0.0000
      2  C2        16.8780   24.5730   17.9680 C.ar  300  787300     -0.0003
      3  C3        16.7790   25.8440   17.3440 C.ar  300  787300     -0.0034
      4  C4        17.5680   26.9100   17.9400 C.ar  300  787300     -0.0088
      5  C5        18.5390   26.6550   18.9480 C.ar  300  787300     -0.0034
      6  C6        18.5760   25.3540   19.5640 C.ar  300  787300     -0.0003
      7  C7        17.3880   28.1970   17.4250 C.3   300  787300      0.1260
      8  P8        15.7620   28.8800   17.5740 P.3   300  787300      0.1277
      9  P9        18.1680   28.5460   15.7620 P.3   300  787300      0.1277
     10  O11       17.5620   29.8300   15.2340 O.3   300  787300     -0.3566
     11  O12       17.7690   27.4930   14.8120 O.2   300  787300     -0.4593
     12  O13       19.6030   28.5850   15.9500 O.3   300  787300     -0.3566
     13  O14       16.0020   30.5080   17.3520 O.3   300  787300     -0.3566
     14  O15       15.2820   28.6420   18.9650 O.3   300  787300     -0.3566
     15  O16       14.8300   28.4360   16.5890 O.2   300  787300     -0.4593
@<TRIPOS>BOND
     1    11     9    2
     2    10     9    1
     3     9    12    1
     4     9     7    1
     5    15     8    2
     6     3     4   ar
     7     3     2   ar
     8    13     8    1
     9     7     8    1
    10     7     4    1
    11     8    14    1
    12     4     5   ar
    13     2     1   ar
    14     5     6   ar
    15     1     6   ar
