@<TRIPOS>MOLECULE
1o4s_PLP_A_1.pdb
 15 15 0 0 0
SMALL
GASTEIGER

@<TRIPOS>ATOM
      1  N1         2.3710   12.1440   19.0090 N.2   1234  PLP1234    -0.2458
      2  C2         3.6920   12.5620   19.0930 C.2   1234  PLP1234     0.0942
      3  C2A        4.1370   13.5330   18.0020 C.3   1234  PLP1234     0.0552
      4  C3         4.5320   12.0940   20.1460 C.2   1234  PLP1234     0.1899
      5  O3         5.7040   12.4570   20.1970 O.2   1234  PLP1234    -0.2898
      6  C4         4.0230   11.2140   21.1560 C.3   1234  PLP1234     0.0852
      7  C4A        4.8450   10.6490   22.3310 C.3   1234  PLP1234     0.0127
      8  C5         2.6850   10.8280   21.0030 C.2   1234  PLP1234     0.0118
      9  C6         1.8680   11.3110   19.9520 C.2   1234  PLP1234     0.0929
     10  C5A        1.9920    9.9440   22.0000 C.3   1234  PLP1234     0.1779
     11  O4P        2.4610    8.6620   22.3240 O.3   1234  PLP1234    -0.2656
     12  P          1.6190    7.7380   23.3000 P.3   1234  PLP1234     0.5329
     13  O1P        2.7260    7.3120   24.1830 O.3   1234  PLP1234    -0.1145
     14  O2P        0.5010    8.4870   23.8500 O.3   1234  PLP1234    -0.1145
     15  O3P        1.1570    6.6920   22.3550 O.2   1234  PLP1234    -0.2224
@<TRIPOS>BOND
     1     3     2    1
     2     1     2    2
     3     1     9    1
     4     2     4    1
     5     9     8    2
     6     4     5    2
     7     4     6    1
     8     8     6    1
     9     8    10    1
    10     6     7    1
    11    10    11    1
    12    11    12    1
    13    15    12    2
    14    12    14    1
    15    12    13    1
