@<TRIPOS>MOLECULE
1o51_ADP_A_1.pdb
 27 29 0 0 0
SMALL
GASTEIGER

@<TRIPOS>ATOM
      1  PB        32.4950    9.1710    6.9090 P.3   200  ADP200      0.5373
      2  O1B       31.6900    7.9820    7.3160 O.3   200  ADP200     -0.1143
      3  O2B       31.4970   10.3210    7.3030 O.3   200  ADP200     -0.1143
      4  O3B       32.9360    9.2950    5.4410 O.2   200  ADP200     -0.2221
      5  PA        35.2560    9.4050    8.1520 P.3   200  ADP200      0.2231
      6  O1A       35.5660   10.7730    8.5070 O.2   200  ADP200     -0.5169
      7  O2A       35.5780    8.5770    9.3830 O.3   200  ADP200     -0.4370
      8  O3A       33.7150    9.5330    7.8750 O.3   200  ADP200     -0.2261
      9  O5'       36.3250    9.0470    7.0160 O.3   200  ADP200     -0.3111
     10  C5'       36.6200    9.7900    5.8840 C.3   200  ADP200      0.1813
     11  C4'       36.8500    8.7690    4.8070 C.3   200  ADP200      0.1821
     12  O4'       38.0100    8.0530    5.1870 O.3   200  ADP200     -0.3135
     13  C3'       35.8060    7.6770    4.6080 C.3   200  ADP200      0.2184
     14  O3'       34.6420    8.0410    3.9130 O.3   200  ADP200     -0.2174
     15  C2'       36.6620    6.6720    3.8870 C.3   200  ADP200      0.2570
     16  O2'       36.8190    6.9480    2.5310 O.3   200  ADP200     -0.2130
     17  C1'       38.0220    6.7760    4.5640 C.3   200  ADP200      0.3186
     18  N9        38.1670    5.7230    5.5640 N.pl3 200  ADP200     -0.1439
     19  C8        37.9000    5.8160    6.9290 C.3   200  ADP200      0.3377
     20  N7        38.1520    4.6470    7.5730 N.2   200  ADP200     -0.2095
     21  C5        38.5560    3.8120    6.5910 C.2   200  ADP200      0.2526
     22  C6        38.9410    2.4910    6.6520 C.2   200  ADP200      0.4393
     23  N6        38.9330    1.8170    7.8220 N.pl3 200  ADP200      0.2180
     24  N1        39.3150    1.9280    5.4430 N.2   200  ADP200      0.0021
     25  C2        39.3210    2.5870    4.2430 C.3   200  ADP200      0.5254
     26  N3        38.9370    3.9060    4.1610 N.2   200  ADP200     -0.0055
     27  C4        38.5650    4.4880    5.3290 C.2   200  ADP200      0.3518
@<TRIPOS>BOND
     1    16    15    1
     2    15    17    1
     3    15    13    1
     4    14    13    1
     5    26    25    1
     6    26    27    2
     7    25    24    1
     8    17    12    1
     9    17    18    1
    10    13    11    1
    11    11    12    1
    12    11    10    1
    13    27    18    1
    14    27    21    1
    15     4     1    2
    16    24    22    2
    17    18    19    1
    18    10     9    1
    19    21    22    1
    20    21    20    2
    21    22    23    1
    22     1     3    1
    23     1     2    1
    24     1     8    1
    25    19    20    1
    26     9     5    1
    27     8     5    1
    28     5     6    2
    29     5     7    1
