@<TRIPOS>MOLECULE
1o5a_696_B_1.pdb
 42 45 0 0 0
SMALL
GASTEIGER

@<TRIPOS>ATOM
      1  C1         8.8380    1.4080   24.7320 C.ar  251  696251      0.0615
      2  C2         9.5770    1.2570   23.5180 C.ar  251  696251     -0.0451
      3  C3        10.1720    2.3630   22.8700 C.ar  251  696251     -0.0370
      4  C4        10.0190    3.6070   23.4440 C.ar  251  696251      0.0470
      5  C5         9.3150    3.7560   24.6070 C.ar  251  696251      0.0011
      6  C6         8.7160    2.6960   25.2720 C.ar  251  696251     -0.0378
      7  C7         8.2460    0.3110   25.4050 C.2   251  696251      0.2662
      8  N1         7.8690    0.4230   26.6500 N.pl3 251  696251     -0.2497
      9  N2         8.0680   -0.8270   24.7980 N.2   251  696251     -0.2884
     10  N3        10.4730    4.7830   23.0820 N.ar  251  696251     -0.3540
     11  CN4        9.3530    5.0680   24.9460 C.ar  251  696251     -0.0285
     12  C8        10.0970    5.6970   23.9540 C.ar  251  696251      0.0512
     13  C1'       10.2890    7.0770   23.8120 C.ar  251  696251      0.0456
     14  C2'        9.9050    7.9410   24.8400 C.ar  251  696251     -0.0489
     15  C3'       10.0830    9.3080   24.7200 C.ar  251  696251     -0.0603
     16  C4'       10.6510    9.8240   23.5680 C.ar  251  696251     -0.0503
     17  C5'       11.0550    8.9920   22.5170 C.ar  251  696251      0.0295
     18  C6'       10.8670    7.6080   22.6410 C.ar  251  696251      0.1957
     19  O6'       11.2590    6.7530   21.6380 O.3   251  696251     -0.2866
     20  C1B       11.6950    9.6290   21.4470 C.ar  251  696251     -0.0142
     21  C2B       12.9140    9.1540   20.9830 C.ar  251  696251     -0.0539
     22  C3B       13.6140    9.8380   19.9820 C.ar  251  696251     -0.0612
     23  C4B       13.0840   10.9980   19.4470 C.ar  251  696251     -0.0617
     24  C5B       11.8650   11.4590   19.9100 C.ar  251  696251     -0.0612
     25  C6B       11.1790   10.7870   20.8920 C.ar  251  696251     -0.0539
     26  H2         9.6920    0.2800   23.0750 H     251  696251      0.0627
     27  H3        10.7290    2.2550   21.9550 H     251  696251      0.0638
     28  H6         8.1660    2.8570   26.1760 H     251  696251      0.0632
     29 HH11        7.9560    1.2920   27.1620 H     251  696251      0.2883
     30 HH12        7.4340   -0.3170   27.1560 H     251  696251      0.2883
     31 HH21        8.3170   -0.9430   23.8280 H     251  696251      0.3009
     32 HH22        7.6210   -1.5800   25.2830 H     251  696251      0.3009
     33  HN3       11.0150    5.0130   22.2890 H     251  696251      0.1659
     34  HN4        8.8940    5.5160   25.8140 H     251  696251      0.0645
     35  H2'        9.4670    7.5590   25.7480 H     251  696251      0.0625
     36  H3'        9.7810    9.9670   25.5200 H     251  696251      0.0618
     37  H4'       10.7800   10.8940   23.4900 H     251  696251      0.0625
     38  H2B       13.3300    8.2470   21.3940 H     251  696251      0.0624
     39  H3B       14.5660    9.4700   19.6250 H     251  696251      0.0618
     40  H4B       13.6190   11.5350   18.6780 H     251  696251      0.0618
     41  H5B       11.4440   12.3600   19.4940 H     251  696251      0.0618
     42  H6B       10.2280   11.1700   21.2310 H     251  696251      0.0624
@<TRIPOS>BOND
     1    40    23    1
     2    23    24   ar
     3    23    22   ar
     4    41    24    1
     5    39    22    1
     6    24    25   ar
     7    22    21   ar
     8    25    42    1
     9    25    20   ar
    10    21    38    1
    11    21    20   ar
    12    20    17    1
    13    19    18    1
    14    27     3    1
    15    33    10    1
    16    17    18   ar
    17    17    16   ar
    18    18    13   ar
    19     3     4   ar
    20     3     2   ar
    21    26     2    1
    22    10     4   ar
    23    10    12   ar
    24     4     5   ar
    25    37    16    1
    26     2     1   ar
    27    16    15   ar
    28    13    12    1
    29    13    14   ar
    30    31     9    1
    31    12    11   ar
    32     5    11   ar
    33     5     6   ar
    34    15    14   ar
    35    15    36    1
    36     1     6   ar
    37     1     7    1
    38     9    32    1
    39     9     7    2
    40    14    35    1
    41    11    34    1
    42     6    28    1
    43     7     8    1
    44     8    30    1
    45     8    29    1
