@<TRIPOS>MOLECULE
1o5b_ESI_B_1.pdb
 21 22 0 0 0
SMALL
GASTEIGER

@<TRIPOS>ATOM
      1  C0         8.1140   -0.8340   25.7320 C.2   251  ESI251      0.2729
      2  C1         8.4340    0.4560   25.3630 C.ar  251  ESI251      0.0991
      3  N1         7.5200   -1.0380   26.8710 N.pl3 251  ESI251     -0.2493
      4  N2         8.4430   -1.7620   24.8810 N.2   251  ESI251     -0.2880
      5  S2         9.1450    0.8600   23.8020 S.2   251  ESI251     -0.0810
      6  C3         9.2620    2.5530   24.1340 C.ar  251  ESI251      0.0211
      7  C4         8.7610    2.7660   25.4100 C.ar  251  ESI251      0.0031
      8  C5         8.3190    1.6440   26.0560 C.ar  251  ESI251     -0.0311
      9  C6         9.7350    3.5820   23.3530 C.ar  251  ESI251     -0.0473
     10  C7         9.7120    4.8670   23.8710 C.ar  251  ESI251     -0.0597
     11  C8         9.2230    5.0950   25.1450 C.ar  251  ESI251     -0.0480
     12  C9         8.7480    4.0610   25.9310 C.ar  251  ESI251      0.0216
     13  I9         8.1220    4.5890   27.7890 I     251  ESI251     -0.0432
     14 HH11        7.3500   -0.2270   27.4480 H     251  ESI251      0.2883
     15 HH12        7.2010   -1.9110   27.2210 H     251  ESI251      0.2883
     16 HH21        8.8610   -1.4480   24.0100 H     251  ESI251      0.3009
     17 HH22        8.2790   -2.7340   25.0100 H     251  ESI251      0.3009
     18  H5         7.9120    1.6890   27.0570 H     251  ESI251      0.0638
     19  H6        10.1260    3.3870   22.3670 H     251  ESI251      0.0629
     20  H7        10.0760    5.6940   23.2830 H     251  ESI251      0.0618
     21  H8         9.1950    6.0900   25.5470 H     251  ESI251      0.0628
@<TRIPOS>BOND
     1    19     9    1
     2    20    10    1
     3     9    10   ar
     4     9     6   ar
     5     5     6   ar
     6     5     2   ar
     7    10    11   ar
     8    16     4    1
     9     6     7   ar
    10     4    17    1
    11     4     1    2
    12    11    21    1
    13    11    12   ar
    14     2     1    1
    15     2     8   ar
    16     7    12   ar
    17     7     8   ar
    18     1     3    1
    19    12    13    1
    20     8    18    1
    21     3    15    1
    22     3    14    1
