@<TRIPOS>MOLECULE
1o5e_132_H_1.pdb
 42 45 0 0 0
SMALL
GASTEIGER

@<TRIPOS>ATOM
      1  C1        16.2360   -6.7590   25.1990 C.ar  256  132256      0.0797
      2  C2        14.9550   -6.0960   24.9820 C.ar  256  132256      0.0576
      3  C3        14.5530   -5.0590   25.8430 C.ar  256  132256     -0.0186
      4  C4        15.4290   -4.7470   26.8720 C.ar  256  132256      0.0483
      5  C5        16.6010   -5.3500   27.0870 C.ar  256  132256      0.0012
      6  C6        17.0170   -6.3370   26.2690 C.ar  256  132256     -0.0364
      7  C7        16.7520   -7.7960   24.4310 C.2   256  132256      0.2676
      8  N1        17.9970   -8.1410   24.4950 N.pl3 256  132256     -0.2497
      9  N2        15.9630   -8.4220   23.6370 N.2   256  132256     -0.2884
     10  N3        15.3130   -3.8600   27.8410 N.ar  256  132256     -0.3540
     11  C9        17.1700   -4.8250   28.1650 C.ar  256  132256     -0.0285
     12  C8        16.3550   -3.8520   28.6810 C.ar  256  132256      0.0512
     13  C1'       16.4660   -3.0320   29.8300 C.ar  256  132256      0.0456
     14  C2'       17.5220   -3.2740   30.7300 C.ar  256  132256     -0.0489
     15  C3'       17.6860   -2.5520   31.8820 C.ar  256  132256     -0.0603
     16  C4'       16.7850   -1.5420   32.1780 C.ar  256  132256     -0.0503
     17  C5'       15.7020   -1.2250   31.3350 C.ar  256  132256      0.0295
     18  C6'       15.5690   -2.0000   30.1640 C.ar  256  132256      0.1957
     19  O6'       14.5140   -1.7840   29.3030 O.3   256  132256     -0.2866
     20  C1B       14.8470   -0.1540   31.6900 C.ar  256  132256     -0.0142
     21  C2B       14.2990   -0.0390   32.9760 C.ar  256  132256     -0.0539
     22  C3B       13.4760    1.0430   33.3570 C.ar  256  132256     -0.0612
     23  C4B       13.1950    2.0280   32.4510 C.ar  256  132256     -0.0617
     24  C5B       13.7230    1.9370   31.1700 C.ar  256  132256     -0.0612
     25  C6B       14.5310    0.8720   30.7970 C.ar  256  132256     -0.0539
     26 CL2        13.7470   -6.5600   23.7390 Cl    256  132256     -0.0826
     27  HC3       13.6210   -4.5320   25.7090 H     256  132256      0.0653
     28  HC6       17.9720   -6.7960   26.4700 H     256  132256      0.0633
     29 HH11       18.6300   -7.6870   25.1280 H     256  132256      0.2883
     30 HH12       18.3260   -8.9610   24.0420 H     256  132256      0.2883
     31 HH21       14.9980   -8.1290   23.6170 H     256  132256      0.3009
     32 HH22       16.2640   -9.2330   23.1390 H     256  132256      0.3009
     33  HN3       14.5490   -3.2600   27.9220 H     256  132256      0.1659
     34  HC9       18.1260   -5.1160   28.5700 H     256  132256      0.0645
     35 HC'2       18.2380   -4.0530   30.5180 H     256  132256      0.0625
     36 HC'3       18.5070   -2.7760   32.5490 H     256  132256      0.0618
     37 HC'4       16.9290   -0.9800   33.0900 H     256  132256      0.0625
     38  H2'       14.5150   -0.8110   33.6990 H     256  132256      0.0624
     39  H3'       13.0680    1.1070   34.3560 H     256  132256      0.0618
     40  H4'       12.5690    2.8620   32.7340 H     256  132256      0.0618
     41  H5'       13.5100    2.7140   30.4540 H     256  132256      0.0618
     42  H6'       14.9180    0.8410   29.7880 H     256  132256      0.0624
@<TRIPOS>BOND
     1    32     9    1
     2    31     9    1
     3     9     7    2
     4    26     2    1
     5    30     8    1
     6     7     8    1
     7     7     1    1
     8     8    29    1
     9     2     1   ar
    10     2     3   ar
    11     1     6   ar
    12    27     3    1
    13     3     4   ar
    14     6    28    1
    15     6     5   ar
    16     4     5   ar
    17     4    10   ar
    18     5    11   ar
    19    10    33    1
    20    10    12   ar
    21    11    34    1
    22    11    12   ar
    23    12    13    1
    24    19    18    1
    25    42    25    1
    26    13    18   ar
    27    13    14   ar
    28    18    17   ar
    29    41    24    1
    30    35    14    1
    31    14    15   ar
    32    25    24   ar
    33    25    20   ar
    34    24    23   ar
    35    17    20    1
    36    17    16   ar
    37    20    21   ar
    38    15    16   ar
    39    15    36    1
    40    16    37    1
    41    23    40    1
    42    23    22   ar
    43    21    22   ar
    44    21    38    1
    45    22    39    1
