@<TRIPOS>MOLECULE
1o5i_NAD_B_1.pdb
 35 38 0 0 0
SMALL
GASTEIGER

@<TRIPOS>ATOM
      1  PA        64.9790   23.6380   52.9700 P.3   256  NAD256      0.2189
      2  O1A       66.0160   22.9250   52.2020 O.2   256  NAD256     -0.5170
      3  O2A       65.6830   24.7170   53.7070 O.3   256  NAD256     -0.4371
      4  O5B       64.2630   22.4670   53.8310 O.3   256  NAD256     -0.3112
      5  C5B       63.6690   21.3740   53.1760 C.3   256  NAD256      0.1813
      6  C4B       64.1360   19.9830   53.6260 C.3   256  NAD256      0.1821
      7  O4B       63.8990   19.0870   52.5660 O.3   256  NAD256     -0.3135
      8  C3B       65.5890   19.7540   53.9490 C.3   256  NAD256      0.2184
      9  O3B       65.5870   19.3420   55.2770 O.3   256  NAD256     -0.2174
     10  C2B       66.1070   18.6310   53.0570 C.3   256  NAD256      0.2570
     11  O2B       66.8940   17.6400   53.7000 O.3   256  NAD256     -0.2130
     12  C1B       64.8140   18.0260   52.5870 C.3   256  NAD256      0.3186
     13  N9A       64.8310   17.4610   51.2400 N.pl3 256  NAD256     -0.1439
     14  C8A       65.4690   17.9310   50.1130 C.3   256  NAD256      0.3377
     15  N7A       65.1860   17.0940   49.0750 N.2   256  NAD256     -0.2095
     16  C5A       64.3630   16.1210   49.5330 C.2   256  NAD256      0.2526
     17  C6A       63.7860   15.0240   48.9250 C.2   256  NAD256      0.4393
     18  N6A       64.1730   14.7000   47.7020 N.pl3 256  NAD256      0.2180
     19  N1A       62.9840   14.1750   49.6710 N.2   256  NAD256      0.0021
     20  C2A       62.7600   14.4040   51.0160 C.3   256  NAD256      0.5254
     21  N3A       63.3370   15.4990   51.6080 N.2   256  NAD256     -0.0055
     22  C4A       64.1290   16.3390   50.8880 C.2   256  NAD256      0.3518
     23  O3        63.8110   24.2750   52.0410 O.3   256  NAD256     -0.2703
     24  PN        62.2460   24.5630   52.4150 P.3   256  NAD256      0.2189
     25  O1N       62.1220   26.0020   52.7440 O.2   256  NAD256     -0.5170
     26  O2N       61.6590   23.5660   53.3590 O.3   256  NAD256     -0.4371
     27  O5D       61.6080   24.3390   50.9400 O.3   256  NAD256     -0.3112
     28  C5D       61.3720   25.4770   50.1420 C.3   256  NAD256      0.1812
     29  C4D       60.6540   25.1130   48.8490 C.3   256  NAD256      0.1780
     30  O4D       59.7230   26.1300   48.5110 O.3   256  NAD256     -0.3482
     31  C3D       61.6750   25.0670   47.7250 C.3   256  NAD256      0.2140
     32  O3D       61.4620   23.9440   46.8980 O.3   256  NAD256     -0.2176
     33  C2D       61.5170   26.3990   47.0010 C.3   256  NAD256      0.2140
     34  O2D       61.3930   26.2280   45.5940 O.3   256  NAD256     -0.2176
     35  C1D       60.3000   27.0870   47.6390 C.3   256  NAD256      0.1777
@<TRIPOS>BOND
     1    34    33    1
     2    32    31    1
     3    33    35    1
     4    33    31    1
     5    35    30    1
     6    18    17    1
     7    31    29    1
     8    30    29    1
     9    29    28    1
    10    17    16    1
    11    17    19    2
    12    15    16    2
    13    15    14    1
    14    16    22    1
    15    19    20    1
    16    14    13    1
    17    28    27    1
    18    22    13    1
    19    22    21    2
    20    27    24    1
    21    20    21    1
    22    13    12    1
    23    23    24    1
    24    23     1    1
    25     2     1    2
    26    24    25    2
    27    24    26    1
    28     7    12    1
    29     7     6    1
    30    12    10    1
    31     1     3    1
    32     1     4    1
    33    10    11    1
    34    10     8    1
    35     5     6    1
    36     5     4    1
    37     6     8    1
    38     8     9    1
