@<TRIPOS>MOLECULE
1o5m_336_B_1.pdb
 36 40 0 0 0
SMALL
GASTEIGER

@<TRIPOS>ATOM
      1  C1       187.0850  131.7040   33.5950 C.3   3001  3363001     0.0934
      2  C4       186.5480  129.3030   32.9650 C.3   3001  3363001     0.0130
      3  C6       185.5670  129.2750   34.1290 C.3   3001  3363001     0.0223
      4  C9       185.9990  130.1840   35.2580 C.3   3001  3363001     0.0934
      5  N12      186.2300  131.5440   34.7780 N.am  3001  3363001    -0.2795
      6  C13      186.7040  130.7330   32.4780 C.3   3001  3363001     0.0223
      7 CL16      182.9210  123.6340   33.6710 Cl    3001  3363001    -0.0822
      8  C17      189.3290  126.9440   30.2190 C.ar  3001  3363001     0.0052
      9  C19      183.8560  124.9740   33.1350 C.ar  3001  3363001     0.0578
     10  C20      185.2100  125.0900   33.4790 C.ar  3001  3363001     0.0069
     11  C22      187.3990  126.3340   33.4020 C.3   3001  3363001     0.0308
     12  C25      188.2570  125.9940   32.2370 C.3   3001  3363001     0.0322
     13  C28      183.9730  127.0570   31.9000 C.ar  3001  3363001     0.0315
     14  C29      189.4490  127.8370   29.1540 C.ar  3001  3363001     0.0534
     15  C30      188.4800  128.8380   29.0030 C.ar  3001  3363001     0.1051
     16  N32      187.4640  128.9310   29.8640 N.ar  3001  3363001    -0.2476
     17  C33      186.1110  128.3570   31.7660 C.3   3001  3363001     0.0624
     18  C35      183.2440  125.9510   32.3480 C.ar  3001  3363001     0.0178
     19 BR37      190.9020  127.6770   27.9550 Br    3001  3363001    -0.0474
     20 BR38      183.0970  128.3630   30.8380 Br    3001  3363001    -0.0493
     21  C39      187.3140  128.0810   30.9040 C.ar  3001  3363001     0.0588
     22  C40      185.3350  127.1790   32.2400 C.ar  3001  3363001    -0.0146
     23  C41      188.2680  127.0420   31.1220 C.ar  3001  3363001    -0.0075
     24  C42      185.9430  126.1930   33.0310 C.ar  3001  3363001    -0.0241
     25  C43      185.6190  136.4690   35.1620 C.3   3001  3363001     0.0221
     26  C46      185.5270  137.5850   36.2030 C.3   3001  3363001     0.0951
     27  C49      185.7850  135.0940   35.8090 C.3   3001  3363001     0.0125
     28  C51      186.8820  135.0780   36.8700 C.3   3001  3363001     0.0221
     29  N54      186.6240  137.4630   37.1640 N.am  3001  3363001    -0.2616
     30  C55      187.5070  138.4670   37.3900 C.2   3001  3363001     0.3429
     31  N56      188.4200  138.1080   38.3050 N.am  3001  3363001    -0.0692
     32  O57      187.5000  139.5720   36.8480 O.2   3001  3363001    -0.2490
     33  C58      186.7260  136.1870   37.8620 C.3   3001  3363001     0.0951
     34  C61      185.9960  133.9640   34.8060 C.3   3001  3363001     0.0854
     35  O64      184.9540  132.5040   36.3980 O.2   3001  3363001    -0.2749
     36  C65      185.6730  132.5960   35.4100 C.2   3001  3363001     0.2256
@<TRIPOS>BOND
     1    19    14    1
     2    15    14   ar
     3    15    16   ar
     4    14     8   ar
     5    16    21   ar
     6     8    23   ar
     7    20    13    1
     8    21    23   ar
     9    21    17    1
    10    23    12    1
    11    17    22    1
    12    17     2    1
    13    13    22   ar
    14    13    18   ar
    15    12    11    1
    16    22    24   ar
    17    18     9   ar
    18     6     2    1
    19     6     1    1
    20     2     3    1
    21    24    11    1
    22    24    10   ar
    23     9    10   ar
    24     9     7    1
    25     1     5    1
    26     3     4    1
    27     5     4    1
    28     5    36   am
    29    34    36    1
    30    34    27    1
    31    25    27    1
    32    25    26    1
    33    36    35    2
    34    27    28    1
    35    26    29    1
    36    32    30    2
    37    28    33    1
    38    29    30   am
    39    29    33    1
    40    30    31   am
