@<TRIPOS>MOLECULE
1o5m_FPP_B_1.pdb
 24 23 0 0 0
SMALL
GASTEIGER

@<TRIPOS>ATOM
      1  C1       194.4010  123.3890   31.6320 C.3   2001  FPP2001     0.1747
      2  O1       194.4290  124.7550   32.1010 O.3   2001  FPP2001    -0.3089
      3  C2       192.9780  122.8970   31.4810 C.2   2001  FPP2001    -0.0024
      4  C3       192.2010  122.8220   30.3590 C.2   2001  FPP2001    -0.0454
      5  C4       192.6770  123.2640   28.9790 C.3   2001  FPP2001     0.0261
      6  C5       190.7660  122.2750   30.4270 C.3   2001  FPP2001     0.0264
      7  C6       190.3430  121.6690   31.7900 C.3   2001  FPP2001     0.0297
      8  C7       189.0220  120.9280   31.7520 C.2   2001  FPP2001    -0.0342
      9  C8       187.9880  121.0640   32.6120 C.2   2001  FPP2001    -0.0478
     10  C10      188.0230  122.0200   33.7780 C.3   2001  FPP2001     0.0260
     11  C9       186.7140  120.2220   32.4220 C.3   2001  FPP2001     0.0263
     12  C11      185.4780  121.0390   31.9950 C.3   2001  FPP2001     0.0297
     13  C12      184.1900  120.2210   31.9580 C.2   2001  FPP2001    -0.0342
     14  C13      183.0680  120.4930   31.2330 C.2   2001  FPP2001    -0.0478
     15  C14      181.8580  119.5630   31.3080 C.3   2001  FPP2001     0.0260
     16  C15      182.9180  121.6840   30.3180 C.3   2001  FPP2001     0.0260
     17  PA       195.5690  125.3630   33.0560 P.3   2001  FPP2001     0.2233
     18  O1A      195.3550  126.9280   33.1370 O.3   2001  FPP2001    -0.4370
     19  O2A      197.0280  125.0860   32.4380 O.2   2001  FPP2001    -0.5169
     20  O3A      195.3420  124.7790   34.5320 O.3   2001  FPP2001    -0.2261
     21  PB       196.2480  123.6100   35.1370 P.3   2001  FPP2001     0.5373
     22  O1B      195.6330  123.2800   36.5720 O.3   2001  FPP2001    -0.1143
     23  O2B      196.1610  122.2870   34.2580 O.2   2001  FPP2001    -0.2221
     24  O3B      197.7590  124.0430   35.3140 O.3   2001  FPP2001    -0.1143
@<TRIPOS>BOND
     1     5     4    1
     2    16    14    1
     3     4     6    1
     4     4     3    2
     5     6     7    1
     6    14    15    1
     7    14    13    2
     8     3     1    1
     9     1     2    1
    10     8     7    1
    11     8     9    2
    12    13    12    1
    13    12    11    1
    14     2    17    1
    15    11     9    1
    16    19    17    2
    17     9    10    1
    18    17    18    1
    19    17    20    1
    20    23    21    2
    21    20    21    1
    22    21    24    1
    23    21    22    1
