@<TRIPOS>MOLECULE
1o5o_U5P_A_1.pdb
 21 22 0 0 0
SMALL
GASTEIGER

@<TRIPOS>ATOM
      1  N1        27.1590   11.7940   34.1110 N.am  600  U5P600     -0.1766
      2  C2        27.6980   11.5750   32.7800 C.1   600  U5P600      0.2845
      3  N3        28.9600   11.9510   32.5300 N.2   600  U5P600     -0.2452
      4  C4        29.7270   12.5010   33.4920 C.1   600  U5P600      0.2182
      5  C5        29.2410   12.7060   34.7660 C.2   600  U5P600      0.1242
      6  C6        27.9390   12.3490   35.0660 C.2   600  U5P600      0.0929
      7  O2        27.0490   11.0660   31.8280 O.2   600  U5P600     -0.1918
      8  O4        30.8770   12.8120   33.2090 O.2   600  U5P600     -0.2085
      9  C1'       25.7690   11.3760   34.3940 C.3   600  U5P600      0.2401
     10  C2'       25.6290    9.8350   34.4320 C.3   600  U5P600      0.2319
     11  O2'       25.1950    9.2310   33.1730 O.3   600  U5P600     -0.2157
     12  C3'       24.6360    9.6250   35.5580 C.3   600  U5P600      0.2158
     13  C4'       24.9230   10.7760   36.5050 C.3   600  U5P600      0.1801
     14  O3'       23.2850    9.8200   35.0710 O.3   600  U5P600     -0.2175
     15  O4'       25.2980   11.8720   35.6570 O.3   600  U5P600     -0.3320
     16  C5'       26.0390   10.4190   37.4650 C.3   600  U5P600      0.1859
     17  O5'       26.4690   11.5740   38.1840 O.3   600  U5P600     -0.2675
     18  P         26.4750   11.4710   39.7670 P.3   600  U5P600      0.5327
     19  O1P       27.3460   10.2410   40.0330 O.2   600  U5P600     -0.2224
     20  O2P       25.0520   11.3200   40.2650 O.3   600  U5P600     -0.1145
     21  O3P       27.0010   12.8160   40.1030 O.3   600  U5P600     -0.1145
@<TRIPOS>BOND
     1     7     2    2
     2     3     2    2
     3     3     4    2
     4     2     1   am
     5    11    10    1
     6     8     4    2
     7     4     5    1
     8     1     9    1
     9     1     6    1
    10     9    10    1
    11     9    15    1
    12    10    12    1
    13     5     6    2
    14    14    12    1
    15    12    13    1
    16    15    13    1
    17    13    16    1
    18    16    17    1
    19    17    18    1
    20    18    19    2
    21    18    21    1
    22    18    20    1
