@<TRIPOS>MOLECULE
1o5r_FR9_A_1.pdb
 33 36 0 0 0
SMALL
GASTEIGER

@<TRIPOS>ATOM
      1  C1        51.9840   54.5140   20.7520 C.3   1001  FR91001     0.1246
      2  N2        52.0530   55.5750   21.7700 N.3   1001  FR91001    -0.2455
      3  C3        51.7930   54.9070   22.8850 C.3   1001  FR91001     0.2010
      4  N4        51.6380   53.6160   22.7630 N.2   1001  FR91001    -0.2506
      5  C5        51.7660   53.3080   21.3420 C.2   1001  FR91001     0.1279
      6  C8        51.7380   51.9640   20.7950 C.2   1001  FR91001     0.2988
      7  O9        51.9080   51.9200   19.6970 O.2   1001  FR91001    -0.2653
      8  N10       51.4150   51.0140   21.5230 N.am  1001  FR91001    -0.0826
      9  C13       52.0850   57.0330   21.6130 C.3   1001  FR91001     0.0945
     10  C14       53.5120   57.6680   21.6270 C.3   1001  FR91001     0.1980
     11  O15       54.5430   57.4310   22.6980 O.3   1001  FR91001    -0.2189
     12  C18       51.3820   57.4530   20.3350 C.3   1001  FR91001     0.0432
     13  C19       49.8710   57.5460   20.5300 C.3   1001  FR91001     0.1075
     14  N22       49.2310   57.6440   19.2360 N.ar  1001  FR91001    -0.3260
     15  C27       48.7350   58.8100   18.7000 C.ar  1001  FR91001     0.0759
     16  C28       48.2680   58.5680   17.4420 C.ar  1001  FR91001     0.0201
     17  C29       48.4750   57.1790   17.2260 C.ar  1001  FR91001     0.0174
     18  C30       49.0830   56.6520   18.3890 C.ar  1001  FR91001     0.0612
     19  C31       48.1540   56.3370   16.1950 C.ar  1001  FR91001     0.0028
     20  C32       48.4460   54.9760   16.2970 C.ar  1001  FR91001     0.0167
     21  C33       49.0830   54.5020   17.4470 C.ar  1001  FR91001     0.0764
     22  C34       49.3700   55.3570   18.4790 C.ar  1001  FR91001     0.0338
     23  N1        49.3130   53.2450   17.7210 N.am  1001  FR91001    -0.1609
     24  C2        49.2560   52.2020   16.8530 C.2   1001  FR91001     0.3438
     25  O1        48.7460   52.3280   15.7660 O.2   1001  FR91001    -0.2488
     26  N3        49.5190   51.0810   17.4430 N.am  1001  FR91001    -0.1821
     27  C6        49.2960   49.8220   16.7820 C.3   1001  FR91001     0.1432
     28  C7        47.7260   49.3490   18.7000 C.ar  1001  FR91001    -0.0026
     29  C11       48.0320   49.2190   17.3550 C.ar  1001  FR91001    -0.0005
     30  C9        47.1680   48.5140   16.5360 C.ar  1001  FR91001    -0.0026
     31  C12       45.9940   47.9860   17.0600 C.ar  1001  FR91001    -0.0003
     32  C10       45.6590   48.1380   18.4150 C.ar  1001  FR91001    -0.0000
     33  C15       46.5700   48.7720   19.2010 C.ar  1001  FR91001    -0.0003
@<TRIPOS>BOND
     1    25    24    2
     2    19    20   ar
     3    19    17   ar
     4    20    21   ar
     5    30    31   ar
     6    30    29   ar
     7    27    29    1
     8    27    26    1
     9    24    26   am
    10    24    23   am
    11    31    32   ar
    12    17    16   ar
    13    17    18   ar
    14    29    28   ar
    15    16    15   ar
    16    21    23    1
    17    21    22   ar
    18    18    22   ar
    19    18    14   ar
    20    32    33   ar
    21    28    33   ar
    22    15    14   ar
    23    14    13    1
    24     7     6    2
    25    12    13    1
    26    12     9    1
    27     1     5    1
    28     1     2    1
    29     6     5    1
    30     6     8   am
    31     5     4    2
    32     9    10    1
    33     9     2    1
    34    10    11    1
    35     2     3    1
    36     4     3    1
