@<TRIPOS>MOLECULE
1o5w_MLG_A_1.pdb
 17 17 0 0 0
SMALL
GASTEIGER

@<TRIPOS>ATOM
      1  C06       56.3740   12.1240  146.2290 C.ar  709  MLG709      0.0386
      2  C05       57.7140   11.7900  145.9010 C.ar  709  MLG709      0.0146
      3  C04       58.7010   12.8300  145.8110 C.ar  709  MLG709      0.0587
      4 CL08       60.3500   12.4120  145.4110 Cl    709  MLG709     -0.0822
      5  C03       58.3540   14.1860  146.0550 C.ar  709  MLG709      0.0258
      6  C02       56.9880   14.5370  146.3890 C.ar  709  MLG709      0.0924
      7 CL07       56.6140   16.2340  146.6690 Cl    709  MLG709     -0.0791
      8  C01       56.0000   13.4990  146.4840 C.ar  709  MLG709      0.1490
      9  O09       54.6640   13.8000  146.7980 O.3   709  MLG709     -0.4746
     10  C11       52.5630   13.5160  147.8260 C.3   709  MLG709      0.0646
     11  C10       53.9890   12.9360  147.6870 C.3   709  MLG709      0.2069
     12  C12       51.5990   12.6220  148.8330 C.3   709  MLG709      0.0760
     13  N13       50.3450   12.4760  148.2930 N.3   709  MLG709     -0.2714
     14  C17       49.6330   11.6500  149.3000 C.3   709  MLG709      0.0896
     15  C14       49.6830   13.7990  148.1620 C.3   709  MLG709      0.0721
     16  C15       48.4760   13.7190  147.4960 C.3   709  MLG709      0.0173
     17  C16       47.6610   14.8560  147.2510 C.3   709  MLG709      0.0015
@<TRIPOS>BOND
     1     4     3    1
     2     3     2   ar
     3     3     5   ar
     4     2     1   ar
     5     5     6   ar
     6     1     8   ar
     7     6     8   ar
     8     6     7    1
     9     8     9    1
    10     9    11    1
    11    17    16    1
    12    16    15    1
    13    11    10    1
    14    10    12    1
    15    15    13    1
    16    13    12    1
    17    13    14    1
