@<TRIPOS>MOLECULE
1o5x_2PG_B_1.pdb
 12 10 0 0 0
SMALL
GASTEIGER

@<TRIPOS>ATOM
      1  C1        20.1170  -17.8520   20.6710 C.3   4400  2PG4400     0.4554
      2  C1        20.8900  -15.1520   19.9480 C.3   4400  2PG4400     0.0000
      3  C2        20.5480  -19.3740   20.8950 C.3   4400  2PG4400     0.2504
      4  C3        21.3810  -19.1870   22.2010 C.3   4400  2PG4400     0.2202
      5  P         19.1630  -20.7300   22.8780 P.3   4400  2PG4400     0.5328
      6  O1        20.7360  -16.8000   21.1700 O.2   4400  2PG4400    -0.2641
      7  O2        19.0050  -18.0110   21.3680 O.2   4400  2PG4400    -0.2641
      8  O3        22.6460  -19.7760   22.2010 O.3   4400  2PG4400    -0.2174
      9  O1P       19.4440  -20.3590   21.2260 O.3   4400  2PG4400    -0.2618
     10  O2P       20.4020  -21.5410   23.3080 O.3   4400  2PG4400    -0.1145
     11  O3P       17.9180  -21.5660   23.0950 O.2   4400  2PG4400    -0.2224
     12  O4P       19.0420  -19.3540   23.7230 O.3   4400  2PG4400    -0.1145
@<TRIPOS>BOND
     1     1     3    1
     2     1     6    1
     3     1     7    1
     4     3     9    1
     5     3     4    1
     6     9     5    1
     7     4     8    1
     8     5    11    2
     9     5    10    1
    10     5    12    1
