@<TRIPOS>MOLECULE
1o61_PLP_A_1.pdb
 16 16 0 0 0
SMALL
GASTEIGER

@<TRIPOS>ATOM
      1  N1        36.8850   41.3100   -1.8960 N.ar  396  PLP396     -0.2452
      2  C2        36.8770   40.3730   -0.8580 C.ar  396  PLP396      0.0979
      3  C2A       35.6190   39.5040   -0.6310 C.3   396  PLP396      0.0555
      4  C3        38.0300   40.2430   -0.0350 C.ar  396  PLP396      0.2073
      5  O3        38.0650   39.3280    1.0040 O.3   396  PLP396     -0.2856
      6  C4        39.1650   41.0650   -0.2820 C.ar  396  PLP396      0.0506
      7  C4A       40.4000   40.9130    0.6150 C.3   396  PLP396      0.2116
      8  O4A       41.1500   40.0120    0.2380 O.3   396  PLP396     -0.2151
      9  C5        39.1470   42.0150   -1.3440 C.ar  396  PLP396      0.0286
     10  C6        38.0080   42.1220   -2.1380 C.ar  396  PLP396      0.0966
     11  C5A       40.3470   42.9490   -1.6470 C.3   396  PLP396      0.1816
     12  O4P       41.5700   42.2660   -2.0300 O.3   396  PLP396     -0.2653
     13  P         43.0210   42.8260   -1.6230 P.3   396  PLP396      0.5329
     14  O1P       43.1660   44.2180   -2.1230 O.3   396  PLP396     -0.1145
     15  O2P       43.9940   41.8120   -2.3700 O.2   396  PLP396     -0.2224
     16  O3P       43.1060   42.5950   -0.1650 O.3   396  PLP396     -0.1145
@<TRIPOS>BOND
     1    15    13    2
     2    10     1   ar
     3    10     9   ar
     4    14    13    1
     5    12    11    1
     6    12    13    1
     7     1     2   ar
     8    11     9    1
     9    13    16    1
    10     9     6   ar
    11     2     3    1
    12     2     4   ar
    13     6     4   ar
    14     6     7    1
    15     4     5    1
    16     8     7    1
