@<TRIPOS>MOLECULE
1o69_X04_A_1.pdb
 16 16 0 0 0
SMALL
GASTEIGER

@<TRIPOS>ATOM
      1  P         43.1950   42.5350   -1.6660 P.3   402  X04402      0.5326
      2  OP1       42.9820   43.9650   -2.1480 O.3   402  X04402     -0.1145
      3  OP2       44.1310   41.5670   -2.5120 O.2   402  X04402     -0.2224
      4  OP3       43.5290   42.4870   -0.1800 O.3   402  X04402     -0.1145
      5  OP4       41.8020   41.8070   -1.6070 O.3   402  X04402     -0.2694
      6  C5A       40.6970   42.4730   -1.1130 C.3   402  X04402      0.1663
      7  C5        39.4190   41.6830   -0.9830 C.3   402  X04402      0.1215
      8  C6        38.3480   41.9990   -1.8170 C.2   402  X04402      0.2021
      9  N2        38.4530   42.9270   -2.7920 N.pl3 402  X04402     -0.0976
     10  N1        37.1830   41.3720   -1.6800 N.2   402  X04402     -0.3891
     11  C2        36.9860   40.4190   -0.7360 C.2   402  X04402      0.1487
     12  C2A       35.6290   39.7260   -0.6880 C.3   402  X04402      0.0699
     13  C3        38.0200   40.0810    0.1020 C.2   402  X04402      0.2134
     14  O3        37.8740   39.1470    1.0380 O.2   402  X04402     -0.2849
     15  C4        39.2520   40.7170   -0.0080 C.2   402  X04402      0.0074
     16  C4A       40.3580   40.2900    0.9250 C.3   402  X04402      0.0303
@<TRIPOS>BOND
     1     9     8    1
     2     3     1    2
     3     2     1    1
     4     8    10    2
     5     8     7    1
     6    10    11    2
     7     1     5    1
     8     1     4    1
     9     5     6    1
    10     6     7    1
    11     7    15    1
    12    11    12    1
    13    11    13    1
    14    15    13    2
    15    15    16    1
    16    13    14    1
