@<TRIPOS>MOLECULE
1o6b_ADP_A_1.pdb
 27 29 0 0 0
SMALL
GASTEIGER

@<TRIPOS>ATOM
      1  PB       125.0340   72.3400  120.9590 P.3   173  ADP173      0.5373
      2  O1B      124.2340   73.5650  121.2540 O.3   173  ADP173     -0.1143
      3  O2B      125.6790   72.4390  119.5020 O.2   173  ADP173     -0.2221
      4  O3B      124.0290   71.0620  121.0300 O.3   173  ADP173     -0.1143
      5  PA       127.6910   72.3950  122.1970 P.3   173  ADP173      0.2231
      6  O1A      128.1470   72.3570  123.6320 O.3   173  ADP173     -0.4370
      7  O2A      128.4950   71.3310  121.3190 O.2   173  ADP173     -0.5169
      8  O3A      126.1420   72.1650  122.0660 O.3   173  ADP173     -0.2261
      9  O5'      128.0800   73.8960  121.6180 O.3   173  ADP173     -0.3111
     10  C5'      129.1110   74.6390  122.2620 C.3   173  ADP173      0.1813
     11  C4'      129.4230   76.0280  121.8370 C.3   173  ADP173      0.1821
     12  O4'      130.8280   76.2330  121.5980 O.3   173  ADP173     -0.3135
     13  C3'      128.7600   76.4790  120.5040 C.3   173  ADP173      0.2184
     14  O3'      128.9320   77.8640  120.4270 O.3   173  ADP173     -0.2174
     15  C2'      129.7420   75.7830  119.5520 C.3   173  ADP173      0.2570
     16  O2'      129.5190   76.0970  118.2220 O.3   173  ADP173     -0.2130
     17  C1'      131.0690   76.2580  120.1720 C.3   173  ADP173      0.3186
     18  N9       132.1140   75.2580  119.8560 N.pl3 173  ADP173     -0.1439
     19  C8       131.9490   73.8920  120.0250 C.3   173  ADP173      0.3377
     20  N7       132.9930   73.1810  119.7440 N.2   173  ADP173     -0.2095
     21  C5       133.9230   74.1110  119.3070 C.2   173  ADP173      0.2526
     22  C6       135.2420   73.9900  118.8240 C.2   173  ADP173      0.4393
     23  N6       135.9220   72.8390  118.7060 N.pl3 173  ADP173      0.2180
     24  N1       135.9180   75.1200  118.4880 N.2   173  ADP173      0.0021
     25  C2       135.2660   76.2700  118.5910 C.3   173  ADP173      0.5254
     26  N3       134.0290   76.5080  118.9950 N.2   173  ADP173     -0.0055
     27  C4       133.3780   75.3820  119.3710 C.2   173  ADP173      0.3518
@<TRIPOS>BOND
     1    16    15    1
     2    24    25    1
     3    24    22    2
     4    25    26    1
     5    23    22    1
     6    22    21    1
     7    26    27    2
     8    21    27    1
     9    21    20    2
    10    27    18    1
    11     3     1    2
    12    15    17    1
    13    15    13    1
    14    20    19    1
    15    18    19    1
    16    18    17    1
    17    17    12    1
    18    14    13    1
    19    13    11    1
    20     1     4    1
    21     1     2    1
    22     1     8    1
    23     7     5    2
    24    12    11    1
    25     9     5    1
    26     9    10    1
    27    11    10    1
    28     8     5    1
    29     5     6    1
