@<TRIPOS>MOLECULE
1o6h_C8E_A_1.pdb
 21 20 0 0 0
SMALL
GASTEIGER

@<TRIPOS>ATOM
      1  C1        49.8500   92.2690   73.0450 C.3   700  C8E700      0.0000
      2  C2        49.6550   93.5220   72.2710 C.3   700  C8E700      0.0000
      3  C3        49.0930   93.2250   70.9450 C.3   700  C8E700      0.0000
      4  C4        50.2340   93.1600   70.0430 C.3   700  C8E700      0.0000
      5  C5        49.7410   92.9430   68.6510 C.3   700  C8E700      0.0001
      6  C6        50.2700   91.6990   68.0810 C.3   700  C8E700      0.0026
      7  C7        51.5420   92.0670   67.4670 C.3   700  C8E700      0.0321
      8  C8        52.7240   91.3280   68.0710 C.3   700  C8E700      0.1423
      9  O9        54.0100   91.7040   67.4640 O.3   700  C8E700     -0.3498
     10  C10       54.6280   90.5860   66.8260 C.3   700  C8E700      0.1893
     11  C11       56.0080   90.3680   67.3620 C.3   700  C8E700      0.2376
     12  O12       56.1120   90.0200   68.7710 O.2   700  C8E700     -0.4666
     13  C13       56.5400   88.6260   68.9990 C.2   700  C8E700      0.2124
     14  C14       55.4280   87.6240   69.3270 C.2   700  C8E700      0.2124
     15  O15       53.9950   87.7400   69.2690 O.2   700  C8E700     -0.4666
     16  C16       53.5330   86.5130   69.8290 C.3   700  C8E700      0.2376
     17  C17       52.9670   86.3930   71.1700 C.3   700  C8E700      0.1894
     18  O18       52.6080   87.6790   71.7890 O.3   700  C8E700     -0.3470
     19  C19       51.2130   87.5510   71.9210 C.3   700  C8E700      0.1778
     20  C20       50.3050   88.7880   72.1820 C.3   700  C8E700      0.2140
     21  O21       50.2510   89.6490   71.0570 O.3   700  C8E700     -0.2176
@<TRIPOS>BOND
     1    10    11    1
     2    10     9    1
     3    11    12    1
     4     9     8    1
     5     7     8    1
     6     7     6    1
     7     6     5    1
     8     5     4    1
     9    12    13    1
    10    13    14    2
    11    15    14    1
    12    15    16    1
    13    16    17    1
    14     4     3    1
    15     3     2    1
    16    21    20    1
    17    17    18    1
    18    18    19    1
    19    19    20    1
    20     2     1    1
