@<TRIPOS>MOLECULE
1o6h_W37_A_1.pdb
 29 31 0 0 0
SMALL
GASTEIGER

@<TRIPOS>ATOM
      1  C3A       63.4410   69.1800   58.4770 C.2   800  W37800     -0.0035
      2  C2A       62.3480   69.9280   58.7130 C.2   800  W37800     -0.0088
      3  C1A       61.8000   70.1160   60.1100 C.3   800  W37800      0.0989
      4  N1        62.3770   71.2880   60.8040 N.3   800  W37800     -0.2678
      5  C1B       63.4980   70.8530   61.6670 C.3   800  W37800      0.0724
      6  C2B       63.0880   69.9340   62.8220 C.3   800  W37800      0.0173
      7  C3B       64.1370   70.0940   63.9100 C.3   800  W37800      0.0016
      8  C4B       63.4330   70.4590   65.2150 C.3   800  W37800      0.0039
      9  C5B       63.6670   69.3460   66.2610 C.3   800  W37800      0.0473
     10  C6B       64.9210   69.6710   67.0850 C.3   800  W37800      0.2054
     11  O         64.6670   70.7820   67.9520 O.3   800  W37800     -0.4755
     12  C3C       68.8360   69.6140   72.3640 C.ar  800  W37800      0.0988
     13  C6C       65.6580   71.0550   68.8950 C.ar  800  W37800      0.1386
     14  C4C       67.8300   69.2930   71.4180 C.ar  800  W37800      0.0208
     15  C7C       66.0810   72.3970   69.0690 C.ar  800  W37800      0.0369
     16  C8C       67.0840   72.7270   70.0140 C.ar  800  W37800      0.0046
     17  N2C       69.2380   70.9190   72.5150 N.ar  800  W37800     -0.2438
     18  C1C       68.6990   71.9680   71.7750 C.ar  800  W37800      0.0813
     19  C8P       67.6810   71.7130   70.8060 C.ar  800  W37800      0.0179
     20  C4P       67.2490   70.3360   70.6330 C.ar  800  W37800      0.0060
     21  C5C       66.2460   70.0260   69.6840 C.ar  800  W37800      0.0370
     22  C1D       69.2670   73.2900   72.0940 C.ar  800  W37800      0.0177
     23  C2D       70.6190   73.5370   71.7800 C.ar  800  W37800      0.0020
     24  C3D       71.1990   74.7780   72.0990 C.ar  800  W37800      0.0067
     25  C4D       70.4390   75.7860   72.7340 C.ar  800  W37800      0.0346
     26  C5D       69.0740   75.5540   73.0480 C.ar  800  W37800      0.0067
     27  C6D       68.4840   74.3020   72.7280 C.ar  800  W37800      0.0020
     28 BR29       71.2410   77.3940   73.1700 Br    800  W37800     -0.0490
     29  C1E       61.3480   71.9690   61.6110 C.3   800  W37800      0.0899
@<TRIPOS>BOND
     1     1     2    2
     2     2     3    1
     3     3     4    1
     4     4    29    1
     5     4     5    1
     6     5     6    1
     7     6     7    1
     8     7     8    1
     9     8     9    1
    10     9    10    1
    11    10    11    1
    12    11    13    1
    13    13    15   ar
    14    13    21   ar
    15    15    16   ar
    16    21    20   ar
    17    16    19   ar
    18    20    19   ar
    19    20    14   ar
    20    19    18   ar
    21    14    12   ar
    22    18    22    1
    23    18    17   ar
    24    23    22   ar
    25    23    24   ar
    26    22    27   ar
    27    24    25   ar
    28    12    17   ar
    29    27    26   ar
    30    25    26   ar
    31    25    28    1
