@<TRIPOS>MOLECULE
1o6i_0HZ_A_1.pdb
 18 19 0 0 0
SMALL
GASTEIGER

@<TRIPOS>ATOM
      1  N         17.4790   44.8250  102.0630 N.am  1516  0HZ1516    -0.2658
      2  CA        18.3740   44.6700  103.2560 C.3   1516  0HZ1516     0.1823
      3  CB        19.0950   46.0050  103.3720 C.3   1516  0HZ1516     0.0388
      4  CG        18.1800   47.0260  102.6730 C.3   1516  0HZ1516     0.0244
      5  CD        17.1570   46.2510  101.8230 C.3   1516  0HZ1516     0.0945
      6  C         19.3580   43.5230  103.0310 C.1   1516  0HZ1516     0.1445
      7  O         20.4680   43.5410  103.5490 O.2   1516  0HZ1516    -0.2254
      8  N1        18.9580   42.4100  102.2570 N.2   1516  0HZ1516    -0.1976
      9  CA1       17.5850   42.3040  101.6640 C.3   1516  0HZ1516     0.1905
     10  C1        17.0170   43.6890  101.3640 C.2   1516  0HZ1516     0.2495
     11  O1        16.1200   43.8000  100.5210 O.2   1516  0HZ1516    -0.2727
     12  CB1       16.6720   41.5920  102.6440 C.3   1516  0HZ1516     0.0383
     13  CG1       16.6200   40.1010  102.3410 C.3   1516  0HZ1516     0.0495
     14  CD1       15.3180   39.5110  102.8790 C.3   1516  0HZ1516     0.2205
     15  NE        15.6430   38.4140  103.8060 N.pl3 1516  0HZ1516    -0.0865
     16  CZ        14.7280   37.8620  104.6030 C.cat 1516  0HZ1516     0.5346
     17  NH1       15.1070   37.5820  105.8550 N.pl3 1516  0HZ1516     0.1354
     18  NH2       13.4920   37.5900  104.1670 N.pl3 1516  0HZ1516     0.1354
@<TRIPOS>BOND
     1    11    10    2
     2    10     9    1
     3    10     1   am
     4     9     8    1
     5     9    12    1
     6     5     1    1
     7     5     4    1
     8     1     2    1
     9     8     6    2
    10    13    12    1
    11    13    14    1
    12     4     3    1
    13    14    15    1
    14     6     2    1
    15     6     7    2
    16     2     3    1
    17    15    16    2
    18    18    16    1
    19    16    17    1
