@<TRIPOS>MOLECULE
1o6k_ANP_A_1.pdb
 31 33 0 0 0
SMALL
GASTEIGER

@<TRIPOS>ATOM
      1  PG        39.4170   25.8470  173.8960 P.3   1480  ANP1480     0.4884
      2  O1G       37.9690   26.0730  173.4740 O.2   1480  ANP1480    -0.2331
      3  O2G       39.7440   26.2450  175.2740 O.3   1480  ANP1480    -0.1240
      4  O3G       39.8500   24.4890  173.6090 O.3   1480  ANP1480    -0.1240
      5  PB        39.8610   27.8910  171.7460 P.3   1480  ANP1480     0.4669
      6  O1B       39.9520   27.1250  170.5250 O.2   1480  ANP1480    -0.2351
      7  O2B       38.5410   28.4770  172.0620 O.3   1480  ANP1480    -0.1253
      8  N3B       40.3440   26.9130  173.0190 N.3   1480  ANP1480    -0.0163
      9  PA        41.2390   30.2190  172.7760 P.3   1480  ANP1480     0.2220
     10  O1A       40.4790   31.4390  172.5040 O.2   1480  ANP1480    -0.5170
     11  O2A       41.1740   29.6150  174.1360 O.3   1480  ANP1480    -0.4370
     12  O3A       40.9380   29.0830  171.6600 O.3   1480  ANP1480    -0.2360
     13  O5'       42.7740   30.5270  172.4250 O.3   1480  ANP1480    -0.3111
     14  C5'       43.7610   29.4880  172.5800 C.3   1480  ANP1480     0.1813
     15  C4'       44.9800   30.0300  173.2940 C.3   1480  ANP1480     0.1821
     16  O4'       45.4240   31.2540  172.6620 O.3   1480  ANP1480    -0.3135
     17  C3'       44.7010   30.4000  174.7430 C.3   1480  ANP1480     0.2184
     18  O3'       44.7080   29.2850  175.6360 O.3   1480  ANP1480    -0.2174
     19  C2'       45.7590   31.4450  174.9940 C.3   1480  ANP1480     0.2570
     20  O2'       47.0070   30.8170  175.3420 O.3   1480  ANP1480    -0.2130
     21  C1'       45.9050   32.1710  173.6630 C.3   1480  ANP1480     0.3186
     22  N9        45.1150   33.4140  173.6600 N.pl3 1480  ANP1480    -0.1439
     23  C8        43.7520   33.5840  173.4780 C.3   1480  ANP1480     0.3377
     24  N7        43.3570   34.8110  173.5400 N.2   1480  ANP1480    -0.2095
     25  C5        44.5240   35.5230  173.7780 C.2   1480  ANP1480     0.2526
     26  C6        44.7770   36.9020  173.9520 C.2   1480  ANP1480     0.4393
     27  N6        43.8020   37.8130  173.9030 N.pl3 1480  ANP1480     0.2180
     28  N1        46.0840   37.2970  174.1780 N.2   1480  ANP1480     0.0021
     29  C2        47.0590   36.3700  174.2240 C.3   1480  ANP1480     0.5254
     30  N3        46.9290   35.0380  174.0750 N.2   1480  ANP1480    -0.0055
     31  C4        45.6100   34.6830  173.8510 C.2   1480  ANP1480     0.3518
@<TRIPOS>BOND
     1     6     5    2
     2    12     5    1
     3    12     9    1
     4     5     7    1
     5     5     8    1
     6    13    14    1
     7    13     9    1
     8    10     9    2
     9    14    15    1
    10    16    15    1
    11    16    21    1
    12     9    11    1
    13     8     1    1
    14    15    17    1
    15     2     1    2
    16    23    24    1
    17    23    22    1
    18    24    25    2
    19     4     1    1
    20    22    21    1
    21    22    31    1
    22    21    19    1
    23    25    31    1
    24    25    26    1
    25    31    30    2
    26     1     3    1
    27    27    26    1
    28    26    28    2
    29    30    29    1
    30    28    29    1
    31    17    19    1
    32    17    18    1
    33    19    20    1
