@<TRIPOS>MOLECULE
1o6l_ANP_A_1.pdb
 31 33 0 0 0
SMALL
GASTEIGER

@<TRIPOS>ATOM
      1  PG        39.2770   25.6750  111.1200 P.3   1480  ANP1480     0.4884
      2  O1G       37.8280   25.9630  110.7490 O.2   1480  ANP1480    -0.2331
      3  O2G       39.6800   26.0790  112.4800 O.3   1480  ANP1480    -0.1240
      4  O3G       39.6460   24.2940  110.8430 O.3   1480  ANP1480    -0.1240
      5  PB        39.7500   27.6810  108.9480 P.3   1480  ANP1480     0.4669
      6  O1B       39.8610   26.9260  107.7150 O.2   1480  ANP1480    -0.2351
      7  O2B       38.4370   28.2670  109.2610 O.3   1480  ANP1480    -0.1253
      8  N3B       40.2200   26.6750  110.2030 N.3   1480  ANP1480    -0.0163
      9  PA        41.1520   30.0050  109.9780 P.3   1480  ANP1480     0.2220
     10  O1A       40.3760   31.2170  109.7020 O.2   1480  ANP1480    -0.5170
     11  O2A       41.0900   29.4180  111.3490 O.3   1480  ANP1480    -0.4370
     12  O3A       40.8450   28.8640  108.8750 O.3   1480  ANP1480    -0.2360
     13  O5'       42.6790   30.3290  109.6030 O.3   1480  ANP1480    -0.3111
     14  C5'       43.6880   29.3090  109.7570 C.3   1480  ANP1480     0.1813
     15  C4'       44.8840   29.8650  110.4930 C.3   1480  ANP1480     0.1821
     16  O4'       45.3500   31.0800  109.8610 O.3   1480  ANP1480    -0.3135
     17  C3'       44.5660   30.2610  111.9260 C.3   1480  ANP1480     0.2184
     18  O3'       44.5200   29.1610  112.8300 O.3   1480  ANP1480    -0.2174
     19  C2'       45.6400   31.2880  112.1910 C.3   1480  ANP1480     0.2570
     20  O2'       46.8710   30.6420  112.5550 O.3   1480  ANP1480    -0.2130
     21  C1'       45.8150   32.0060  110.8630 C.3   1480  ANP1480     0.3186
     22  N9        45.0210   33.2460  110.8350 N.pl3 1480  ANP1480    -0.1439
     23  C8        43.6520   33.4060  110.6560 C.3   1480  ANP1480     0.3377
     24  N7        43.2500   34.6380  110.6890 N.2   1480  ANP1480    -0.2095
     25  C5        44.4110   35.3590  110.9030 C.2   1480  ANP1480     0.2526
     26  C6        44.6590   36.7460  111.0430 C.2   1480  ANP1480     0.4393
     27  N6        43.6830   37.6520  110.9770 N.pl3 1480  ANP1480     0.2180
     28  N1        45.9640   37.1500  111.2540 N.2   1480  ANP1480     0.0021
     29  C2        46.9420   36.2270  111.3170 C.3   1480  ANP1480     0.5254
     30  N3        46.8170   34.8920  111.1980 N.2   1480  ANP1480    -0.0055
     31  C4        45.5050   34.5250  110.9920 C.2   1480  ANP1480     0.3518
@<TRIPOS>BOND
     1     6     5    2
     2    12     5    1
     3    12     9    1
     4     5     7    1
     5     5     8    1
     6    13    14    1
     7    13     9    1
     8    10     9    2
     9    14    15    1
    10    16    15    1
    11    16    21    1
    12     9    11    1
    13     8     1    1
    14    15    17    1
    15    23    24    1
    16    23    22    1
    17    24    25    2
    18     2     1    2
    19    22    21    1
    20    22    31    1
    21     4     1    1
    22    21    19    1
    23    25    31    1
    24    25    26    1
    25    27    26    1
    26    31    30    2
    27    26    28    2
    28     1     3    1
    29    30    29    1
    30    28    29    1
    31    17    19    1
    32    17    18    1
    33    19    20    1
