@<TRIPOS>MOLECULE
1o6p_III_C_1.pdb
 27 27 0 0 0
SMALL
GASTEIGER

@<TRIPOS>ATOM
      1  N         59.7240  -62.4530    9.3850 N.3    34  GLY34      -0.1210
      2  CA        60.3280  -61.0780    9.3760 C.3    34  GLY34       0.1956
      3  C         61.8480  -61.0610    9.4100 C.2    34  GLY34       0.2612
      4  O         62.4910  -61.9970    8.9380 O.2    34  GLY34      -0.2717
      5  N         62.4260  -59.9950    9.9590 N.am   35  LEU35      -0.1965
      6  CA        63.8810  -59.8900   10.0480 C.3    35  LEU35       0.1728
      7  C         64.4500  -60.8930   11.0380 C.2    35  LEU35       0.2616
      8  O         65.4340  -61.5810   10.7540 O.2    35  LEU35      -0.2715
      9  CB        64.3150  -58.4880   10.4800 C.3    35  LEU35       0.0311
     10  CG        65.8220  -58.4110   10.7530 C.3    35  LEU35       0.0022
     11  CD1       66.6210  -58.7590    9.5090 C.3    35  LEU35       0.0001
     12  CD2       66.1730  -57.0280   11.2290 C.3    35  LEU35       0.0001
     13  N         63.8310  -60.9630   12.2090 N.am   36  PHE36      -0.1960
     14  CA        64.2920  -61.8810   13.2410 C.3    36  PHE36       0.1771
     15  C         63.4800  -63.1650   13.2390 C.2    36  PHE36       0.2620
     16  O         62.4460  -63.2510   12.5590 O.2    36  PHE36      -0.2715
     17  CB        64.2270  -61.2030   14.6160 C.3    36  PHE36       0.0574
     18  CG        65.1310  -60.0260   14.7330 C.ar   36  PHE36      -0.0200
     19  CD1       64.6130  -58.7440   14.7910 C.ar   36  PHE36      -0.0042
     20  CD2       66.5150  -60.1990   14.6910 C.ar   36  PHE36      -0.0042
     21  CE1       65.4610  -57.6460   14.8010 C.ar   36  PHE36      -0.0003
     22  CE2       67.3720  -59.1160   14.7000 C.ar   36  PHE36      -0.0003
     23  CZ        66.8480  -57.8310   14.7520 C.ar   36  PHE36      -0.0000
     24  N         63.9630  -64.1530   13.9970 N.am   37  GLY37      -0.1954
     25  CA        63.2940  -65.4420   14.0980 C.3    37  GLY37       0.1869
     26  C         62.1270  -65.5940   13.1370 C.2    37  GLY37       0.2309
     27  O         60.9670  -65.7170   13.6110 O.2    37  GLY37      -0.2863
@<TRIPOS>BOND
     1     4     3    2
     2     2     1    1
     3     2     3    1
     4     3     5   am
     5    11    10    1
     6     5     6    1
     7     6     9    1
     8     6     7    1
     9     9    10    1
    10    10    12    1
    11     8     7    2
    12     7    13   am
    13    13    14    1
    14    16    15    2
    15    26    27    2
    16    26    25    1
    17    15    14    1
    18    15    24   am
    19    14    17    1
    20    24    25    1
    21    17    18    1
    22    20    22   ar
    23    20    18   ar
    24    22    23   ar
    25    18    19   ar
    26    23    21   ar
    27    19    21   ar
