@<TRIPOS>MOLECULE
1o6q_R17_A_1.pdb
 26 28 0 0 0
SMALL
GASTEIGER

@<TRIPOS>ATOM
      1  C3A       63.1340   67.6950   58.8050 C.2   800  R17800     -0.0035
      2  C2A       63.1290   68.9560   58.3740 C.2   800  R17800     -0.0088
      3  C1A       63.7300   70.0980   59.1590 C.3   800  R17800      0.0992
      4  N1        62.9050   71.3300   59.0640 N.3   800  R17800     -0.2640
      5  C1B       61.6770   71.2420   59.9220 C.3   800  R17800      0.0989
      6  C2B       61.9050   71.5060   61.4030 C.2   800  R17800     -0.0097
      7  C3B       62.1260   70.5520   62.3090 C.2   800  R17800      0.0175
      8  C4B       62.3430   70.8550   63.7650 C.3   800  R17800      0.2315
      9  O5B       63.7190   71.2540   63.9650 O.3   800  R17800     -0.4706
     10  C6C       64.2430   71.0620   65.2680 C.ar  800  R17800      0.1421
     11  C7C       63.7170   70.0560   66.1390 C.ar  800  R17800      0.0744
     12  C7P       64.3020   69.9320   67.4120 C.ar  800  R17800      0.1485
     13  O1C       63.9750   69.0710   68.3720 O.2   800  R17800     -0.4503
     14  C2C       64.8010   69.2810   69.4480 C.ar  800  R17800      0.1795
     15  C3C       65.6720   70.2760   69.2090 C.ar  800  R17800      0.0406
     16  C3P       65.3710   70.7390   67.8690 C.ar  800  R17800      0.0378
     17  C4C       65.8910   71.7310   67.0190 C.ar  800  R17800      0.0062
     18  C5C       65.3160   71.8850   65.7130 C.ar  800  R17800      0.0371
     19  C1D       66.7140   70.7430   70.1670 C.ar  800  R17800      0.0032
     20  C2D       67.4470   69.7690   70.8920 C.ar  800  R17800      0.0006
     21  C3D       68.4430   70.1650   71.8020 C.ar  800  R17800      0.0067
     22  C4D       68.7110   71.5280   71.9910 C.ar  800  R17800      0.0346
     23  C5D       67.9840   72.5200   71.2700 C.ar  800  R17800      0.0067
     24  C6D       66.9830   72.1230   70.3570 C.ar  800  R17800      0.0006
     25 BR25       70.0100   72.0260   73.1920 Br    800  R17800     -0.0490
     26  C1E       63.7350   72.5360   59.3980 C.3   800  R17800      0.0902
@<TRIPOS>BOND
     1     2     1    2
     2     2     3    1
     3     4     3    1
     4     4    26    1
     5     4     5    1
     6     5     6    1
     7     6     7    2
     8     7     8    1
     9     8     9    1
    10     9    10    1
    11    10    18   ar
    12    10    11   ar
    13    18    17   ar
    14    11    12   ar
    15    17    16   ar
    16    12    16   ar
    17    12    13   ar
    18    16    15   ar
    19    13    14   ar
    20    15    14   ar
    21    15    19    1
    22    19    24   ar
    23    19    20   ar
    24    24    23   ar
    25    20    21   ar
    26    23    22   ar
    27    21    22   ar
    28    22    25    1
