@<TRIPOS>MOLECULE
1o6q_C8E_A_1.pdb
 21 20 0 0 0
SMALL
GASTEIGER

@<TRIPOS>ATOM
      1  C1        49.1710   93.9180   72.5260 C.3   700  C8E700      0.0000
      2  C2        49.8860   93.8350   71.2390 C.3   700  C8E700      0.0000
      3  C3        49.4570   92.6260   70.5080 C.3   700  C8E700      0.0000
      4  C4        50.0710   92.6810   69.1730 C.3   700  C8E700      0.0000
      5  C5        51.3510   91.9050   69.2250 C.3   700  C8E700      0.0001
      6  C6        52.0000   91.8600   67.9230 C.3   700  C8E700      0.0026
      7  C7        53.3170   92.4000   68.1800 C.3   700  C8E700      0.0321
      8  C8        54.3290   92.0070   67.1330 C.3   700  C8E700      0.1423
      9  O9        54.9270   90.6970   67.3970 O.3   700  C8E700     -0.3511
     10  C10       56.1490   90.8080   68.1270 C.3   700  C8E700      0.1741
     11  C11       56.6790   89.4460   68.4340 C.3   700  C8E700      0.1742
     12  O12       55.9640   88.6880   69.4350 O.3   700  C8E700     -0.3484
     13  C13       55.1190   87.6280   68.8580 C.3   700  C8E700      0.1742
     14  C14       53.6410   87.7020   69.2330 C.3   700  C8E700      0.1742
     15  O15       52.7000   86.6790   69.5870 O.3   700  C8E700     -0.3484
     16  C16       53.0590   86.3020   70.9210 C.3   700  C8E700      0.1742
     17  C17       52.2030   86.5400   72.0770 C.3   700  C8E700      0.1742
     18  O18       52.1520   87.9560   72.4910 O.3   700  C8E700     -0.3483
     19  C19       50.7600   88.1710   72.6090 C.3   700  C8E700      0.1777
     20  C20       50.0580   89.4000   71.9500 C.3   700  C8E700      0.2140
     21  O21       50.0970   89.3300   70.5340 O.3   700  C8E700     -0.2176
@<TRIPOS>BOND
     1     8     9    1
     2     8     7    1
     3     9    10    1
     4     6     7    1
     5     6     5    1
     6    10    11    1
     7    11    12    1
     8    13    14    1
     9    13    12    1
    10     4     5    1
    11     4     3    1
    12    14    15    1
    13    15    16    1
    14     3     2    1
    15    21    20    1
    16    16    17    1
    17     2     1    1
    18    20    19    1
    19    17    18    1
    20    18    19    1
