@<TRIPOS>MOLECULE
1o6r_C8E_A_1.pdb
 21 20 0 0 0
SMALL
GASTEIGER

@<TRIPOS>ATOM
      1  C1        49.1890   92.7390   72.2590 C.3   700  C8E700      0.0000
      2  C2        49.7450   93.7790   71.3710 C.3   700  C8E700      0.0000
      3  C3        49.7680   93.2900   69.9910 C.3   700  C8E700      0.0000
      4  C4        51.1810   93.0630   69.6660 C.3   700  C8E700      0.0000
      5  C5        51.2520   91.8650   68.7860 C.3   700  C8E700      0.0001
      6  C6        51.4240   92.2510   67.3890 C.3   700  C8E700      0.0026
      7  C7        52.5890   91.5080   66.9580 C.3   700  C8E700      0.0321
      8  C8        53.7260   92.4010   66.5020 C.3   700  C8E700      0.1423
      9  O9        54.9390   91.6530   66.1380 O.3   700  C8E700     -0.3498
     10  C10       55.8420   91.5170   67.2400 C.3   700  C8E700      0.1893
     11  C11       56.1720   90.0730   67.4530 C.3   700  C8E700      0.2376
     12  O12       55.9110   89.5400   68.7720 O.2   700  C8E700     -0.4666
     13  C13       55.6030   88.1030   68.7410 C.2   700  C8E700      0.2124
     14  C14       54.3070   87.6850   69.4320 C.2   700  C8E700      0.2124
     15  O15       53.5960   86.4310   69.4390 O.2   700  C8E700     -0.4666
     16  C16       53.5060   86.0700   70.8250 C.3   700  C8E700      0.2376
     17  C17       52.2900   86.2330   71.6270 C.3   700  C8E700      0.1894
     18  O18       51.9300   87.6460   71.8860 O.3   700  C8E700     -0.3470
     19  C19       50.5570   87.5440   72.2160 C.3   700  C8E700      0.1778
     20  C20       49.5040   88.6300   71.7810 C.3   700  C8E700      0.2140
     21  O21       50.0790   89.6890   71.0210 O.3   700  C8E700     -0.2176
@<TRIPOS>BOND
     1     9     8    1
     2     9    10    1
     3     8     7    1
     4     7     6    1
     5    10    11    1
     6     6     5    1
     7    11    12    1
     8    13    12    1
     9    13    14    2
    10     5     4    1
    11    14    15    1
    12    15    16    1
    13     4     3    1
    14     3     2    1
    15    16    17    1
    16    21    20    1
    17     2     1    1
    18    17    18    1
    19    20    19    1
    20    18    19    1
