@<TRIPOS>MOLECULE
1o6r_R19_A_1.pdb
 28 30 0 0 0
SMALL
GASTEIGER

@<TRIPOS>ATOM
      1  C2A       62.9540   69.0520   58.3270 C.2   800  R19800     -0.0088
      2  C1A       62.7160   69.4010   59.7780 C.3   800  R19800      0.0989
      3  N1        62.2090   70.7880   59.9590 N.3   800  R19800     -0.2678
      4  C1E       60.7210   70.8160   59.8630 C.3   800  R19800      0.0899
      5  C1B       62.6510   71.4000   61.2670 C.3   800  R19800      0.0724
      6  C2B       62.1090   70.7320   62.5800 C.3   800  R19800      0.0173
      7  C3B       63.1200   69.7030   63.1510 C.3   800  R19800      0.0016
      8  C4B       63.8060   70.2380   64.4170 C.3   800  R19800      0.0039
      9  C5B       63.4140   69.3830   65.6290 C.3   800  R19800      0.0473
     10  C6B       64.6170   69.2380   66.5670 C.3   800  R19800      0.2054
     11  O7B       64.1850   69.5400   67.8970 O.3   800  R19800     -0.4754
     12  C6C       65.1650   70.0590   68.7550 C.ar  800  R19800      0.1416
     13  C5C       65.4410   71.4550   68.7280 C.ar  800  R19800      0.0371
     14  C4C       66.4230   72.0450   69.5810 C.ar  800  R19800      0.0062
     15  C3P       67.1190   71.2000   70.4610 C.ar  800  R19800      0.0378
     16  C3C       68.1580   71.4620   71.4410 C.ar  800  R19800      0.0406
     17  C1D       68.8180   72.7850   71.8210 C.ar  800  R19800      0.0032
     18  C6D       68.0370   73.9170   72.2120 C.ar  800  R19800      0.0006
     19  C5D       68.6730   75.1430   72.5840 C.ar  800  R19800      0.0067
     20  C4D       70.1080   75.2510   72.5690 C.ar  800  R19800      0.0346
     21 BR27       70.9870   76.8570   73.0760 Br    800  R19800     -0.0490
     22  C3D       70.8750   74.1130   72.1710 C.ar  800  R19800      0.0067
     23  C2D       70.2360   72.8970   71.8020 C.ar  800  R19800      0.0006
     24  C2C       68.4430   70.2330   71.9910 C.ar  800  R19800      0.1795
     25  O1C       67.6610   69.2200   71.4320 O.2   800  R19800     -0.4503
     26  C7P       66.8400   69.7740   70.4910 C.ar  800  R19800      0.1485
     27  C7C       65.8630   69.1990   69.6420 C.ar  800  R19800      0.0743
     28  C3A       63.8030   68.0950   57.9370 C.2   800  R19800     -0.0035
@<TRIPOS>BOND
     1    28     1    2
     2     1     2    1
     3     2     3    1
     4     4     3    1
     5     3     5    1
     6     5     6    1
     7     6     7    1
     8     7     8    1
     9     8     9    1
    10     9    10    1
    11    10    11    1
    12    11    12    1
    13    13    12   ar
    14    13    14   ar
    15    12    27   ar
    16    14    15   ar
    17    27    26   ar
    18    15    26   ar
    19    15    16   ar
    20    26    25   ar
    21    25    24   ar
    22    16    17    1
    23    16    24   ar
    24    23    17   ar
    25    23    22   ar
    26    17    18   ar
    27    22    20   ar
    28    18    19   ar
    29    20    19   ar
    30    20    21    1
