@<TRIPOS>MOLECULE
1o6y_ACP_A_1.pdb
 31 33 0 0 0
SMALL
GASTEIGER

@<TRIPOS>ATOM
      1  PG        79.5020   82.7830   21.9910 P.3   1279  ACP1279     0.1295
      2  O1G       79.6010   82.2810   20.5950 O.2   1279  ACP1279    -0.4595
      3  O2G       80.0950   84.1690   22.1250 O.3   1279  ACP1279    -0.3567
      4  O3G       78.0600   82.8720   22.3110 O.3   1279  ACP1279    -0.3567
      5  PB        81.4880   80.5560   22.5380 P.3   1279  ACP1279     0.3815
      6  O1B       82.7570   81.3250   22.1900 O.3   1279  ACP1279    -0.1391
      7  O2B       80.9520   79.8240   21.3620 O.2   1279  ACP1279    -0.2547
      8  C3B       80.2730   81.6590   23.1340 C.3   1279  ACP1279     0.1768
      9  PA        83.0080   78.5630   23.8500 P.3   1279  ACP1279     0.2209
     10  O1A       84.3250   79.0510   23.3110 O.2   1279  ACP1279    -0.5170
     11  O2A       82.6990   77.2120   23.3580 O.3   1279  ACP1279    -0.4371
     12  O3A       81.8260   79.5160   23.6310 O.3   1279  ACP1279    -0.2483
     13  O5'       83.1790   78.3890   25.3310 O.3   1279  ACP1279    -0.3111
     14  C5'       83.0150   79.5440   26.1360 C.3   1279  ACP1279     0.1813
     15  C4'       83.7400   79.3020   27.4250 C.3   1279  ACP1279     0.1821
     16  O4'       83.0340   78.3270   28.1750 O.3   1279  ACP1279    -0.3135
     17  C3'       85.1370   78.7030   27.2390 C.3   1279  ACP1279     0.2184
     18  O3'       86.1280   79.7080   27.1760 O.3   1279  ACP1279    -0.2174
     19  C2'       85.2960   77.8810   28.4850 C.3   1279  ACP1279     0.2570
     20  O2'       85.6310   78.7850   29.5270 O.3   1279  ACP1279    -0.2130
     21  C1'       83.8900   77.3430   28.7510 C.3   1279  ACP1279     0.3186
     22  N9        83.7760   76.0060   28.1080 N.pl3 1279  ACP1279    -0.1439
     23  C8        83.3490   75.7360   26.8610 C.3   1279  ACP1279     0.3377
     24  N7        83.3640   74.4180   26.6260 N.2   1279  ACP1279    -0.2095
     25  C5        83.8290   73.8450   27.7510 C.2   1279  ACP1279     0.2526
     26  C6        84.0900   72.4580   28.1580 C.2   1279  ACP1279     0.4393
     27  N6        83.8200   71.4440   27.2400 N.pl3 1279  ACP1279     0.2180
     28  N1        84.5060   72.2260   29.3970 N.2   1279  ACP1279     0.0021
     29  C2        84.7460   73.2420   30.2870 C.3   1279  ACP1279     0.5254
     30  N3        84.4900   74.5320   29.9690 N.2   1279  ACP1279    -0.0055
     31  C4        84.0630   74.8650   28.7310 C.2   1279  ACP1279     0.3518
@<TRIPOS>BOND
     1     2     1    2
     2     7     5    2
     3     1     3    1
     4     1     4    1
     5     1     8    1
     6     6     5    1
     7     5     8    1
     8     5    12    1
     9    10     9    2
    10    11     9    1
    11    12     9    1
    12     9    13    1
    13    13    14    1
    14    14    15    1
    15    24    23    1
    16    24    25    2
    17    23    22    1
    18    18    17    1
    19    17    15    1
    20    17    19    1
    21    27    26    1
    22    15    16    1
    23    25    26    1
    24    25    31    1
    25    22    31    1
    26    22    21    1
    27    26    28    2
    28    16    21    1
    29    19    21    1
    30    19    20    1
    31    31    30    2
    32    28    29    1
    33    30    29    1
