@<TRIPOS>MOLECULE
1o72_PC_A_1.pdb
 11 10 0 0 0
SMALL
GASTEIGER

@<TRIPOS>ATOM
      1  P1        14.2380    9.1020   60.8760 P.3   1176  PC1176      0.5325
      2  O1        15.7270    9.1440   60.7310 O.3   1176  PC1176     -0.1145
      3  O3        13.6400   10.2540   60.1170 O.2   1176  PC1176     -0.2224
      4  O4        13.8080    9.1880   62.4400 O.3   1176  PC1176     -0.1145
      5  O2        13.6590    7.6600   60.3660 O.3   1176  PC1176     -0.2725
      6  C1        13.9380    7.3810   59.0070 C.3   1176  PC1176      0.1317
      7  C2        13.3580    5.9610   58.6150 C.3   1176  PC1176     -0.0401
      8  N1        14.0870    4.7180   59.1410 N.4   1176  PC1176      0.3874
      9  C3        13.5030    4.2530   60.4160 C.3   1176  PC1176     -0.0959
     10  C4        13.9750    3.6590   58.1200 C.3   1176  PC1176     -0.0959
     11  C5        15.5350    4.9670   59.3650 C.3   1176  PC1176     -0.0959
@<TRIPOS>BOND
     1    10     8    1
     2     7     6    1
     3     7     8    1
     4     6     5    1
     5     8    11    1
     6     8     9    1
     7     3     1    2
     8     5     1    1
     9     2     1    1
    10     1     4    1
