@<TRIPOS>MOLECULE
1o75_PDX_A_1.pdb
 19 19 0 0 0
SMALL
GASTEIGER

@<TRIPOS>ATOM
      1  C1       118.3040   59.3290   23.8790 C.3   1417  PDX1417     0.3014
      2  C2       117.3380   58.5890   22.9220 C.3   1417  PDX1417     0.2339
      3  C3       115.9860   59.3260   22.8590 C.3   1417  PDX1417     0.2102
      4  C4       115.3860   59.5450   24.2700 C.3   1417  PDX1417     0.2109
      5  C5       116.4260   60.1760   25.2070 C.3   1417  PDX1417     0.1508
      6  C6       115.9610   60.1620   26.6330 C.3   1417  PDX1417     0.0350
      7  O1       118.5340   60.6340   23.3670 O.3   1417  PDX1417    -0.1870
      8  O2       117.8910   58.5230   21.5900 O.3   1417  PDX1417    -0.2357
      9  O3       115.0450   58.5340   22.0840 O.3   1417  PDX1417    -0.2382
     10  O4       114.1170   60.2350   24.1580 O.3   1417  PDX1417    -0.2177
     11  O5       117.6880   59.4100   25.1990 O.3   1417  PDX1417    -0.3264
     12  O1S      118.8760   57.2530   19.8800 O.2   1417  PDX1417    -0.3452
     13  O2S      119.7110   56.9120   22.1430 O.3   1417  PDX1417    -0.2682
     14  O3S      117.5840   56.0650   21.4540 O.2   1417  PDX1417    -0.3452
     15  O1X      113.4000   59.9680   21.4370 O.3   1417  PDX1417    -0.2682
     16  O2X      115.0940   59.3590   19.8440 O.2   1417  PDX1417    -0.3452
     17  O3X      113.4880   57.7310   20.4980 O.2   1417  PDX1417    -0.3452
     18  S        118.4520   57.1990   21.1550 S.3   1417  PDX1417     0.0000
     19  S'       114.2720   58.8960   20.8490 S.3   1417  PDX1417    -0.0001
@<TRIPOS>BOND
     1    16    19    2
     2    12    18    2
     3    17    19    2
     4    19    15    1
     5    19     9    1
     6    18    14    2
     7    18     8    1
     8    18    13    1
     9     8     2    1
    10     9     3    1
    11     3     2    1
    12     3     4    1
    13     2     1    1
    14     7     1    1
    15     1    11    1
    16    10     4    1
    17     4     5    1
    18    11     5    1
    19     5     6    1
