@<TRIPOS>MOLECULE
1o76_CAM_A_1.pdb
 11 12 0 0 0
SMALL
GASTEIGER

@<TRIPOS>ATOM
      1  C1        22.5980   -3.4780   47.2920 C.3   1420  CAM1420     0.0515
      2  C2        23.4420   -3.5420   48.5680 C.2   1420  CAM1420     0.1498
      3  O         23.7710   -4.5400   49.2100 O.2   1420  CAM1420    -0.2961
      4  C3        23.8200   -2.0980   48.8800 C.3   1420  CAM1420     0.0645
      5  C4        23.1090   -1.3440   47.6770 C.3   1420  CAM1420     0.0077
      6  C5        24.1360   -1.7840   46.6060 C.3   1420  CAM1420     0.0009
      7  C6        23.6230   -3.1520   46.1470 C.3   1420  CAM1420     0.0069
      8  C7        21.8310   -2.1530   47.3550 C.3   1420  CAM1420     0.0066
      9  C8        20.8580   -2.0870   48.5320 C.3   1420  CAM1420     0.0004
     10  C9        21.1020   -1.7820   46.0300 C.3   1420  CAM1420     0.0004
     11  C10       21.6940   -4.7030   47.0410 C.3   1420  CAM1420     0.0073
@<TRIPOS>BOND
     1    10     8    1
     2     7     6    1
     3     7     1    1
     4     6     5    1
     5    11     1    1
     6     1     8    1
     7     1     2    1
     8     8     5    1
     9     8     9    1
    10     5     4    1
    11     2     4    1
    12     2     3    2
