@<TRIPOS>MOLECULE
1o76_HEM_A_1.pdb
 43 50 0 0 0
SMALL
GASTEIGER

@<TRIPOS>ATOM
      1 FE         23.6790    1.4780   43.6590 Fe    1417  HEM1417     0.0000
      2  CHA       24.4820    2.0440   46.8780 C.2   1417  HEM1417     0.0000
      3  CHB       20.4260    2.1790   44.2550 C.2   1417  HEM1417     0.0000
      4  CHC       23.0210    1.0770   40.2800 C.2   1417  HEM1417     0.0000
      5  CHD       26.9510    0.5700   43.0210 C.2   1417  HEM1417     0.0000
      6  NA        22.6620    1.9760   45.2540 N.2   1417  HEM1417     0.0000
      7  C1A       23.1590    2.1940   46.5280 C.2   1417  HEM1417     0.0000
      8  C2A       22.1070    2.5570   47.4540 C.2   1417  HEM1417     0.0000
      9  C3A       20.9550    2.5670   46.7220 C.2   1417  HEM1417     0.0000
     10  C4A       21.2920    2.2060   45.3470 C.2   1417  HEM1417     0.0000
     11  CMA       19.5770    2.8740   47.2580 C.3   1417  HEM1417     0.0000
     12  CAA       22.2910    2.8250   48.9590 C.3   1417  HEM1417     0.0000
     13  CBA       21.8120    1.7280   49.9130 C.3   1417  HEM1417     0.0000
     14  CGA       22.0900    2.0660   51.3840 C.2   1417  HEM1417     0.0000
     15  O1A       22.1540    3.2680   51.7020 O.co2 1417  HEM1417     0.0000
     16  O2A       22.2250    1.1350   52.2130 O.co2 1417  HEM1417     0.0000
     17  NB        22.0510    1.5980   42.4860 N.ar  1417  HEM1417     0.0000
     18  C1B       20.7620    1.8850   42.9160 C.ar  1417  HEM1417     0.0000
     19  C2B       19.8320    1.8670   41.7810 C.ar  1417  HEM1417     0.0000
     20  C3B       20.5600    1.5640   40.6530 C.ar  1417  HEM1417     0.0000
     21  C4B       21.9480    1.4130   41.1080 C.ar  1417  HEM1417     0.0000
     22  CMB       18.3450    2.1710   41.8700 C.3   1417  HEM1417     0.0000
     23  CAB       20.1350    1.4100   39.3280 C.3   1417  HEM1417     0.0000
     24  CBB       18.8220    1.6290   38.7610 C.3   1417  HEM1417     0.0000
     25  NC        24.7860    0.9020   41.9670 N.2   1417  HEM1417     0.0000
     26  C1C       24.3230    0.8090   40.6750 C.2   1417  HEM1417     0.0000
     27  C2C       25.3610    0.3540   39.8070 C.2   1417  HEM1417     0.0000
     28  C3C       26.4500    0.1350   40.5700 C.2   1417  HEM1417     0.0000
     29  C4C       26.0890    0.5060   41.9220 C.2   1417  HEM1417     0.0000
     30  CMC       25.2990    0.2570   38.2840 C.3   1417  HEM1417     0.0000
     31  CAC       27.6790   -0.2330   40.0580 C.3   1417  HEM1417     0.0000
     32  CBC       28.3780   -1.4500   40.4000 C.3   1417  HEM1417     0.0000
     33  ND        25.3960    1.3750   44.7320 N.ar  1417  HEM1417     0.0000
     34  C1D       26.6480    1.0030   44.3110 C.ar  1417  HEM1417     0.0000
     35  C2D       27.6040    1.0960   45.4200 C.ar  1417  HEM1417     0.0000
     36  C3D       26.8990    1.4980   46.5200 C.ar  1417  HEM1417     0.0000
     37  C4D       25.5340    1.6620   46.0700 C.ar  1417  HEM1417     0.0000
     38  CMD       29.1020    0.7970   45.3640 C.3   1417  HEM1417     0.0000
     39  CAD       27.3710    1.6610   47.9690 C.3   1417  HEM1417     0.0000
     40  CBD       27.6750    3.0890   48.3890 C.3   1417  HEM1417     0.0000
     41  CGD       27.8820    3.2320   49.9150 C.2   1417  HEM1417     0.0000
     42  O1D       28.4570    4.2590   50.3470 O.co2 1417  HEM1417     0.0000
     43  O2D       27.4590    2.3230   50.6590 O.co2 1417  HEM1417     0.0000
@<TRIPOS>BOND
     1    30    27    1
     2    24    23    1
     3    23    20    1
     4    27    28    2
     5    27    26    1
     6    31    32    1
     7    31    28    1
     8     4    26    2
     9     4    21    1
    10    28    29    1
    11    20    21   ar
    12    20    19   ar
    13    26    25    1
    14    21    17   ar
    15    19    22    1
    16    19    18   ar
    17    29    25    2
    18    29     5    1
    19    25     1    1
    20    17    18   ar
    21    17     1    1
    22    18     3    1
    23     5    34    2
    24     1    33    1
    25     1     6    1
    26     3    10    2
    27    34    33   ar
    28    34    35   ar
    29    33    37   ar
    30     6    10    1
    31     6     7    2
    32    10     9    1
    33    38    35    1
    34    35    36   ar
    35    37    36   ar
    36    37     2    2
    37    36    39    1
    38     7     2    1
    39     7     8    1
    40     9    11    1
    41     9     8    2
    42     8    12    1
    43    39    40    1
    44    40    41    1
    45    12    13    1
    46    13    14    1
    47    41    42   ar
    48    41    43   ar
    49    14    15   ar
    50    14    16   ar
