@<TRIPOS>MOLECULE
1o79_R23_A_1.pdb
 31 34 0 0 0
SMALL
GASTEIGER

@<TRIPOS>ATOM
      1  C4E       61.7520   70.3400   59.1340 C.3   800  R23800      0.0029
      2  C5E       60.7820   70.9170   60.2370 C.3   800  R23800      0.0174
      3  C6E       61.5940   71.6910   61.3290 C.3   800  R23800      0.0724
      4  N1E       62.5460   70.7590   62.0580 N.3   800  R23800     -0.2690
      5  C2E       63.0710   69.6150   61.2130 C.3   800  R23800      0.0724
      6  C3E       63.1830   70.0230   59.7080 C.3   800  R23800      0.0174
      7  C1D       62.0010   70.2320   63.3320 C.3   800  R23800      0.0991
      8  C4C       62.9580   70.3870   64.5090 C.ar  800  R23800     -0.0062
      9  C3C       63.0800   69.3500   65.4870 C.ar  800  R23800     -0.0032
     10  C2C       63.9740   69.4960   66.5960 C.ar  800  R23800     -0.0046
     11  C1C       64.7520   70.6900   66.7280 C.ar  800  R23800     -0.0225
     12  C6C       64.6160   71.7070   65.7420 C.ar  800  R23800     -0.0046
     13  C5C       63.7340   71.5600   64.6500 C.ar  800  R23800     -0.0032
     14  C4B       65.7250   70.9580   67.8770 C.3   800  R23800      0.0224
     15  C3B       65.0390   70.7730   69.2760 C.3   800  R23800      0.0061
     16  C2B       66.0410   71.1580   70.3970 C.3   800  R23800      0.0203
     17  C1B       67.3610   70.3230   70.3060 C.3   800  R23800      0.0786
     18  C6B       68.0190   70.4790   68.9070 C.3   800  R23800      0.0203
     19  C5B       67.0290   70.0880   67.7630 C.3   800  R23800      0.0061
     20  N4        68.3170   70.6110   71.4130 N.am  800  R23800     -0.2456
     21  C1        68.7570   71.9310   71.6240 C.2   800  R23800      0.4094
     22  O3        69.6140   72.2890   72.6020 O.3   800  R23800     -0.4101
     23  C1F       70.0550   73.6240   72.7930 C.ar  800  R23800      0.1501
     24  C6F       71.2600   74.0710   72.1760 C.ar  800  R23800      0.0385
     25  C5F       71.7170   75.4060   72.3770 C.ar  800  R23800      0.0145
     26  C4F       70.9750   76.3010   73.1950 C.ar  800  R23800      0.0579
     27  C3F       69.7630   75.8640   73.8100 C.ar  800  R23800      0.0145
     28  C2F       69.3040   74.5260   73.6100 C.ar  800  R23800      0.0385
     29  C1A       68.7920   69.5240   72.2780 C.3   800  R23800      0.1182
     30  O2        68.3890   72.8750   70.9230 O.2   800  R23800     -0.2258
     31 CL31       71.5620   77.9300   73.4440 Cl    800  R23800     -0.0822
@<TRIPOS>BOND
     1     1     6    1
     2     1     2    1
     3     6     5    1
     4     2     3    1
     5     5     4    1
     6     3     4    1
     7     4     7    1
     8     7     8    1
     9     8    13   ar
    10     8     9   ar
    11    13    12   ar
    12     9    10   ar
    13    12    11   ar
    14    10    11   ar
    15    11    14    1
    16    19    14    1
    17    19    18    1
    18    14    15    1
    19    18    17    1
    20    15    16    1
    21    17    16    1
    22    17    20    1
    23    30    21    2
    24    20    21   am
    25    20    29    1
    26    21    22    1
    27    24    25   ar
    28    24    23   ar
    29    25    26   ar
    30    22    23    1
    31    23    28   ar
    32    26    31    1
    33    26    27   ar
    34    28    27   ar
