@<TRIPOS>MOLECULE
1o79_C8E_A_1.pdb
 21 20 0 0 0
SMALL
GASTEIGER

@<TRIPOS>ATOM
      1  C1        50.1350   92.4110   72.5270 C.3   700  C8E700      0.0000
      2  C2        50.0390   93.4910   71.5180 C.3   700  C8E700      0.0000
      3  C3        49.1850   93.0610   70.3990 C.3   700  C8E700      0.0000
      4  C4        50.0600   92.9880   69.2280 C.3   700  C8E700      0.0000
      5  C5        49.5820   91.8610   68.3800 C.3   700  C8E700      0.0001
      6  C6        49.2900   92.3190   67.0260 C.3   700  C8E700      0.0026
      7  C7        50.3310   91.7250   66.2120 C.3   700  C8E700      0.0321
      8  C8        51.2800   92.7480   65.6170 C.3   700  C8E700      0.1423
      9  O9        52.6750   92.2840   65.5710 O.3   700  C8E700     -0.3511
     10  C10       53.4450   92.7740   66.6730 C.3   700  C8E700      0.1741
     11  C11       54.6690   91.9320   66.8580 C.3   700  C8E700      0.1742
     12  O12       54.8200   91.2840   68.1490 O.3   700  C8E700     -0.3484
     13  C13       55.7250   90.1150   68.1090 C.3   700  C8E700      0.1742
     14  C14       55.4820   89.0350   69.1700 C.3   700  C8E700      0.1742
     15  O15       54.9460   87.7020   69.0620 O.3   700  C8E700     -0.3484
     16  C16       54.4970   87.3930   70.3870 C.3   700  C8E700      0.1742
     17  C17       53.1880   86.8060   70.6830 C.3   700  C8E700      0.1742
     18  O18       52.7090   87.0560   72.0640 O.3   700  C8E700     -0.3483
     19  C19       51.3140   87.2170   71.8640 C.3   700  C8E700      0.1777
     20  C20       50.5630   88.5490   72.2200 C.3   700  C8E700      0.2140
     21  O21       50.4680   89.4260   71.1040 O.3   700  C8E700     -0.2176
@<TRIPOS>BOND
     1     9     8    1
     2     9    10    1
     3     8     7    1
     4     7     6    1
     5    10    11    1
     6    11    12    1
     7     6     5    1
     8    13    12    1
     9    13    14    1
    10     5     4    1
    11    15    14    1
    12    15    16    1
    13     4     3    1
    14    16    17    1
    15     3     2    1
    16    17    18    1
    17    21    20    1
    18     2     1    1
    19    19    18    1
    20    19    20    1
