@<TRIPOS>MOLECULE
1o7a_GDL_A_1.pdb
 15 15 0 0 0
SMALL
GASTEIGER

@<TRIPOS>ATOM
      1  C1        71.8230   81.4290   26.7940 C.2   600  GDL600      0.3397
      2  C2        71.2070   80.3690   27.8930 C.3   600  GDL600      0.2261
      3  C3        71.2870   78.8030   27.3820 C.3   600  GDL600      0.2164
      4  C4        71.3320   78.7330   25.8180 C.3   600  GDL600      0.2267
      5  C5        72.4610   79.6150   25.3320 C.3   600  GDL600      0.2343
      6  C6        72.5920   79.5240   23.7830 C.3   600  GDL600      0.2281
      7  C7        73.2780   80.5070   29.3480 C.2   600  GDL600      0.2424
      8  C8        73.8100   80.7490   30.7800 C.3   600  GDL600      0.0964
      9  N1        71.9130   80.4840   29.2020 N.am  600  GDL600     -0.1930
     10  O1        71.7520   82.6240   27.1520 O.2   600  GDL600     -0.2481
     11  O3        70.1480   78.1210   27.8860 O.3   600  GDL600     -0.2178
     12  O4        71.5620   77.4000   25.4340 O.3   600  GDL600     -0.2163
     13  O5        72.3230   81.0380   25.6810 O.3   600  GDL600     -0.4455
     14  O6        73.8080   80.1880   23.4040 O.3   600  GDL600     -0.2163
     15  O7        74.0580   80.5410   28.3880 O.2   600  GDL600     -0.2733
@<TRIPOS>BOND
     1    14     6    1
     2     6     5    1
     3     5    13    1
     4     5     4    1
     5    12     4    1
     6    13     1    1
     7     4     3    1
     8     1    10    2
     9     1     2    1
    10     3    11    1
    11     3     2    1
    12     2     9    1
    13    15     7    2
    14     9     7   am
    15     7     8    1
