@<TRIPOS>MOLECULE
1o7d_BMA_C_1.pdb
 11 11 0 0 0
SMALL
GASTEIGER

@<TRIPOS>ATOM
      1  C1        82.0230   33.3430  118.3990 C.3     3  BMA3        0.1777
      2  C2        83.4550   33.2370  118.8900 C.3     3  BMA3        0.2141
      3  C3        83.5360   32.3630  120.1150 C.3     3  BMA3        0.2173
      4  C4        82.5830   32.8850  121.1730 C.3     3  BMA3        0.2142
      5  C5        81.1630   32.9490  120.5940 C.3     3  BMA3        0.1810
      6  C6        80.1330   33.5140  121.5580 C.3     3  BMA3        0.2141
      7  O2        83.9210   34.5280  119.2230 O.3     3  BMA3       -0.2176
      8  O3        84.8670   32.4300  120.6270 O.3     3  BMA3       -0.2175
      9  O4        82.6310   32.0430  122.3130 O.3     3  BMA3       -0.2176
     10  O5        81.1580   33.8060  119.4420 O.3     3  BMA3       -0.3481
     11  O6        80.6480   34.7210  122.1370 O.3     3  BMA3       -0.2176
@<TRIPOS>BOND
     1     1     2    1
     2     1    10    1
     3     2     7    1
     4     2     3    1
     5    10     5    1
     6     3     8    1
     7     3     4    1
     8     5     4    1
     9     5     6    1
    10     4     9    1
    11     6    11    1
