@<TRIPOS>MOLECULE
1o7d_MAN_C_1.pdb
 11 11 0 0 0
SMALL
GASTEIGER

@<TRIPOS>ATOM
      1  C1        76.4790   33.0880  130.0970 C.3   167  MAN167      0.1777
      2  C2        75.9070   33.0700  131.5190 C.3   167  MAN167      0.2141
      3  C3        76.8850   32.4020  132.4790 C.3   167  MAN167      0.2173
      4  C4        77.2100   31.0000  131.9610 C.3   167  MAN167      0.2142
      5  C5        77.8080   31.1320  130.5640 C.3   167  MAN167      0.1810
      6  C6        78.1390   29.8040  129.9270 C.3   167  MAN167      0.2141
      7  O2        74.6680   32.3780  131.5280 O.3   167  MAN167     -0.2176
      8  O3        76.3280   32.3470  133.7860 O.3   167  MAN167     -0.2175
      9  O4        78.1330   30.3520  132.8230 O.3   167  MAN167     -0.2176
     10  O5        76.8740   31.7870  129.6880 O.3   167  MAN167     -0.3481
     11  O6        78.8390   29.9880  128.7000 O.3   167  MAN167     -0.2176
@<TRIPOS>BOND
     1    11     6    1
     2    10     1    1
     3    10     5    1
     4     6     5    1
     5     1     2    1
     6     5     4    1
     7     2     7    1
     8     2     3    1
     9     4     3    1
    10     4     9    1
    11     3     8    1
