@<TRIPOS>MOLECULE
1o7g_NPY_A_1.pdb
 10 11 0 0 0
SMALL
GASTEIGER

@<TRIPOS>ATOM
      1  C1        13.1580   52.5510   80.4090 C.ar  1450  NPY1450     0.0000
      2  C2        12.8990   52.8380   81.7610 C.ar  1450  NPY1450     0.0000
      3  C3        13.1370   51.9110   82.7750 C.ar  1450  NPY1450     0.0000
      4  C4        13.6480   50.6540   82.4720 C.ar  1450  NPY1450     0.0000
      5  C4A       13.9420   50.3280   81.1580 C.ar  1450  NPY1450     0.0000
      6  C5        14.4870   49.0800   80.8390 C.ar  1450  NPY1450     0.0000
      7  C6        14.7560   48.7840   79.5070 C.ar  1450  NPY1450     0.0000
      8  C7        14.4940   49.7040   78.4840 C.ar  1450  NPY1450     0.0000
      9  C8        13.9690   50.9570   78.7530 C.ar  1450  NPY1450     0.0000
     10  C8A       13.6850   51.3060   80.0790 C.ar  1450  NPY1450     0.0000
@<TRIPOS>BOND
     1     8     9   ar
     2     8     7   ar
     3     9    10   ar
     4     7     6   ar
     5    10     1   ar
     6    10     5   ar
     7     1     2   ar
     8     6     5   ar
     9     5     4   ar
    10     2     3   ar
    11     4     3   ar
