@<TRIPOS>MOLECULE
1o7o_LAT_A_1.pdb
 23 24 0 0 0
SMALL
GASTEIGER

@<TRIPOS>ATOM
      1  C1         8.7040    8.3030   55.9750 C.3   1369  LAT1369     0.2695
      2  C2         8.6840    8.2880   54.4620 C.3   1369  LAT1369     0.2406
      3  C3         7.2240    8.4090   53.9840 C.3   1369  LAT1369     0.2198
      4  C4         6.4320    7.2260   54.5840 C.3   1369  LAT1369     0.2144
      5  C5         6.5220    7.2830   56.1310 C.3   1369  LAT1369     0.1835
      6  C6         5.7840    6.1310   56.7920 C.3   1369  LAT1369     0.2142
      7  O1        10.0360    8.1510   56.4260 O.3   1369  LAT1369    -0.3257
      8  O2         9.4520    9.3670   53.9180 O.3   1369  LAT1369    -0.2149
      9  O3         7.1960    8.3970   52.5700 O.3   1369  LAT1369    -0.2174
     10  O4         6.9800    5.9770   54.1390 O.3   1369  LAT1369    -0.2176
     11  O5         7.9280    7.2270   56.5420 O.3   1369  LAT1369    -0.3256
     12  O6         6.1400    6.0790   58.1700 O.3   1369  LAT1369    -0.2176
     13  C1'       12.1330    8.5170   60.0530 C.3   1369  LAT1369     0.3023
     14  C2'       10.7890    7.7600   60.1400 C.3   1369  LAT1369     0.2433
     15  C3'       10.4270    7.2880   58.7180 C.3   1369  LAT1369     0.2168
     16  C4'       10.3310    8.5230   57.8010 C.3   1369  LAT1369     0.1804
     17  C5'       11.6610    9.2980   57.7840 C.3   1369  LAT1369     0.1804
     18  C6'       11.5860   10.5940   56.9880 C.3   1369  LAT1369     0.2141
     19  O1'       12.4850    8.9730   61.3190 O.3   1369  LAT1369    -0.1869
     20  O2'       10.8790    6.6340   60.9750 O.3   1369  LAT1369    -0.2148
     21  O3'        9.2030    6.5720   58.7850 O.3   1369  LAT1369    -0.2175
     22  O5'       12.0140    9.6570   59.1530 O.3   1369  LAT1369    -0.3237
     23  O6'       12.7670   10.7740   56.2260 O.3   1369  LAT1369    -0.2176
@<TRIPOS>BOND
     1     9     3    1
     2     8     2    1
     3     3     2    1
     4     3     4    1
     5    10     4    1
     6     2     1    1
     7     4     5    1
     8     1     7    1
     9     1    11    1
    10     5    11    1
    11     5     6    1
    12    23    18    1
    13     7    16    1
    14     6    12    1
    15    18    17    1
    16    17    16    1
    17    17    22    1
    18    16    15    1
    19    15    21    1
    20    15    14    1
    21    22    13    1
    22    13    14    1
    23    13    19    1
    24    14    20    1
