@<TRIPOS>MOLECULE
1o7o_UDP_A_1.pdb
 25 26 0 0 0
SMALL
GASTEIGER

@<TRIPOS>ATOM
      1  N1         2.7980   12.2760   43.2600 N.am  1371  UDP1371    -0.1766
      2  C2         2.8580   13.2490   42.2550 C.1   1371  UDP1371     0.2845
      3  N3         2.4690   14.5290   42.6230 N.2   1371  UDP1371    -0.2452
      4  C4         2.0220   14.9360   43.9060 C.1   1371  UDP1371     0.2182
      5  C5         1.9800   13.8950   44.9040 C.2   1371  UDP1371     0.1242
      6  C6         2.3560   12.6400   44.5610 C.2   1371  UDP1371     0.0929
      7  O2         3.2340   12.9960   41.1040 O.2   1371  UDP1371    -0.1918
      8  O4         1.7160   16.1160   44.0590 O.2   1371  UDP1371    -0.2085
      9  C1'        3.2030   10.8640   42.9290 C.3   1371  UDP1371     0.2401
     10  C2'        4.7110   10.6500   42.7340 C.3   1371  UDP1371     0.2319
     11  O2'        4.9650    9.6070   41.8060 O.3   1371  UDP1371    -0.2157
     12  C3'        5.1590   10.3290   44.1570 C.3   1371  UDP1371     0.2158
     13  C4'        4.0310    9.4060   44.6430 C.3   1371  UDP1371     0.1799
     14  O4'        2.8340    9.9720   44.0030 O.3   1371  UDP1371    -0.3320
     15  O3'        6.4160    9.6420   44.0790 O.3   1371  UDP1371    -0.2175
     16  C5'        3.7950    9.4110   46.1830 C.3   1371  UDP1371     0.1813
     17  O5'        4.2510   10.6570   46.6870 O.3   1371  UDP1371    -0.3111
     18  PA         5.5370   11.0880   47.4820 P.3   1371  UDP1371     0.2231
     19  O1A        6.7130   10.5410   46.7570 O.2   1371  UDP1371    -0.5169
     20  O2A        5.4530   12.5810   47.6600 O.3   1371  UDP1371    -0.4370
     21  O3A        5.3350   10.2880   48.8260 O.3   1371  UDP1371    -0.2261
     22  PB         6.3900   10.0760   50.0050 P.3   1371  UDP1371     0.5373
     23  O1B        7.3570    8.9120   49.4600 O.2   1371  UDP1371    -0.2221
     24  O2B        5.5320    9.6400   51.1320 O.3   1371  UDP1371    -0.1143
     25  O3B        7.2980   11.2360   50.1610 O.3   1371  UDP1371    -0.1143
@<TRIPOS>BOND
     1     7     2    2
     2    11    10    1
     3     2     3    2
     4     2     1   am
     5     3     4    2
     6    10     9    1
     7    10    12    1
     8     9     1    1
     9     9    14    1
    10     1     6    1
    11     4     8    2
    12     4     5    1
    13    14    13    1
    14    15    12    1
    15    12    13    1
    16     6     5    2
    17    13    16    1
    18    16    17    1
    19    17    18    1
    20    19    18    2
    21    18    20    1
    22    18    21    1
    23    21    22    1
    24    23    22    2
    25    22    25    1
    26    22    24    1
