@<TRIPOS>MOLECULE
1o7p_NDH_A_1.pdb
 12 13 0 0 0
SMALL
GASTEIGER

@<TRIPOS>ATOM
      1  OH2       11.7010   53.0100   78.8580 O.3   1450  NDH1450    -0.2152
      2  C1        12.9460   52.6390   79.5420 C.3   1450  NDH1450     0.2086
      3  C2        12.9700   53.5890   80.7850 C.3   1450  NDH1450     0.2084
      4  OH1       11.7480   54.3710   80.6920 O.3   1450  NDH1450    -0.2152
      5  C3        13.1040   52.8270   82.1050 C.2   1450  NDH1450     0.0091
      6  C4        13.4380   51.5030   82.1410 C.2   1450  NDH1450    -0.0022
      7  C4A       13.9080   50.7460   80.8790 C.ar  1450  NDH1450    -0.0018
      8  C8A       13.6960   51.2980   79.5880 C.ar  1450  NDH1450     0.0106
      9  C8        14.0960   50.6380   78.4410 C.ar  1450  NDH1450    -0.0017
     10  C5        14.5780   49.5210   80.9780 C.ar  1450  NDH1450    -0.0002
     11  C6        15.0030   48.8750   79.8210 C.ar  1450  NDH1450    -0.0000
     12  C7        14.7590   49.4220   78.5600 C.ar  1450  NDH1450    -0.0002
@<TRIPOS>BOND
     1     9    12   ar
     2     9     8   ar
     3    12    11   ar
     4     1     2    1
     5     2     8    1
     6     2     3    1
     7     8     7   ar
     8    11    10   ar
     9     4     3    1
    10     3     5    1
    11     7    10   ar
    12     7     6    1
    13     5     6    2
