@<TRIPOS>MOLECULE
1o7q_GAL_A_1.pdb
 11 11 0 0 0
SMALL
GASTEIGER

@<TRIPOS>ATOM
      1  C1         8.5710    9.2240   55.9710 C.3   1372  GAL1372     0.1777
      2  C2         8.4650    9.1080   54.4680 C.3   1372  GAL1372     0.2141
      3  C3         6.9850    9.0280   54.0760 C.3   1372  GAL1372     0.2173
      4  C4         6.2980    7.8590   54.8190 C.3   1372  GAL1372     0.2142
      5  C5         6.4830    8.0400   56.3410 C.3   1372  GAL1372     0.1810
      6  C6         5.9180    6.8780   57.1500 C.3   1372  GAL1372     0.2141
      7  O2         9.0830   10.2590   53.8540 O.3   1372  GAL1372    -0.2176
      8  O3         6.9060    8.8310   52.6500 O.3   1372  GAL1372    -0.2175
      9  O4         6.8320    6.5900   54.3630 O.3   1372  GAL1372    -0.2176
     10  O5         7.9250    8.0870   56.5870 O.3   1372  GAL1372    -0.3481
     11  O6         6.1770    7.1330   58.5460 O.3   1372  GAL1372    -0.2176
@<TRIPOS>BOND
     1     8     3    1
     2     7     2    1
     3     3     2    1
     4     3     4    1
     5     9     4    1
     6     2     1    1
     7     4     5    1
     8     1    10    1
     9     5    10    1
    10     5     6    1
    11     6    11    1
