@<TRIPOS>MOLECULE
1o7q_UDP_A_1.pdb
 25 26 0 0 0
SMALL
GASTEIGER

@<TRIPOS>ATOM
      1  N1         2.9110   13.4620   43.3940 N.am  1374  UDP1374    -0.1766
      2  C2         2.9800   14.4150   42.4030 C.1   1374  UDP1374     0.2845
      3  N3         2.5840   15.7020   42.7390 N.2   1374  UDP1374    -0.2452
      4  C4         2.0300   16.1210   43.9600 C.1   1374  UDP1374     0.2182
      5  C5         2.0080   15.0790   45.0520 C.2   1374  UDP1374     0.1242
      6  C6         2.4250   13.7400   44.6830 C.2   1374  UDP1374     0.0929
      7  O2         3.3450   14.1160   41.2580 O.2   1374  UDP1374    -0.1918
      8  O4         1.7880   17.2820   44.1840 O.2   1374  UDP1374    -0.2085
      9  C1'        3.2220   12.0420   42.9710 C.3   1374  UDP1374     0.2401
     10  C2'        4.7460   11.9030   42.7400 C.3   1374  UDP1374     0.2319
     11  O2'        4.9780   10.7830   41.8690 O.3   1374  UDP1374    -0.2157
     12  C3'        5.2200   11.5450   44.1420 C.3   1374  UDP1374     0.2158
     13  C4'        4.1130   10.6340   44.6700 C.3   1374  UDP1374     0.1799
     14  O4'        2.8970   11.1780   44.0670 O.3   1374  UDP1374    -0.3320
     15  O3'        6.5140   10.9300   44.1210 O.3   1374  UDP1374    -0.2175
     16  C5'        3.9490   10.4950   46.1960 C.3   1374  UDP1374     0.1813
     17  O5'        4.0870   11.7940   46.8300 O.3   1374  UDP1374    -0.3111
     18  PA         5.4430   12.1400   47.5740 P.3   1374  UDP1374     0.2231
     19  O1A        6.5890   11.4690   46.8800 O.2   1374  UDP1374    -0.5169
     20  O2A        5.5000   13.6330   47.6920 O.3   1374  UDP1374    -0.4370
     21  O3A        5.2210   11.4840   49.0360 O.3   1374  UDP1374    -0.2261
     22  PB         6.4570   11.1790   50.0790 P.3   1374  UDP1374     0.5373
     23  O1B        7.2350   10.0170   49.4660 O.2   1374  UDP1374    -0.2221
     24  O2B        5.7310   10.7820   51.3380 O.3   1374  UDP1374    -0.1143
     25  O3B        7.2830   12.4370   50.1560 O.3   1374  UDP1374    -0.1143
@<TRIPOS>BOND
     1     7     2    2
     2    11    10    1
     3     2     3    2
     4     2     1   am
     5     3     4    2
     6    10     9    1
     7    10    12    1
     8     9     1    1
     9     9    14    1
    10     1     6    1
    11     4     8    2
    12     4     5    1
    13    14    13    1
    14    15    12    1
    15    12    13    1
    16    13    16    1
    17     6     5    2
    18    16    17    1
    19    17    18    1
    20    19    18    2
    21    18    20    1
    22    18    21    1
    23    21    22    1
    24    23    22    2
    25    22    25    1
    26    22    24    1
