@<TRIPOS>MOLECULE
1o7q_NAG_A_1.pdb
 15 15 0 0 0
SMALL
GASTEIGER

@<TRIPOS>ATOM
      1  C1        12.3870   10.1460   59.5670 C.3   1373  NAG1373     0.2917
      2  C2        11.2670    9.1120   59.8200 C.3   1373  NAG1373     0.1871
      3  C3        10.7650    8.5400   58.5010 C.3   1373  NAG1373     0.2095
      4  C4        10.3300    9.6660   57.5710 C.3   1373  NAG1373     0.2136
      5  C5        11.5260   10.6150   57.3330 C.3   1373  NAG1373     0.1835
      6  C6        11.1370   11.7820   56.4210 C.3   1373  NAG1373     0.2142
      7  C7        11.5570    7.8020   61.9560 C.2   1373  NAG1373     0.2421
      8  C8        12.3210    6.6470   62.6210 C.3   1373  NAG1373     0.0964
      9  N2        11.8890    8.0870   60.6880 N.am  1373  NAG1373    -0.1991
     10  O1        12.7200   10.8060   60.7790 O.3   1373  NAG1373    -0.1879
     11  O3         9.6860    7.6410   58.7770 O.3   1373  NAG1373    -0.2183
     12  O4         9.9520    9.1030   56.2940 O.3   1373  NAG1373    -0.2176
     13  O5        11.8880   11.1590   58.6280 O.3   1373  NAG1373    -0.3242
     14  O6        12.2800   12.6360   56.2400 O.3   1373  NAG1373    -0.2176
     15  O7        10.7270    8.4680   62.5450 O.2   1373  NAG1373    -0.2733
@<TRIPOS>BOND
     1    14     6    1
     2    12     4    1
     3     6     5    1
     4     5     4    1
     5     5    13    1
     6     4     3    1
     7     3    11    1
     8     3     2    1
     9    13     1    1
    10     1     2    1
    11     1    10    1
    12     2     9    1
    13     9     7   am
    14     7    15    2
    15     7     8    1
