@<TRIPOS>MOLECULE
1o7t_PHF_G_1.pdb
 29 32 0 0 0
SMALL
GASTEIGER

@<TRIPOS>ATOM
      1 HFA       -10.5010  -11.8700    9.6450 Hf    1310  PHF1310     0.0000
      2  O01      -12.0020  -10.2960    9.4700 O.3   1310  PHF1310     0.0000
      3  O02       -9.9560   -9.9530    8.2050 O.3   1310  PHF1310     0.0000
      4  OAE      -12.1700  -12.5200   11.4790 O.3   1310  PHF1310     0.0000
      5  OA1       -9.6670  -13.3950   11.5030 O.3   1310  PHF1310     0.0000
      6  OAB       -9.0160  -12.3440    7.7900 O.3   1310  PHF1310     0.0000
      7 HFB        -8.4030  -10.0130    6.3280 Hf    1310  PHF1310     0.0000
      8  OBC       -8.3430   -8.5190    7.2750 O.3   1310  PHF1310     0.0000
      9  OBD      -10.5860   -9.8320    5.4540 O.3   1310  PHF1310     0.0000
     10  OB1       -8.8600  -11.1530    4.5130 O.3   1310  PHF1310     0.0000
     11  OB2       -7.7610   -8.1910    5.1540 O.3   1310  PHF1310     0.0000
     12  OB3       -6.3140  -10.2230    5.9360 O.3   1310  PHF1310     0.0000
     13 HFC        -9.7160   -7.7280    8.8100 Hf    1310  PHF1310     0.0000
     14  OCD      -11.5890   -8.2610    7.6900 O.3   1310  PHF1310     0.0000
     15  OC1       -9.8170   -5.5390    7.2180 O.3   1310  PHF1310     0.0000
     16  OC2      -11.7440   -6.2770    9.8570 O.3   1310  PHF1310     0.0000
     17  OC3      -11.1390   -8.4310   10.8560 O.3   1310  PHF1310     0.0000
     18 HFD       -12.3410  -10.0060    7.2350 Hf    1310  PHF1310     0.0000
     19  ODE      -14.6170   -9.7980    8.2550 O.3   1310  PHF1310     0.0000
     20  OD1      -13.8160   -9.2310    5.7830 O.3   1310  PHF1310     0.0000
     21 HFE       -13.9210  -11.1990   10.2040 Hf    1310  PHF1310     0.0000
     22  OE1      -13.2390   -9.3140   11.8360 O.3   1310  PHF1310     0.0000
     23  OE2      -16.0730  -10.9790   10.1310 O.3   1310  PHF1310     0.0000
     24  OE3      -14.6610  -12.8700   12.0260 O.3   1310  PHF1310     0.0000
     25  P        -12.9120  -13.5070    7.7200 P.3   1310  PHF1310     0.0000
     26  O1       -13.8620  -12.7890    8.7910 O.3   1310  PHF1310     0.0000
     27  O2       -12.7190  -12.1070    6.8370 O.3   1310  PHF1310     0.0000
     28  O3       -11.6750  -13.4690    8.4370 O.3   1310  PHF1310     0.0000
     29  O4       -13.2650  -14.8260    6.9580 O.2   1310  PHF1310     0.0000
@<TRIPOS>BOND
     1    10     7    1
     2    11     7    1
     3     9     7    1
     4     9    18    1
     5    20    18    1
     6    12     7    1
     7     7     8    1
     8     7     3    1
     9    27    18    1
    10    27    25    1
    11    29    25    2
    12    15    13    1
    13    18    14    1
    14    18    19    1
    15     8    13    1
    16    14    13    1
    17    25    28    1
    18    25    26    1
    19     6     1    1
    20     3    13    1
    21    19    21    1
    22    28     1    1
    23    26    21    1
    24    13    16    1
    25    13    17    1
    26     2     1    1
    27     2    21    1
    28     1     4    1
    29     1     5    1
    30    23    21    1
    31    21     4    1
    32    21    24    1
