@<TRIPOS>MOLECULE
1o7t_HF3_D_1.pdb
 19 22 0 0 0
SMALL
GASTEIGER

@<TRIPOS>ATOM
      1  OB3       48.7200   -9.0220   19.4220 O.3   1310  HF31310     0.0000
      2  OB1       46.1670   -8.9010   16.8380 O.3   1310  HF31310     0.0000
      3  OB2       46.8240  -11.8850   18.7760 O.3   1310  HF31310     0.0000
      4 HFA        48.5290  -12.4480   14.2310 Hf    1310  HF31310     0.0000
      5  O00       48.8280  -10.6760   15.3800 O.3   1310  HF31310     0.0000
      6  OAB       47.1410  -12.4420   16.2230 O.3   1310  HF31310     0.0000
      7  OAC       50.4460  -11.2610   13.3120 O.3   1310  HF31310     0.0000
      8  OA2       49.9580  -13.7520   12.7710 O.3   1310  HF31310     0.0000
      9  OA1       47.2020  -14.6300   14.7570 O.3   1310  HF31310     0.0000
     10 HFB        48.0420  -10.4640   17.3620 Hf    1310  HF31310     0.0000
     11  OBC       49.6380   -8.7790   17.2680 O.3   1310  HF31310     0.0000
     12 HFC        50.5360   -9.4670   14.9600 Hf    1310  HF31310     0.0000
     13  OC1       52.2960   -7.9930   16.2110 O.3   1310  HF31310     0.0000
     14  OC2       52.2000   -9.9720   12.9880 O.3   1310  HF31310     0.0000
     15  P         50.8620  -12.4170   16.6440 P.3   1310  HF31310     0.0000
     16  O1        50.1720  -13.3160   15.4650 O.3   1310  HF31310     0.0000
     17  O2        49.7170  -11.9090   17.6650 O.3   1310  HF31310     0.0000
     18  O3        51.5910  -11.1380   15.9970 O.3   1310  HF31310     0.0000
     19  O4        51.8640  -13.2390   17.3800 O.2   1310  HF31310     0.0000
@<TRIPOS>BOND
     1     8     4    1
     2    14    12    1
     3     7     4    1
     4     7    12    1
     5     4     9    1
     6     4     5    1
     7     4    16    1
     8     4     6    1
     9    12     5    1
    10    12    18    1
    11    12    13    1
    12    12    11    1
    13    16    15    1
    14    18    15    1
    15     6    10    1
    16    15    19    2
    17    15    17    1
    18     2    10    1
    19    11    10    1
    20    10    17    1
    21    10     3    1
    22    10     1    1
