@<TRIPOS>MOLECULE
1o7t_HF5_A_1.pdb
 26 29 0 0 0
SMALL
GASTEIGER

@<TRIPOS>ATOM
      1  OBD       12.2090   52.3450  -17.3890 O.3   1310  HF51310     0.0000
      2 HFA        10.8100   51.8340  -13.3390 Hf    1310  HF51310     0.0000
      3  O00       12.5220   51.0190  -14.3880 O.3   1310  HF51310     0.0000
      4  OAB       10.2040   50.4600  -15.3110 O.3   1310  HF51310     0.0000
      5  OAC       12.8210   52.8020  -12.2480 O.3   1310  HF51310     0.0000
      6  OAD       10.6220   53.3900  -14.9550 O.3   1310  HF51310     0.0000
      7  OAE       10.5400   53.8090  -11.8770 O.3   1310  HF51310     0.0000
      8  OA1        8.7510   50.4220  -13.6810 O.3   1310  HF51310     0.0000
      9 HFB        12.3910   50.3360  -16.5040 Hf    1310  HF51310     0.0000
     10  OBC       14.7470   50.9220  -16.2560 O.3   1310  HF51310     0.0000
     11  OB1       12.5160   47.7500  -16.3860 O.3   1310  HF51310     0.0000
     12  OB2        9.9740   50.4620  -17.8640 O.3   1310  HF51310     0.0000
     13  OB3       14.2840   50.0970  -18.3870 O.3   1310  HF51310     0.0000
     14 HFC        14.4800   51.9880  -14.0210 Hf    1310  HF51310     0.0000
     15  OCD       14.3710   54.1600  -14.6110 O.3   1310  HF51310     0.0000
     16  OC1       16.8370   52.6250  -14.7150 O.3   1310  HF51310     0.0000
     17  OC2       15.1200   54.1660  -11.7850 O.3   1310  HF51310     0.0000
     18 HFD        12.1410   54.2140  -15.7840 Hf    1310  HF51310     0.0000
     19  ODE       11.7860   56.1170  -14.3490 O.3   1310  HF51310     0.0000
     20  OD1       13.6050   55.2170  -17.8420 O.3   1310  HF51310     0.0000
     21  OD2       11.1750   56.1870  -17.3190 O.3   1310  HF51310     0.0000
     22 HFE        10.5810   56.2750  -12.6250 Hf    1310  HF51310     0.0000
     23  OE1       12.5780   56.6750  -11.3780 O.3   1310  HF51310     0.0000
     24  OE2        8.7980   55.1400  -13.9580 O.3   1310  HF51310     0.0000
     25  OE3        9.7480   58.4960  -13.2640 O.3   1310  HF51310     0.0000
     26  OE4        8.7980   56.5870  -10.9390 O.3   1310  HF51310     0.0000
@<TRIPOS>BOND
     1    13     9    1
     2    12     9    1
     3    20    18    1
     4     1     9    1
     5     1    18    1
     6    21    18    1
     7     9    11    1
     8     9    10    1
     9     9     4    1
    10    10    14    1
    11    18     6    1
    12    18    15    1
    13    18    19    1
    14     4     2    1
    15     6     2    1
    16    16    14    1
    17    15    14    1
    18     3    14    1
    19     3     2    1
    20    19    22    1
    21    14     5    1
    22    24    22    1
    23     8     2    1
    24     2     5    1
    25     2     7    1
    26    25    22    1
    27    22     7    1
    28    22    23    1
    29    22    26    1
