@<TRIPOS>MOLECULE
1o84_MAL_A_1.pdb
 23 24 0 0 0
SMALL
GASTEIGER

@<TRIPOS>ATOM
      1  C1        11.8870   27.0750    6.6650 C.3   1073  MAL1073     0.2695
      2  C2        12.4230   27.1510    8.1220 C.3   1073  MAL1073     0.2406
      3  C3        11.3270   26.8260    9.1690 C.3   1073  MAL1073     0.2198
      4  C4        10.0110   27.5800    8.8430 C.3   1073  MAL1073     0.2144
      5  C5         9.5630   27.4860    7.3520 C.3   1073  MAL1073     0.1835
      6  C6         8.5070   28.5410    6.9200 C.3   1073  MAL1073     0.2142
      7  O1        11.5760   25.7270    6.2420 O.3   1073  MAL1073    -0.3257
      8  O2        13.6000   26.3410    8.3340 O.3   1073  MAL1073    -0.2149
      9  O3        11.8790   27.1920   10.4590 O.3   1073  MAL1073    -0.2174
     10  O4         8.9920   27.1970    9.7710 O.3   1073  MAL1073    -0.2176
     11  O5        10.6770   27.8460    6.5200 O.3   1073  MAL1073    -0.3256
     12  O6         7.2290   27.9750    6.6200 O.3   1073  MAL1073    -0.2176
     13  C1'       15.2190   23.9800    4.9200 C.3   1073  MAL1073     0.3023
     14  C2'       14.7650   25.2830    4.2350 C.3   1073  MAL1073     0.2433
     15  C3'       13.7130   25.9930    5.1130 C.3   1073  MAL1073     0.2168
     16  C4'       12.4970   25.0610    5.3450 C.3   1073  MAL1073     0.1804
     17  C5'       12.9700   23.6760    5.9300 C.3   1073  MAL1073     0.1804
     18  C6'       11.8750   22.5890    6.1600 C.3   1073  MAL1073     0.2141
     19  O1'       16.2610   23.3680    4.1200 O.3   1073  MAL1073    -0.1869
     20  O2'       15.8930   26.1200    3.9390 O.3   1073  MAL1073    -0.2148
     21  O3'       13.3310   27.3140    4.6590 O.3   1073  MAL1073    -0.2175
     22  O5'       14.0660   23.1000    5.1500 O.3   1073  MAL1073    -0.3237
     23  O6'       12.0080   21.9950    7.4650 O.3   1073  MAL1073    -0.2176
@<TRIPOS>BOND
     1    20    14    1
     2    19    13    1
     3    14    13    1
     4    14    15    1
     5    21    15    1
     6    13    22    1
     7    15    16    1
     8    22    17    1
     9    16    17    1
    10    16     7    1
    11    17    18    1
    12    18    23    1
    13     7     1    1
    14    11     1    1
    15    11     5    1
    16    12     6    1
    17     1     2    1
    18     6     5    1
    19     5     4    1
    20     2     8    1
    21     2     3    1
    22     4     3    1
    23     4    10    1
    24     3     9    1
