@<TRIPOS>MOLECULE
1o86_LPR_A_1.pdb
 29 30 0 0 0
SMALL
GASTEIGER

@<TRIPOS>ATOM
      1  O2        43.3690   36.2010   48.2690 O.co2 702  LPR702     -0.2437
      2  O3        41.9390   37.2830   47.0690 O.co2 702  LPR702     -0.2437
      3  C3        42.2590   36.2670   47.6540 C.2   702  LPR702      0.3844
      4  C4        41.3150   35.0650   47.6820 C.3   702  LPR702      0.1984
      5  C14       40.5860   35.3650   48.9320 C.2   702  LPR702      0.0022
      6  C15       39.4080   36.2990   49.1630 C.2   702  LPR702     -0.0026
      7  C16       38.8470   36.4010   50.5490 C.ar  702  LPR702     -0.0003
      8  C17       38.5660   35.2060   51.3310 C.ar  702  LPR702     -0.0000
      9  C18       38.0160   35.3190   52.6560 C.ar  702  LPR702     -0.0000
     10  C19       37.7370   36.6270   53.2180 C.ar  702  LPR702     -0.0000
     11  C20       38.0140   37.8220   52.4430 C.ar  702  LPR702     -0.0000
     12  C21       38.5680   37.7100   51.1120 C.ar  702  LPR702     -0.0000
     13  N1        41.8970   34.0630   47.2660 N.3   702  LPR702     -0.1964
     14  N3        43.3290   27.7740   44.0870 N.3   702  LPR702     -0.1314
     15  C1        41.5020   34.0520   44.8400 C.2   702  LPR702      0.2423
     16  C2        42.6120   33.8520   45.9430 C.3   702  LPR702      0.1498
     17  O1        40.2910   33.7430   45.1200 O.2   702  LPR702     -0.2733
     18  C10       43.2520   32.4730   45.7840 C.3   702  LPR702      0.0268
     19  C11       42.4840   31.2480   45.5360 C.3   702  LPR702      0.0035
     20  C12       43.2960   30.0620   44.8420 C.3   702  LPR702      0.0206
     21  C13       42.4870   28.8950   44.6290 C.3   702  LPR702      0.1093
     22  O4        38.8430   33.3680   41.8670 O.co2 702  LPR702     -0.2434
     23  O5        40.7030   32.2720   42.3260 O.co2 702  LPR702     -0.2434
     24  N2        41.8100   34.5330   43.5990 N.am  702  LPR702     -0.2627
     25  C5        40.7150   34.6850   42.5590 C.3   702  LPR702      0.2018
     26  C6        41.5050   35.2370   41.3530 C.2   702  LPR702      0.0019
     27  C7        42.8260   35.3690   41.6800 C.2   702  LPR702     -0.0070
     28  C8        43.1380   34.9560   43.0620 C.3   702  LPR702      0.1204
     29  C9        40.0810   33.2840   42.2240 C.2   702  LPR702      0.3867
@<TRIPOS>BOND
     1    26    27    2
     2    26    25    1
     3    27    28    1
     4    22    29   ar
     5    29    23   ar
     6    29    25    1
     7    25    24    1
     8    28    24    1
     9    24    15   am
    10    14    21    1
    11    21    20    1
    12    15    17    2
    13    15    16    1
    14    20    19    1
    15    19    18    1
    16    18    16    1
    17    16    13    1
    18     2     3   ar
    19    13     4    1
    20     3     4    1
    21     3     1   ar
    22     4     5    1
    23     5     6    2
    24     6     7    1
    25     7    12   ar
    26     7     8   ar
    27    12    11   ar
    28     8     9   ar
    29    11    10   ar
    30     9    10   ar
