@<TRIPOS>MOLECULE
1o87_GDP_A_1.pdb
 28 30 0 0 0
SMALL
GASTEIGER

@<TRIPOS>ATOM
      1  PB        15.2650    8.2990  -11.3710 P.3   1299  GDP1299     0.5373
      2  O1B       14.2560    8.3800  -12.5080 O.2   1299  GDP1299    -0.2221
      3  O2B       16.8260    8.3270  -11.9290 O.3   1299  GDP1299    -0.1143
      4  O3B       14.9520    6.9330  -10.4790 O.3   1299  GDP1299    -0.1143
      5  O3A       15.0650    9.5990  -10.5250 O.3   1299  GDP1299    -0.2261
      6  PA        13.7130   10.3690  -10.4400 P.3   1299  GDP1299     0.2231
      7  O1A       12.5760    9.3910  -10.1820 O.3   1299  GDP1299    -0.4370
      8  O2A       13.3060   11.4050  -11.6870 O.2   1299  GDP1299    -0.5169
      9  O5'       13.9180   11.2580   -9.1160 O.3   1299  GDP1299    -0.3111
     10  C5'       14.5160   10.7110   -7.9390 C.3   1299  GDP1299     0.1813
     11  C4'       14.2420   11.6340   -6.7640 C.3   1299  GDP1299     0.1799
     12  O4'       15.0040   12.8500   -6.8490 O.3   1299  GDP1299    -0.3326
     13  C3'       12.8050   12.1150   -6.7210 C.3   1299  GDP1299     0.2158
     14  O3'       12.4680   12.2750   -5.3340 O.3   1299  GDP1299    -0.2175
     15  C2'       12.8100   13.4930   -7.3900 C.3   1299  GDP1299     0.2310
     16  O2'       11.7870   14.3930   -6.9440 O.3   1299  GDP1299    -0.2158
     17  C1'       14.1650   14.0090   -6.9780 C.3   1299  GDP1299     0.2293
     18  N9        14.9050   14.9500   -7.8450 N.pl3 1299  GDP1299    -0.2354
     19  C8        15.2860   14.8410   -9.1170 C.3   1299  GDP1299     0.2246
     20  N7        16.0460   15.9020   -9.4980 N.2   1299  GDP1299    -0.2322
     21  C5        16.1670   16.7090   -8.4640 C.2   1299  GDP1299     0.2182
     22  C6        16.7920   18.0120   -8.1920 C.1   1299  GDP1299     0.2372
     23  O6        17.4680   18.6610   -9.0460 O.2   1299  GDP1299    -0.2069
     24  N1        16.6340   18.4860   -6.9590 N.2   1299  GDP1299    -0.2485
     25  C2        15.9100   17.8400   -6.0250 C.1   1299  GDP1299     0.2531
     26  N2        15.7980   18.3700   -4.8140 N.pl3 1299  GDP1299    -0.0226
     27  N3        15.3060   16.6630   -6.2010 N.2   1299  GDP1299    -0.3074
     28  C4        15.4070   16.0720   -7.3770 C.2   1299  GDP1299     0.2300
@<TRIPOS>BOND
     1     2     1    2
     2     3     1    1
     3     8     6    2
     4     1     5    1
     5     1     4    1
     6     5     6    1
     7     6     7    1
     8     6     9    1
     9    20    19    1
    10    20    21    2
    11    19    18    1
    12     9    10    1
    13    23    22    2
    14    21    22    1
    15    21    28    1
    16    22    24    2
    17    10    11    1
    18    18    28    1
    19    18    17    1
    20    15    17    1
    21    15    16    1
    22    15    13    1
    23    28    27    2
    24    17    12    1
    25    24    25    2
    26    12    11    1
    27    11    13    1
    28    13    14    1
    29    27    25    2
    30    25    26    1
