@<TRIPOS>MOLECULE
1o8b_ABF_A_1.pdb
 14 14 0 0 0
SMALL
GASTEIGER

@<TRIPOS>ATOM
      1  C1'        0.6630   -4.9800    1.2720 C.3   1269  ABF1269     0.3074
      2  O1'        0.4110   -6.4130    1.3660 O.3   1269  ABF1269    -0.3185
      3  C2'        0.4150   -4.4570    2.5050 C.3   1269  ABF1269     0.2698
      4  O2'        0.4240   -3.1760    2.7380 O.3   1269  ABF1269    -0.2094
      5  C3'       -0.4830   -5.2770    3.1150 C.2   1269  ABF1269     0.2154
      6  O3'       -0.5770   -5.3040    4.3740 O.2   1269  ABF1269    -0.2906
      7  C4'       -0.5590   -6.4580    2.4310 C.3   1269  ABF1269     0.2075
      8  C5'       -1.8990   -6.9600    1.9000 C.3   1269  ABF1269     0.1909
      9  O5'       -1.7400   -8.3360    1.4750 O.3   1269  ABF1269    -0.2671
     10  P'        -2.8900   -9.2380    0.8040 P.3   1269  ABF1269     0.5327
     11  O1X       -4.1190   -9.2330    1.6790 O.3   1269  ABF1269    -0.1145
     12  O2X       -3.2350   -8.6880   -0.5730 O.2   1269  ABF1269    -0.2224
     13  O3X       -2.2090  -10.5880    0.7990 O.3   1269  ABF1269    -0.1145
     14  O1         0.0510   -4.4870    0.2720 O.3   1269  ABF1269    -0.1865
@<TRIPOS>BOND
     1    12    10    2
     2    14     1    1
     3    13    10    1
     4    10     9    1
     5    10    11    1
     6     1     2    1
     7     1     3    1
     8     2     7    1
     9     9     8    1
    10     8     7    1
    11     7     5    1
    12     3     4    1
    13     3     5    1
    14     5     6    2
