@<TRIPOS>MOLECULE
1o8c_NDP_A_1.pdb
 48 52 0 0 0
SMALL
GASTEIGER

@<TRIPOS>ATOM
      1  PA        35.6400  114.9660    5.9040 P.3   1325  NDP1325     0.2189
      2  O1A       35.8170  116.4110    6.1540 O.3   1325  NDP1325    -0.4371
      3  O2A       34.1890  114.5430    5.6530 O.2   1325  NDP1325    -0.5170
      4  O5B       36.1350  114.1600    7.1720 O.3   1325  NDP1325    -0.3112
      5  C5B       37.4370  114.3400    7.6610 C.3   1325  NDP1325     0.1813
      6  C4B       37.3430  114.2650    9.1670 C.3   1325  NDP1325     0.1820
      7  O4B       38.5780  114.6470    9.7240 O.3   1325  NDP1325    -0.3136
      8  C3B       36.2940  115.1990    9.7800 C.3   1325  NDP1325     0.2157
      9  O3B       34.9850  114.6790    9.8150 O.3   1325  NDP1325    -0.2175
     10  C2B       36.8600  115.3910   11.1640 C.3   1325  NDP1325     0.2314
     11  O2B       36.3560  114.3880   12.0060 O.3   1325  NDP1325    -0.2630
     12  C1B       38.3620  115.2480   10.9710 C.3   1325  NDP1325     0.3158
     13  N9A       39.0390  116.5470   10.9380 N.pl3 1325  NDP1325    -0.1439
     14  C8A       38.6310  117.6880   10.3050 C.3   1325  NDP1325     0.3377
     15  N7A       39.5410  118.6550   10.5250 N.2   1325  NDP1325    -0.2095
     16  C5A       40.5310  118.1490   11.2810 C.2   1325  NDP1325     0.2526
     17  C6A       41.6930  118.7190   11.7890 C.2   1325  NDP1325     0.4393
     18  N6A       41.9200  120.0140   11.6020 N.pl3 1325  NDP1325     0.2180
     19  N1A       42.5420  117.9590   12.5530 N.2   1325  NDP1325     0.0021
     20  C2A       42.2190  116.6350   12.7890 C.3   1325  NDP1325     0.5254
     21  N3A       41.0660  116.0720   12.2960 N.2   1325  NDP1325    -0.0055
     22  C4A       40.2310  116.8240   11.5490 C.2   1325  NDP1325     0.3518
     23  O3        36.6000  114.6180    4.6690 O.3   1325  NDP1325    -0.2703
     24  PN        36.5160  113.2620    3.8170 P.3   1325  NDP1325     0.2189
     25  O1N       35.9650  112.2130    4.6830 O.3   1325  NDP1325    -0.4371
     26  O2N       35.8810  113.4810    2.5080 O.2   1325  NDP1325    -0.5170
     27  O5D       38.0500  112.9400    3.5120 O.3   1325  NDP1325    -0.3112
     28  C5D       39.0420  112.7940    4.5100 C.3   1325  NDP1325     0.1813
     29  C4D       40.4110  112.6490    3.8520 C.3   1325  NDP1325     0.1799
     30  O4D       40.3760  111.6050    2.8800 O.3   1325  NDP1325    -0.3327
     31  C3D       40.7700  113.9260    3.1090 C.3   1325  NDP1325     0.2158
     32  O3D       42.0380  114.4050    3.4660 O.3   1325  NDP1325    -0.2175
     33  C2D       40.7620  113.5440    1.6420 C.3   1325  NDP1325     0.2309
     34  O2D       41.7800  114.2190    0.9370 O.3   1325  NDP1325    -0.2158
     35  C1D       41.0320  112.0560    1.7150 C.3   1325  NDP1325     0.2263
     36  N1N       40.6540  111.3770    0.4910 N.pl3 1325  NDP1325    -0.2787
     37  C2N       41.6330  111.2270   -0.4480 C.3   1325  NDP1325     0.1244
     38  C3N       41.3930  110.5860   -1.6500 C.2   1325  NDP1325     0.0544
     39  C7N       42.4930  110.4190   -2.6660 C.2   1325  NDP1325     0.2818
     40  O7N       42.2080  109.7840   -3.8770 O.2   1325  NDP1325    -0.2670
     41  N7N       43.7290  110.8700   -2.4700 N.am  1325  NDP1325    -0.0839
     42  C4N       40.1090  110.1100   -1.8790 C.2   1325  NDP1325     0.0033
     43  C5N       39.0510  110.2930   -0.8350 C.2   1325  NDP1325     0.0157
     44  C6N       39.3840  110.9330    0.3350 C.2   1325  NDP1325     0.0633
     45  P2B       36.2150  114.5660   13.6000 P.3   1325  NDP1325     0.5328
     46  O1X       35.5190  113.3570   14.1050 O.3   1325  NDP1325    -0.1145
     47  O2X       37.5910  114.7100   14.2710 O.3   1325  NDP1325    -0.1145
     48  O3X       35.3870  115.8280   13.8780 O.2   1325  NDP1325    -0.2224
@<TRIPOS>BOND
     1    40    39    2
     2    39    41   am
     3    39    38    1
     4    42    38    2
     5    42    43    1
     6    38    37    1
     7    43    44    2
     8    37    36    1
     9    44    36    1
    10    36    35    1
    11    34    33    1
    12    33    35    1
    13    33    31    1
    14    35    30    1
    15    26    24    2
    16    30    29    1
    17    31    32    1
    18    31    29    1
    19    27    24    1
    20    27    28    1
    21    24    23    1
    22    24    25    1
    23    29    28    1
    24    23     1    1
    25     3     1    2
    26     1     2    1
    27     1     4    1
    28     4     5    1
    29     5     6    1
    30     6     7    1
    31     6     8    1
    32     7    12    1
    33     8     9    1
    34     8    10    1
    35    14    15    1
    36    14    13    1
    37    15    16    2
    38    13    12    1
    39    13    22    1
    40    12    10    1
    41    10    11    1
    42    16    22    1
    43    16    17    1
    44    22    21    2
    45    18    17    1
    46    17    19    2
    47    11    45    1
    48    21    20    1
    49    19    20    1
    50    45    48    2
    51    45    46    1
    52    45    47    1
