@<TRIPOS>MOLECULE
1o8s_BGC_A_1.pdb
 11 11 0 0 0
SMALL
GASTEIGER

@<TRIPOS>ATOM
      1  C2        -6.3900   48.3320   18.4370 C.3   1150  BGC1150     0.2141
      2  C3        -6.6920   48.7560   17.0270 C.3   1150  BGC1150     0.2173
      3  C4        -8.1570   48.6240   16.6470 C.3   1150  BGC1150     0.2142
      4  C5        -9.0370   49.2310   17.7000 C.3   1150  BGC1150     0.1810
      5  C6       -10.5000   49.0290   17.3370 C.3   1150  BGC1150     0.2141
      6  C1        -7.4060   48.9510   19.3850 C.3   1150  BGC1150     0.1777
      7  O2        -5.0490   48.6810   18.7640 O.3   1150  BGC1150    -0.2176
      8  O3        -5.8720   48.0290   16.1650 O.3   1150  BGC1150    -0.2175
      9  O4        -8.3480   49.2760   15.4310 O.3   1150  BGC1150    -0.2176
     10  O5        -8.7210   48.6490   18.9240 O.3   1150  BGC1150    -0.3481
     11  O6       -11.2980   49.5970   18.3470 O.3   1150  BGC1150    -0.2176
@<TRIPOS>BOND
     1     9     3    1
     2     8     2    1
     3     3     2    1
     4     3     4    1
     5     2     1    1
     6     5     4    1
     7     5    11    1
     8     4    10    1
     9     1     7    1
    10     1     6    1
    11    10     6    1
