@<TRIPOS>MOLECULE
1o8v_PLM_A_1.pdb
 18 17 0 0 0
SMALL
GASTEIGER

@<TRIPOS>ATOM
      1  C1         3.2480   -1.9120   11.8590 C.2   1136  PLM1136     0.3649
      2  O1         3.0080   -2.6350   12.9030 O.co2 1136  PLM1136    -0.2457
      3  O2         3.9880   -0.8360   12.0360 O.co2 1136  PLM1136    -0.2457
      4  C2         2.6600   -2.3370   10.5160 C.3   1136  PLM1136     0.1141
      5  C3         3.7090   -2.4740    9.4230 C.3   1136  PLM1136     0.0118
      6  C4         3.0490   -3.0970    8.1900 C.3   1136  PLM1136     0.0006
      7  C5         4.0290   -3.1470    7.0240 C.3   1136  PLM1136     0.0000
      8  C6         3.3900   -3.6370    5.7150 C.3   1136  PLM1136     0.0000
      9  C7         2.8620   -5.0740    5.7150 C.3   1136  PLM1136     0.0000
     10  C8         3.9440   -6.0210    5.2590 C.3   1136  PLM1136     0.0000
     11  C9         3.5830   -7.4930    5.3710 C.3   1136  PLM1136     0.0000
     12  CA         4.8360   -8.3130    5.6190 C.3   1136  PLM1136     0.0000
     13  CB         4.7490   -9.2080    6.8270 C.3   1136  PLM1136     0.0000
     14  CC         6.0470   -9.9440    7.1540 C.3   1136  PLM1136     0.0000
     15  CD         6.2340  -10.0850    8.6490 C.3   1136  PLM1136     0.0000
     16  CE         7.1930   -9.0860    9.2750 C.3   1136  PLM1136     0.0000
     17  CF         7.1870   -9.2220   10.7950 C.3   1136  PLM1136     0.0000
     18  CG         8.1160   -8.2470   11.5120 C.3   1136  PLM1136     0.0000
@<TRIPOS>BOND
     1    10    11    1
     2    10     9    1
     3    11    12    1
     4    12    13    1
     5     8     9    1
     6     8     7    1
     7    13    14    1
     8     7     6    1
     9    14    15    1
    10     6     5    1
    11    15    16    1
    12    16    17    1
    13     5     4    1
    14     4     1    1
    15    17    18    1
    16     1     3   ar
    17     1     2   ar
