@<TRIPOS>MOLECULE
1o91_CPS_C_1.pdb
 32 35 0 0 0
SMALL
GASTEIGER

@<TRIPOS>ATOM
      1  C1        11.1190   27.6100   39.6320 C.3   800  CPS800      0.0026
      2  C2        12.2310   26.9840   40.5390 C.3   800  CPS800      0.0004
      3  C3        11.1700   27.8440   42.7520 C.3   800  CPS800      0.0330
      4  C4        11.0080   28.5080   44.1510 C.3   800  CPS800      0.1519
      5  C5        12.1420   27.9570   45.0810 C.3   800  CPS800      0.0282
      6  C6        13.4670   27.9570   44.3290 C.3   800  CPS800      0.0048
      7  C7        14.5190   27.4410   45.3370 C.3   800  CPS800      0.0002
      8  C8        13.9360   27.8170   46.7360 C.3   800  CPS800      0.0001
      9  C9        12.5520   28.5220   46.4680 C.3   800  CPS800      0.0024
     10  C10       11.8180   26.3930   45.3100 C.3   800  CPS800      0.0025
     11  C11       11.9470   25.4710   40.9330 C.3   800  CPS800      0.0000
     12  C12       11.4580   28.9870   39.0640 C.3   800  CPS800      0.0329
     13  C13       12.7910   29.0220   38.3090 C.3   800  CPS800      0.1520
     14  C14       13.9530   28.5080   39.2260 C.3   800  CPS800      0.0330
     15  C15       13.5830   27.0680   39.7620 C.3   800  CPS800      0.0050
     16  C16       14.7590   26.5480   40.6410 C.3   800  CPS800      0.0330
     17  C17       14.9140   27.1900   42.0540 C.3   800  CPS800      0.1519
     18  C18       13.6100   27.2440   42.9300 C.3   800  CPS800      0.0306
     19  C19       12.4860   27.8000   41.8900 C.3   800  CPS800      0.0050
     20  C20       11.6200   28.3610   47.7480 C.3   800  CPS800      0.0002
     21  C21       10.1680   28.8960   47.6400 C.3   800  CPS800      0.0000
     22  C22       12.3190   29.0200   48.9880 C.3   800  CPS800      0.0041
     23  C23       11.5430   28.9370   50.3440 C.3   800  CPS800      0.0514
     24  C24       11.4730   27.5020   50.9360 C.3   800  CPS800      0.2256
     25  C25       12.1950   26.3010   53.0970 C.3   800  CPS800      0.0913
     26  C26       11.3490   26.0260   54.3690 C.3   800  CPS800      0.0189
     27  C27       10.2330   27.0680   54.5850 C.3   800  CPS800      0.0015
     28  N1        11.7260   27.5080   52.3820 N.3   800  CPS800     -0.1893
     29  O1        12.1480   26.6710   50.2960 O.3   800  CPS800     -0.2037
     30  O2        13.1370   30.3360   37.8000 O.3   800  CPS800     -0.2232
     31  O3        15.3660   28.5750   42.0230 O.3   800  CPS800     -0.2232
     32  O4        11.3270   29.9060   43.9710 O.3   800  CPS800     -0.2232
@<TRIPOS>BOND
     1    30    13    1
     2    13    12    1
     3    13    14    1
     4    12     1    1
     5    14    15    1
     6     1     2    1
     7    15     2    1
     8    15    16    1
     9     2    11    1
    10     2    19    1
    11    16    17    1
    12    19     3    1
    13    19    18    1
    14    31    17    1
    15    17    18    1
    16     3     4    1
    17    18     6    1
    18    32     4    1
    19     4     5    1
    20     6     5    1
    21     6     7    1
    22     5    10    1
    23     5     9    1
    24     7     8    1
    25     9     8    1
    26     9    20    1
    27    21    20    1
    28    20    22    1
    29    22    23    1
    30    29    24    1
    31    23    24    1
    32    24    28    1
    33    28    25    1
    34    25    26    1
    35    26    27    1
