@<TRIPOS>MOLECULE
1o92_ADP_B_1.pdb
 27 29 0 0 0
SMALL
GASTEIGER

@<TRIPOS>ATOM
      1  PB         3.5910   28.6290   56.4900 P.3   1397  ADP1397     0.5373
      2  O1B        3.3650   30.0680   55.8880 O.2   1397  ADP1397    -0.2221
      3  O2B        4.7450   28.4870   57.5310 O.3   1397  ADP1397    -0.1143
      4  O3B        2.2550   28.0800   57.0980 O.3   1397  ADP1397    -0.1143
      5  PA         5.2490   27.8190   54.3170 P.3   1397  ADP1397     0.2231
      6  O1A        5.1540   29.2620   53.7650 O.2   1397  ADP1397    -0.5169
      7  O2A        6.4770   27.6960   55.5370 O.3   1397  ADP1397    -0.4370
      8  O3A        3.8610   27.4960   55.1860 O.3   1397  ADP1397    -0.2261
      9  O5'        5.5910   26.7950   53.0160 O.3   1397  ADP1397    -0.3111
     10  C5'        5.0540   25.4440   52.7670 C.3   1397  ADP1397     0.1813
     11  C4'        3.5480   25.4720   52.4810 C.3   1397  ADP1397     0.1821
     12  O4'        3.2000   26.3070   51.2920 O.3   1397  ADP1397    -0.3135
     13  C3'        3.0980   24.0510   52.2260 C.3   1397  ADP1397     0.2184
     14  O3'        2.3440   23.5970   53.4400 O.3   1397  ADP1397    -0.2174
     15  C2'        2.4440   23.9850   50.7510 C.3   1397  ADP1397     0.2570
     16  O2'        1.0390   23.4330   50.6470 O.3   1397  ADP1397    -0.2130
     17  C1'        2.5330   25.4630   50.2290 C.3   1397  ADP1397     0.3186
     18  N9         3.2340   25.5930   48.8140 N.pl3 1397  ADP1397    -0.1439
     19  C8         4.5110   25.2120   48.3360 C.3   1397  ADP1397     0.3377
     20  N7         4.7170   25.5330   47.0060 N.2   1397  ADP1397    -0.2095
     21  C5         3.5210   26.1520   46.5860 C.2   1397  ADP1397     0.2526
     22  C6         3.0260   26.7440   45.3000 C.2   1397  ADP1397     0.4393
     23  N6         3.7280   26.8000   44.1440 N.pl3 1397  ADP1397     0.2180
     24  N1         1.7470   27.2880   45.2520 N.2   1397  ADP1397     0.0021
     25  C2         1.0010   27.2340   46.4210 C.3   1397  ADP1397     0.5254
     26  N3         1.3530   26.7100   47.6740 N.2   1397  ADP1397    -0.0055
     27  C4         2.6200   26.1870   47.6890 C.2   1397  ADP1397     0.3518
@<TRIPOS>BOND
     1    23    22    1
     2    24    22    2
     3    24    25    1
     4    22    21    1
     5    25    26    1
     6    21    20    2
     7    21    27    1
     8    20    19    1
     9    26    27    2
    10    27    18    1
    11    19    18    1
    12    18    17    1
    13    17    15    1
    14    17    12    1
    15    16    15    1
    16    15    13    1
    17    12    11    1
    18    13    11    1
    19    13    14    1
    20    11    10    1
    21    10     9    1
    22     9     5    1
    23     6     5    2
    24     5     8    1
    25     5     7    1
    26     8     1    1
    27     2     1    2
    28     1     4    1
    29     1     3    1
