@<TRIPOS>MOLECULE
1o93_ATP_B_1.pdb
 31 33 0 0 0
SMALL
GASTEIGER

@<TRIPOS>ATOM
      1  PG         5.9400   32.8640   48.5150 P.3   1397  ATP1397     0.5373
      2  O1G        7.4060   32.5930   48.2350 O.3   1397  ATP1397    -0.1143
      3  O2G        5.1040   31.8970   47.6460 O.2   1397  ATP1397    -0.2221
      4  O3G        5.6230   34.2770   48.1160 O.3   1397  ATP1397    -0.1143
      5  PB         6.6260   32.5730   51.3220 P.3   1397  ATP1397     0.2277
      6  O1B        8.1050   32.7510   51.0040 O.2   1397  ATP1397    -0.5168
      7  O2B        6.1690   33.3620   52.5540 O.3   1397  ATP1397    -0.4368
      8  O3B        5.6780   32.5070   50.1010 O.3   1397  ATP1397    -0.2258
      9  PA         7.1180   29.4210   51.3270 P.3   1397  ATP1397     0.2189
     10  O1A        8.4790   29.5990   50.6160 O.2   1397  ATP1397    -0.5170
     11  O2A        6.9550   28.6120   52.6290 O.3   1397  ATP1397    -0.4371
     12  O3A        6.4890   30.9880   51.7300 O.3   1397  ATP1397    -0.2700
     13  O5'        6.2770   28.3740   50.2130 O.3   1397  ATP1397    -0.3112
     14  C5'        4.9810   28.4870   49.4440 C.3   1397  ATP1397     0.1813
     15  C4'        4.6150   27.8810   47.9590 C.3   1397  ATP1397     0.1821
     16  O4'        4.6060   26.3580   47.8650 O.3   1397  ATP1397    -0.3135
     17  C3'        3.1100   28.2470   47.6410 C.3   1397  ATP1397     0.2184
     18  O3'        2.9390   28.7770   46.2880 O.3   1397  ATP1397    -0.2174
     19  C2'        2.2720   26.9550   47.8800 C.3   1397  ATP1397     0.2570
     20  O2'        1.5180   26.5500   46.7320 O.3   1397  ATP1397    -0.2130
     21  C1'        3.2680   25.8450   48.3100 C.3   1397  ATP1397     0.3186
     22  N9         3.0120   25.1410   49.6730 N.pl3 1397  ATP1397    -0.1439
     23  C8         3.6590   25.3090   50.8900 C.3   1397  ATP1397     0.3377
     24  N7         3.1960   24.5130   51.9040 N.2   1397  ATP1397    -0.2095
     25  C5         2.2040   23.8120   51.2800 C.2   1397  ATP1397     0.2526
     26  C6         1.3050   22.7560   51.8550 C.2   1397  ATP1397     0.4393
     27  N6         1.3960   22.3700   53.1120 N.pl3 1397  ATP1397     0.2180
     28  N1         0.3590   22.1700   51.0370 N.2   1397  ATP1397     0.0021
     29  C2         0.2350   22.5440   49.7410 C.3   1397  ATP1397     0.5254
     30  N3         1.0840   23.5300   49.2080 N.2   1397  ATP1397    -0.0055
     31  C4         2.0550   24.1880   49.9130 C.2   1397  ATP1397     0.3518
@<TRIPOS>BOND
     1    18    17    1
     2    20    19    1
     3    17    19    1
     4    17    15    1
     5     3     1    2
     6    16    15    1
     7    16    21    1
     8    19    21    1
     9    15    14    1
    10     4     1    1
    11     2     1    1
    12    21    22    1
    13     1     8    1
    14    30    29    1
    15    30    31    2
    16    14    13    1
    17    22    31    1
    18    22    23    1
    19    29    28    1
    20    31    25    1
    21     8     5    1
    22    13     9    1
    23    10     9    2
    24    23    24    1
    25     6     5    2
    26    28    26    2
    27    25    26    1
    28    25    24    2
    29     5    12    1
    30     5     7    1
    31     9    12    1
    32     9    11    1
    33    26    27    1
