@<TRIPOS>MOLECULE
1o94_AMP_C_1.pdb
 23 25 0 0 0
SMALL
GASTEIGER

@<TRIPOS>ATOM
      1  P         25.1260  -63.5000   46.1350 P.3   1236  AMP1236     0.5327
      2  O1P       26.5730  -63.8020   46.5120 O.3   1236  AMP1236    -0.1145
      3  O2P       24.3500  -64.7640   46.1500 O.3   1236  AMP1236    -0.1145
      4  O3P       25.1070  -62.8500   44.7660 O.2   1236  AMP1236    -0.2224
      5  O5'       24.9340  -62.3190   47.2130 O.3   1236  AMP1236    -0.2675
      6  C5'       23.9340  -61.8910   48.0150 C.3   1236  AMP1236     0.1860
      7  C4'       24.3350  -61.8710   49.4740 C.3   1236  AMP1236     0.1823
      8  O4'       24.9390  -63.1100   49.8890 O.3   1236  AMP1236    -0.3135
      9  C3'       25.1540  -60.7380   50.1060 C.3   1236  AMP1236     0.2184
     10  O3'       24.4680  -59.5170   50.2840 O.3   1236  AMP1236    -0.2174
     11  C2'       25.4490  -61.3790   51.4550 C.3   1236  AMP1236     0.2570
     12  O2'       24.3050  -61.3960   52.2960 O.3   1236  AMP1236    -0.2130
     13  C1'       25.6300  -62.8360   51.1020 C.3   1236  AMP1236     0.3186
     14  N9        27.0610  -63.0520   50.8710 N.pl3 1236  AMP1236    -0.1439
     15  C8        27.6690  -63.3600   49.6770 C.3   1236  AMP1236     0.3377
     16  N7        28.9970  -63.5630   49.8780 N.2   1236  AMP1236    -0.2095
     17  C5        29.2700  -63.3670   51.1920 C.2   1236  AMP1236     0.2526
     18  C6        30.4500  -63.4210   51.9430 C.2   1236  AMP1236     0.4393
     19  N6        31.6780  -63.6750   51.4130 N.pl3 1236  AMP1236     0.2180
     20  N1        30.3580  -63.1960   53.2850 N.2   1236  AMP1236     0.0021
     21  C2        29.1630  -62.9110   53.9230 C.3   1236  AMP1236     0.5254
     22  N3        28.0040  -62.8470   53.1550 N.2   1236  AMP1236    -0.0055
     23  C4        28.0470  -63.0760   51.8290 C.2   1236  AMP1236     0.3518
@<TRIPOS>BOND
     1     4     1    2
     2     1     3    1
     3     1     2    1
     4     1     5    1
     5     5     6    1
     6     6     7    1
     7     7     8    1
     8     7     9    1
     9    15    16    1
    10    15    14    1
    11    16    17    2
    12     8    13    1
    13     9    10    1
    14     9    11    1
    15    14    13    1
    16    14    23    1
    17    13    11    1
    18    17    23    1
    19    17    18    1
    20    19    18    1
    21    11    12    1
    22    23    22    2
    23    18    20    2
    24    22    21    1
    25    20    21    1
