@<TRIPOS>MOLECULE
1o94_FMN_A_1.pdb
 31 33 0 0 0
SMALL
GASTEIGER

@<TRIPOS>ATOM
      1  N1        33.0620  -12.8830   19.0250 N.2   1730  FMN1730    -0.2887
      2  C2        33.8950  -12.0410   18.3820 C.1   1730  FMN1730     0.3669
      3  O2        34.1410  -12.2350   17.2080 O.2   1730  FMN1730    -0.1744
      4  N3        34.5200  -11.0130   19.0920 N.2   1730  FMN1730    -0.2300
      5  C4        34.2460  -10.7440   20.4350 C.1   1730  FMN1730     0.2513
      6  O4        35.1380  -10.1680   21.1270 O.2   1730  FMN1730    -0.2057
      7  C4A       33.3630  -11.6310   21.0780 C.2   1730  FMN1730     0.2703
      8  N5        33.0590  -11.4580   22.4060 N.2   1730  FMN1730    -0.3885
      9  C5A       32.3230  -12.4140   23.1000 C.2   1730  FMN1730     0.1233
     10  C6        32.0770  -12.3620   24.4390 C.3   1730  FMN1730     0.0606
     11  C7        31.3570  -13.3670   25.1390 C.3   1730  FMN1730     0.0111
     12  C7M       31.7670  -13.6700   26.5930 C.3   1730  FMN1730     0.0008
     13  C8        30.8240  -14.4530   24.4070 C.3   1730  FMN1730     0.0238
     14  C8M       30.7770  -15.8340   25.0690 C.3   1730  FMN1730     0.0047
     15  C9        31.0790  -14.4840   23.0730 C.2   1730  FMN1730    -0.0093
     16  C9A       31.7860  -13.4910   22.3900 C.2   1730  FMN1730     0.0750
     17  N10       32.0080  -13.6180   21.0110 N.pl3 1730  FMN1730    -0.2548
     18  C10       32.8300  -12.7090   20.3740 C.2   1730  FMN1730     0.2449
     19  C1'       31.0900  -14.4940   20.1600 C.3   1730  FMN1730     0.1336
     20  C2'       31.7880  -15.8660   20.1380 C.3   1730  FMN1730     0.2048
     21  O2'       33.0250  -15.6620   19.4800 O.3   1730  FMN1730    -0.2185
     22  C3'       31.0230  -16.9960   19.4560 C.3   1730  FMN1730     0.2165
     23  O3'       30.7530  -16.5860   18.1380 O.3   1730  FMN1730    -0.2175
     24  C4'       29.6840  -17.3060   20.1860 C.3   1730  FMN1730     0.2147
     25  O4'       29.8730  -17.3220   21.6020 O.3   1730  FMN1730    -0.2176
     26  C5'       29.0810  -18.6230   19.7230 C.3   1730  FMN1730     0.1892
     27  O5'       30.0130  -19.6410   19.9190 O.3   1730  FMN1730    -0.2674
     28  P         29.8770  -20.6990   21.0930 P.3   1730  FMN1730     0.5327
     29  O1P       29.9710  -19.9330   22.4040 O.3   1730  FMN1730    -0.1145
     30  O2P       28.4960  -21.3410   20.8200 O.2   1730  FMN1730    -0.2224
     31  O3P       31.0180  -21.6960   20.8600 O.3   1730  FMN1730    -0.1145
@<TRIPOS>BOND
     1     3     2    2
     2    23    22    1
     3     2     1    2
     4     2     4    2
     5     1    18    2
     6     4     5    2
     7    22    20    1
     8    22    24    1
     9    21    20    1
    10    26    27    1
    11    26    24    1
    12    27    28    1
    13    20    19    1
    14    19    17    1
    15    24    25    1
    16    18    17    1
    17    18     7    1
    18     5     7    1
    19     5     6    2
    20    30    28    2
    21    31    28    1
    22    17    16    1
    23     7     8    2
    24    28    29    1
    25    16    15    2
    26    16     9    1
    27     8     9    2
    28    15    13    1
    29     9    10    1
    30    13    14    1
    31    13    11    1
    32    10    11    1
    33    11    12    1
