@<TRIPOS>MOLECULE
1o94_ADP_A_1.pdb
 27 29 0 0 0
SMALL
GASTEIGER

@<TRIPOS>ATOM
      1  PB        22.1970  -22.5020   46.6740 P.3   1731  ADP1731     0.5373
      2  O1B       23.1410  -23.6390   46.4250 O.3   1731  ADP1731    -0.1143
      3  O2B       22.8040  -21.4580   47.6050 O.3   1731  ADP1731    -0.1143
      4  O3B       21.6990  -21.8030   45.3810 O.2   1731  ADP1731    -0.2221
      5  PA        19.7000  -23.9910   46.9020 P.3   1731  ADP1731     0.2231
      6  O1A       18.4130  -23.3650   47.2510 O.3   1731  ADP1731    -0.4370
      7  O2A       19.8380  -24.3840   45.4860 O.2   1731  ADP1731    -0.5169
      8  O3A       20.8750  -22.9590   47.4820 O.3   1731  ADP1731    -0.2261
      9  O5'       19.8830  -25.2680   47.8200 O.3   1731  ADP1731    -0.3111
     10  C5'       19.6870  -25.2520   49.2210 C.3   1731  ADP1731     0.1813
     11  C4'       19.4620  -26.7100   49.6180 C.3   1731  ADP1731     0.1821
     12  O4'       19.4780  -26.7980   51.0240 O.3   1731  ADP1731    -0.3135
     13  C3'       18.0940  -27.2770   49.1590 C.3   1731  ADP1731     0.2184
     14  O3'       18.3220  -28.4200   48.3270 O.3   1731  ADP1731    -0.2174
     15  C2'       17.3600  -27.6080   50.4560 C.3   1731  ADP1731     0.2570
     16  O2'       16.5480  -28.7610   50.3800 O.3   1731  ADP1731    -0.2130
     17  C1'       18.5230  -27.7820   51.4220 C.3   1731  ADP1731     0.3186
     18  N9        18.1770  -27.5000   52.8180 N.pl3 1731  ADP1731    -0.1439
     19  C8        17.5460  -26.4010   53.3430 C.3   1731  ADP1731     0.3377
     20  N7        17.4820  -26.5560   54.6660 N.2   1731  ADP1731    -0.2095
     21  C5        18.0450  -27.7590   55.0150 C.2   1731  ADP1731     0.2526
     22  C6        18.2330  -28.4610   56.2340 C.2   1731  ADP1731     0.4393
     23  N6        17.9050  -27.9530   57.4290 N.pl3 1731  ADP1731     0.2180
     24  N1        18.8580  -29.6940   56.2100 N.2   1731  ADP1731     0.0021
     25  C2        19.2850  -30.2200   55.0190 C.3   1731  ADP1731     0.5254
     26  N3        19.0820  -29.5410   53.8250 N.2   1731  ADP1731    -0.0055
     27  C4        18.4890  -28.3380   53.8460 C.2   1731  ADP1731     0.3518
@<TRIPOS>BOND
     1     4     1    2
     2     7     5    2
     3     2     1    1
     4     1     8    1
     5     1     3    1
     6     5     6    1
     7     5     8    1
     8     5     9    1
     9     9    10    1
    10    14    13    1
    11    13    11    1
    12    13    15    1
    13    10    11    1
    14    11    12    1
    15    16    15    1
    16    15    17    1
    17    12    17    1
    18    17    18    1
    19    18    19    1
    20    18    27    1
    21    19    20    1
    22    26    27    2
    23    26    25    1
    24    27    21    1
    25    20    21    2
    26    21    22    1
    27    25    24    1
    28    24    22    2
    29    22    23    1
