@<TRIPOS>MOLECULE
1o95_AMP_C_1.pdb
 23 25 0 0 0
SMALL
GASTEIGER

@<TRIPOS>ATOM
      1  P         -9.3860   -0.4590   -9.4170 P.3   1236  AMP1236     0.5327
      2  O1P       -9.7260    1.0200   -9.2540 O.3   1236  AMP1236    -0.1145
      3  O2P      -10.3580   -1.1010  -10.3460 O.2   1236  AMP1236    -0.2224
      4  O3P       -9.4320   -1.0720   -8.0560 O.3   1236  AMP1236    -0.1145
      5  O5'       -7.8410   -0.2630   -9.8090 O.3   1236  AMP1236    -0.2675
      6  C5'       -7.1480   -1.0900  -10.7020 C.3   1236  AMP1236     0.1860
      7  C4'       -6.2590   -0.3220  -11.6410 C.3   1236  AMP1236     0.1823
      8  O4'       -7.1980    0.4860  -12.2150 O.3   1236  AMP1236    -0.3135
      9  C3'       -5.2650    0.7020  -11.1010 C.3   1236  AMP1236     0.2184
     10  O3'       -3.9820    0.2550  -11.0810 O.3   1236  AMP1236    -0.2174
     11  C2'       -4.9870    1.3790  -12.3600 C.3   1236  AMP1236     0.2570
     12  O2'       -4.4020    0.3540  -13.1310 O.3   1236  AMP1236    -0.2130
     13  C1'       -6.4010    1.4680  -12.8130 C.3   1236  AMP1236     0.3186
     14  N9        -7.0110    2.7710  -12.5850 N.pl3 1236  AMP1236    -0.1439
     15  C8        -8.0820    3.1120  -11.7670 C.3   1236  AMP1236     0.3377
     16  N7        -8.3400    4.4280  -11.9690 N.2   1236  AMP1236    -0.2095
     17  C5        -7.4330    4.8680  -12.9110 C.2   1236  AMP1236     0.2526
     18  C6        -7.2120    6.1120  -13.4830 C.2   1236  AMP1236     0.4393
     19  N6        -8.0500    7.0580  -13.0500 N.pl3 1236  AMP1236     0.2180
     20  N1        -6.1760    6.3080  -14.4360 N.2   1236  AMP1236     0.0021
     21  C2        -5.3650    5.2440  -14.8420 C.3   1236  AMP1236     0.5254
     22  N3        -5.5530    3.9920  -14.2750 N.2   1236  AMP1236    -0.0055
     23  C4        -6.5720    3.8400  -13.3300 C.2   1236  AMP1236     0.3518
@<TRIPOS>BOND
     1    21    20    1
     2    21    22    1
     3    20    18    2
     4    22    23    2
     5    18    19    1
     6    18    17    1
     7    23    17    1
     8    23    14    1
     9    12    11    1
    10    17    16    2
    11    13    14    1
    12    13    11    1
    13    13     8    1
    14    14    15    1
    15    11     9    1
    16     8     7    1
    17    16    15    1
    18     7     9    1
    19     7     6    1
    20     9    10    1
    21     6     5    1
    22     3     1    2
    23     5     1    1
    24     1     2    1
    25     1     4    1
