@<TRIPOS>MOLECULE
1o95_ADP_A_1.pdb
 27 29 0 0 0
SMALL
GASTEIGER

@<TRIPOS>ATOM
      1  PB        47.9440   -3.8740   61.5700 P.3   1731  ADP1731     0.5373
      2  O1B       47.8790   -4.5860   60.2380 O.2   1731  ADP1731    -0.2221
      3  O2B       46.7580   -2.9050   61.7650 O.3   1731  ADP1731    -0.1143
      4  O3B       49.2730   -3.2780   61.7260 O.3   1731  ADP1731    -0.1143
      5  PA        48.7350   -6.0470   63.0230 P.3   1731  ADP1731     0.2231
      6  O1A       47.8980   -7.2620   63.0820 O.3   1731  ADP1731    -0.4370
      7  O2A       50.0460   -6.1350   62.1890 O.2   1731  ADP1731    -0.5169
      8  O3A       47.7860   -4.8020   62.8210 O.3   1731  ADP1731    -0.2261
      9  O5'       49.0820   -5.4720   64.4430 O.3   1731  ADP1731    -0.3111
     10  C5'       48.3570   -5.7690   65.5780 C.3   1731  ADP1731     0.1813
     11  C4'       49.4910   -5.8510   66.5760 C.3   1731  ADP1731     0.1821
     12  O4'       48.8780   -5.6800   67.8130 O.3   1731  ADP1731    -0.3135
     13  C3'       50.1780   -7.2100   66.6470 C.3   1731  ADP1731     0.2184
     14  O3'       51.5710   -7.1870   66.4050 O.3   1731  ADP1731    -0.2174
     15  C2'       50.1120   -7.5460   68.1060 C.3   1731  ADP1731     0.2570
     16  O2'       51.3670   -7.1690   68.5280 O.3   1731  ADP1731    -0.2130
     17  C1'       49.5970   -6.3620   68.8030 C.3   1731  ADP1731     0.3186
     18  N9        48.7120   -6.5500   69.9390 N.pl3 1731  ADP1731    -0.1439
     19  C8        47.4430   -7.0420   69.8660 C.3   1731  ADP1731     0.3377
     20  N7        46.8720   -7.0020   71.0890 N.2   1731  ADP1731    -0.2095
     21  C5        47.7610   -6.4420   71.9120 C.2   1731  ADP1731     0.2526
     22  C6        47.6230   -6.2000   73.2350 C.2   1731  ADP1731     0.4393
     23  N6        46.4780   -6.6000   73.7540 N.pl3 1731  ADP1731     0.2180
     24  N1        48.6680   -5.6230   73.9140 N.2   1731  ADP1731     0.0021
     25  C2        49.8460   -5.3250   73.2130 C.3   1731  ADP1731     0.5254
     26  N3        49.9980   -5.5750   71.8540 N.2   1731  ADP1731    -0.0055
     27  C4        48.9350   -6.1360   71.2220 C.2   1731  ADP1731     0.3518
@<TRIPOS>BOND
     1     2     1    2
     2     1     4    1
     3     1     3    1
     4     1     8    1
     5     7     5    2
     6     8     5    1
     7     5     6    1
     8     5     9    1
     9     9    10    1
    10    10    11    1
    11    14    13    1
    12    11    13    1
    13    11    12    1
    14    13    15    1
    15    12    17    1
    16    15    16    1
    17    15    17    1
    18    17    18    1
    19    19    18    1
    20    19    20    1
    21    18    27    1
    22    20    21    2
    23    27    26    2
    24    27    21    1
    25    26    25    1
    26    21    22    1
    27    25    24    1
    28    22    23    1
    29    22    24    2
