@<TRIPOS>MOLECULE
1o95_FMN_A_1.pdb
 31 33 0 0 0
SMALL
GASTEIGER

@<TRIPOS>ATOM
      1  N1        54.4430    3.1900   31.9430 N.2   1730  FMN1730    -0.2887
      2  C2        53.9810    3.8690   30.8050 C.1   1730  FMN1730     0.3669
      3  O2        54.6760    3.7460   29.7750 O.2   1730  FMN1730    -0.1744
      4  N3        52.7520    4.6340   30.8370 N.2   1730  FMN1730    -0.2300
      5  C4        51.9510    4.7790   31.9960 C.1   1730  FMN1730     0.2513
      6  O4        51.5720    5.9530   32.1740 O.2   1730  FMN1730    -0.2057
      7  C4A       52.4150    4.0360   33.1390 C.2   1730  FMN1730     0.2703
      8  N5        51.7140    4.0640   34.3510 N.2   1730  FMN1730    -0.3885
      9  C5A       52.2420    3.3610   35.4540 C.2   1730  FMN1730     0.1233
     10  C6        51.5490    3.4140   36.6480 C.3   1730  FMN1730     0.0606
     11  C7        52.0230    2.7760   37.7610 C.3   1730  FMN1730     0.0111
     12  C7M       51.7550    3.5860   39.0010 C.3   1730  FMN1730     0.0008
     13  C8        53.2170    2.0620   37.6480 C.3   1730  FMN1730     0.0238
     14  C8M       54.2480    2.3530   38.6690 C.3   1730  FMN1730     0.0047
     15  C9        53.9080    1.9800   36.4780 C.2   1730  FMN1730    -0.0093
     16  C9A       53.4480    2.6290   35.3870 C.2   1730  FMN1730     0.0750
     17  N10       54.1690    2.5720   34.2170 N.pl3 1730  FMN1730    -0.2548
     18  C10       53.6600    3.2550   33.1040 C.2   1730  FMN1730     0.2449
     19  C1'       55.5210    1.9580   34.1140 C.3   1730  FMN1730     0.1336
     20  C2'       56.6580    2.7600   34.7080 C.3   1730  FMN1730     0.2048
     21  O2'       56.9920    3.8050   33.8550 O.3   1730  FMN1730    -0.2185
     22  C3'       57.8840    1.8630   34.7090 C.3   1730  FMN1730     0.2165
     23  O3'       58.0440    1.6220   33.3190 O.3   1730  FMN1730    -0.2175
     24  C4'       57.7300    0.5600   35.5770 C.3   1730  FMN1730     0.2147
     25  O4'       56.9290    0.9030   36.6590 O.3   1730  FMN1730    -0.2176
     26  C5'       58.9190   -0.0350   36.3340 C.3   1730  FMN1730     0.1892
     27  O5'       59.5870    1.0560   36.9360 O.3   1730  FMN1730    -0.2674
     28  P         60.1450    0.9360   38.4130 P.3   1730  FMN1730     0.5327
     29  O1P       58.9520    1.5080   39.1520 O.3   1730  FMN1730    -0.1145
     30  O2P       60.4750   -0.5190   38.7370 O.3   1730  FMN1730    -0.1145
     31  O3P       61.3520    1.9330   38.4990 O.2   1730  FMN1730    -0.2224
@<TRIPOS>BOND
     1     3     2    2
     2     2     4    2
     3     2     1    2
     4     4     5    2
     5     1    18    2
     6     5     6    2
     7     5     7    1
     8    18     7    1
     9    18    17    1
    10     7     8    2
    11    23    22    1
    12    21    20    1
    13    19    17    1
    14    19    20    1
    15    17    16    1
    16     8     9    2
    17    20    22    1
    18    22    24    1
    19    16     9    1
    20    16    15    2
    21     9    10    1
    22    24    26    1
    23    24    25    1
    24    26    27    1
    25    15    13    1
    26    10    11    1
    27    27    28    1
    28    13    11    1
    29    13    14    1
    30    11    12    1
    31    28    31    2
    32    28    30    1
    33    28    29    1
