@<TRIPOS>MOLECULE
1o96_AMP_A_1.pdb
 23 25 0 0 0
SMALL
GASTEIGER

@<TRIPOS>ATOM
      1  P         23.3680   24.8920   81.1200 P.3   1263  AMP1263     0.5327
      2  O1P       23.5690   23.2780   81.2190 O.3   1263  AMP1263    -0.1145
      3  O2P       22.6810   25.2550   79.8440 O.2   1263  AMP1263    -0.2224
      4  O3P       24.6520   25.7430   81.2760 O.3   1263  AMP1263    -0.1145
      5  O5'       22.6050   25.2750   82.4870 O.3   1263  AMP1263    -0.2675
      6  C5'       21.3370   25.8280   82.5180 C.3   1263  AMP1263     0.1860
      7  C4'       20.0660   24.9990   82.8260 C.3   1263  AMP1263     0.1823
      8  O4'       19.8900   23.8850   81.9990 O.3   1263  AMP1263    -0.3135
      9  C3'       19.7230   24.4820   84.2020 C.3   1263  AMP1263     0.2184
     10  O3'       19.3040   25.4660   85.0990 O.3   1263  AMP1263    -0.2174
     11  C2'       18.4920   23.6840   83.8210 C.3   1263  AMP1263     0.2570
     12  O2'       17.4430   24.5670   83.6730 O.3   1263  AMP1263    -0.2130
     13  C1'       18.7600   23.2110   82.4410 C.3   1263  AMP1263     0.3186
     14  N9        19.3980   21.9310   82.4140 N.pl3 1263  AMP1263    -0.1439
     15  C8        20.6450   21.6920   81.9050 C.3   1263  AMP1263     0.3377
     16  N7        20.8270   20.3740   82.0370 N.2   1263  AMP1263    -0.2095
     17  C5        19.7620   19.7850   82.5830 C.2   1263  AMP1263     0.2526
     18  C6        19.4530   18.4640   82.8240 C.2   1263  AMP1263     0.4393
     19  N6        20.3930   17.5710   82.5850 N.pl3 1263  AMP1263     0.2180
     20  N1        18.2230   18.1070   83.3250 N.2   1263  AMP1263     0.0021
     21  C2        17.3300   19.1390   83.5610 C.3   1263  AMP1263     0.5254
     22  N3        17.5890   20.4890   83.2850 N.2   1263  AMP1263    -0.0055
     23  C4        18.8240   20.7770   82.8050 C.2   1263  AMP1263     0.3518
@<TRIPOS>BOND
     1     3     1    2
     2     1     2    1
     3     1     4    1
     4     1     5    1
     5    15    16    1
     6    15    14    1
     7     8    13    1
     8     8     7    1
     9    16    17    2
    10    14    13    1
    11    14    23    1
    12    13    11    1
    13     5     6    1
    14     6     7    1
    15    17    23    1
    16    17    18    1
    17    19    18    1
    18    23    22    2
    19    18    20    2
    20     7     9    1
    21    22    21    1
    22    20    21    1
    23    12    11    1
    24    11     9    1
    25     9    10    1
