@<TRIPOS>MOLECULE
1o97_AMP_C_1.pdb
 23 25 0 0 0
SMALL
GASTEIGER

@<TRIPOS>ATOM
      1  P         77.8290   49.3130    2.5340 P.3   1262  AMP1262     0.5327
      2  O1P       77.5630   47.8640    2.6430 O.3   1262  AMP1262    -0.1145
      3  O2P       78.2380   49.8690    3.8250 O.3   1262  AMP1262    -0.1145
      4  O3P       76.7770   50.1510    1.9780 O.2   1262  AMP1262    -0.2224
      5  O5'       79.1000   49.3760    1.5350 O.3   1262  AMP1262    -0.2675
      6  C5'       79.4600   48.5040    0.5100 C.3   1262  AMP1262     0.1860
      7  C4'       80.9630   48.1970    0.7050 C.3   1262  AMP1262     0.1823
      8  O4'       81.2830   47.4970    1.9190 O.3   1262  AMP1262    -0.3135
      9  C3'       81.2740   47.2150   -0.4040 C.3   1262  AMP1262     0.2184
     10  O3'       81.5990   47.8720   -1.6240 O.3   1262  AMP1262    -0.2174
     11  C2'       82.3060   46.3270    0.1650 C.3   1262  AMP1262     0.2570
     12  O2'       83.6230   46.9320    0.1560 O.3   1262  AMP1262    -0.2130
     13  C1'       81.9100   46.2750    1.6660 C.3   1262  AMP1262     0.3186
     14  N9        80.9190   45.1760    1.9150 N.pl3 1262  AMP1262    -0.1439
     15  C8        79.5850   45.3120    2.2370 C.3   1262  AMP1262     0.3377
     16  N7        79.1160   44.0520    2.4190 N.2   1262  AMP1262    -0.2095
     17  C5        80.1190   43.1570    2.2230 C.2   1262  AMP1262     0.2526
     18  C6        80.1890   41.7570    2.2360 C.2   1262  AMP1262     0.4393
     19  N6        79.0760   41.0020    2.5160 N.pl3 1262  AMP1262     0.2180
     20  N1        81.4060   41.1640    1.9630 N.2   1262  AMP1262     0.0021
     21  C2        82.5400   41.9320    1.7170 C.3   1262  AMP1262     0.5254
     22  N3        82.4710   43.3200    1.6480 N.2   1262  AMP1262    -0.0055
     23  C4        81.2650   43.8830    1.8950 C.2   1262  AMP1262     0.3518
@<TRIPOS>BOND
     1    10     9    1
     2     9    11    1
     3     9     7    1
     4    12    11    1
     5    11    13    1
     6     6     7    1
     7     6     5    1
     8     7     8    1
     9     5     1    1
    10    22    21    1
    11    22    23    2
    12    13    14    1
    13    13     8    1
    14    21    20    1
    15    23    14    1
    16    23    17    1
    17    14    15    1
    18    20    18    2
    19     4     1    2
    20    17    18    1
    21    17    16    2
    22    18    19    1
    23    15    16    1
    24     1     2    1
    25     1     3    1
