@<TRIPOS>MOLECULE
1o98_2PG_A_1.pdb
 11 10 0 0 0
SMALL
GASTEIGER

@<TRIPOS>ATOM
      1  C1        14.4520   77.6550    9.5010 C.2   801  2PG801      0.3946
      2  C2        15.3090   78.2610    8.3850 C.3   801  2PG801      0.2610
      3  C3        15.6380   79.6770    8.8190 C.3   801  2PG801      0.2237
      4  P         16.4180   76.1910    7.1220 P.3   801  2PG801      0.5331
      5  O1        15.1550   77.2700   10.5170 O.co2 801  2PG801     -0.2428
      6  O2        13.1950   77.5960    9.3540 O.co2 801  2PG801     -0.2428
      7  O3        14.5520   80.5480    8.9780 O.3   801  2PG801     -0.2170
      8  O1P       16.4760   77.4490    8.1080 O.3   801  2PG801     -0.2583
      9  O2P       15.3910   75.2450    7.6760 O.3   801  2PG801     -0.1145
     10  O3P       16.0280   76.6930    5.7620 O.2   801  2PG801     -0.2224
     11  O4P       17.7420   75.5740    7.1050 O.3   801  2PG801     -0.1145
@<TRIPOS>BOND
     1    10     4    2
     2    11     4    1
     3     4     9    1
     4     4     8    1
     5     8     2    1
     6     2     3    1
     7     2     1    1
     8     3     7    1
     9     6     1   ar
    10     1     5   ar
