@<TRIPOS>MOLECULE
1o99_2PG_A_1.pdb
 11 10 0 0 0
SMALL
GASTEIGER

@<TRIPOS>ATOM
      1  C1        14.5540   78.0620    9.5390 C.2   801  2PG801      0.3946
      2  C2        15.4120   78.6650    8.4010 C.3   801  2PG801      0.2610
      3  C3        15.7460   80.1140    8.7680 C.3   801  2PG801      0.2237
      4  P         16.5250   76.7140    6.9930 P.3   801  2PG801      0.5331
      5  O1        15.2520   77.8290   10.6090 O.co2 801  2PG801     -0.2428
      6  O2        13.3050   77.8380    9.3500 O.co2 801  2PG801     -0.2428
      7  O3        14.6660   80.9990    8.9830 O.3   801  2PG801     -0.2170
      8  O1P       16.5740   77.8200    8.1360 O.3   801  2PG801     -0.2583
      9  O2P       15.4930   75.7300    7.4340 O.3   801  2PG801     -0.1145
     10  O3P       16.1060   77.4230    5.7350 O.2   801  2PG801     -0.2224
     11  O4P       17.8300   76.0640    6.8600 O.3   801  2PG801     -0.1145
@<TRIPOS>BOND
     1    10     4    2
     2    11     4    1
     3     4     9    1
     4     4     8    1
     5     8     2    1
     6     2     3    1
     7     2     1    1
     8     3     7    1
     9     6     1   ar
    10     1     5   ar
