@<TRIPOS>MOLECULE
1o9b_NAD_A_1.pdb
 44 48 0 0 0
SMALL
GASTEIGER

@<TRIPOS>ATOM
      1  PA       100.0260   69.0900   -4.0560 P.3   301  NAD301      0.2189
      2  O1A      100.9870   70.2040   -4.1870 O.3   301  NAD301     -0.4371
      3  O2A      100.0530   68.1940   -5.2410 O.2   301  NAD301     -0.5170
      4  O5B       98.5070   69.5180   -3.9620 O.3   301  NAD301     -0.3112
      5  C5B       98.0420   70.6500   -3.1650 C.3   301  NAD301      0.1813
      6  C4B       96.6600   71.0340   -3.6870 C.3   301  NAD301      0.1821
      7  O4B       96.2270   72.1370   -2.8710 O.3   301  NAD301     -0.3135
      8  C3B       96.6540   71.5420   -5.1390 C.3   301  NAD301      0.2184
      9  O3B       95.8340   70.7110   -5.9700 O.3   301  NAD301     -0.2174
     10  C2B       96.1950   73.0330   -5.0120 C.3   301  NAD301      0.2570
     11  O2B       95.2050   73.4080   -6.0160 O.3   301  NAD301     -0.2130
     12  C1B       95.6200   73.1440   -3.6110 C.3   301  NAD301      0.3186
     13  N9A       95.9790   74.3740   -2.9470 N.pl3 301  NAD301     -0.1439
     14  C8A       97.2070   74.7470   -2.4600 C.3   301  NAD301      0.3377
     15  N7A       97.2160   75.9700   -1.8640 N.2   301  NAD301     -0.2095
     16  C5A       95.8820   76.3730   -2.0000 C.2   301  NAD301      0.2526
     17  C6A       95.1950   77.5700   -1.5680 C.2   301  NAD301      0.4393
     18  N6A       95.8140   78.5690   -0.9210 N.pl3 301  NAD301      0.2180
     19  N1A       93.8430   77.6500   -1.8690 N.2   301  NAD301      0.0021
     20  C2A       93.2110   76.6070   -2.5420 C.3   301  NAD301      0.5254
     21  N3A       93.7660   75.4660   -2.9710 N.2   301  NAD301     -0.0055
     22  C4A       95.1040   75.3990   -2.6630 C.2   301  NAD301      0.3518
     23  O3       100.2890   68.3330   -2.7210 O.3   301  NAD301     -0.2703
     24  PN        99.5880   67.0570   -2.0460 P.3   301  NAD301      0.2189
     25  O1N      100.6810   66.0330   -2.0190 O.3   301  NAD301     -0.4371
     26  O2N       98.4550   66.6420   -2.9010 O.2   301  NAD301     -0.5170
     27  O5D       99.2830   67.3430   -0.5210 O.3   301  NAD301     -0.3112
     28  C5D       97.9710   67.8260   -0.1140 C.3   301  NAD301      0.1813
     29  C4D       97.9230   67.9050    1.4210 C.3   301  NAD301      0.1799
     30  O4D       97.6070   66.5490    1.8970 O.3   301  NAD301     -0.3327
     31  C3D       99.2140   68.3210    2.1320 C.3   301  NAD301      0.2158
     32  O3D       98.9780   69.1780    3.2630 O.3   301  NAD301     -0.2175
     33  C2D       99.8320   66.9760    2.5290 C.3   301  NAD301      0.2309
     34  O2D      100.7190   67.1690    3.6740 O.3   301  NAD301     -0.2158
     35  C1D       98.5980   66.1290    2.8050 C.3   301  NAD301      0.2263
     36  N1N       98.8220   64.6470    2.6490 N.pl3 301  NAD301     -0.2787
     37  C2N       98.4660   63.8990    3.7730 C.3   301  NAD301      0.1244
     38  C3N       98.6370   62.5090    3.6880 C.2   301  NAD301      0.0544
     39  C7N       98.2760   61.5710    4.8520 C.2   301  NAD301      0.2818
     40  O7N       98.4460   60.3660    4.7140 O.2   301  NAD301     -0.2670
     41  N7N       97.7720   62.0620    6.0080 N.am  301  NAD301     -0.0839
     42  C4N       99.1610   61.8720    2.4790 C.2   301  NAD301      0.0033
     43  C5N       99.4860   62.7570    1.4120 C.2   301  NAD301      0.0157
     44  C6N       99.3480   64.1270    1.4160 C.2   301  NAD301      0.0633
@<TRIPOS>BOND
     1    11    10    1
     2     9     8    1
     3     3     1    2
     4     8    10    1
     5     8     6    1
     6    10    12    1
     7     2     1    1
     8     1     4    1
     9     1    23    1
    10     4     5    1
    11     6     5    1
    12     6     7    1
    13    12    13    1
    14    12     7    1
    15    21    22    2
    16    21    20    1
    17    13    22    1
    18    13    14    1
    19    26    24    2
    20    23    24    1
    21    22    16    1
    22    20    19    1
    23    14    15    1
    24    24    25    1
    25    24    27    1
    26    16    15    2
    27    16    17    1
    28    19    17    2
    29    17    18    1
    30    27    28    1
    31    28    29    1
    32    43    44    2
    33    43    42    1
    34    44    36    1
    35    29    30    1
    36    29    31    1
    37    30    35    1
    38    31    33    1
    39    31    32    1
    40    42    38    2
    41    33    35    1
    42    33    34    1
    43    36    35    1
    44    36    37    1
    45    38    37    1
    46    38    39    1
    47    40    39    2
    48    39    41   am
