@<TRIPOS>MOLECULE
1o9d_III_P_1.pdb
 46 46 0 0 0
SMALL
GASTEIGER

@<TRIPOS>ATOM
      1  N         42.6670   52.3990   18.7130 N.3     1  GLN1       -0.1231
      2  CA        42.3850   52.2380   20.1780 C.3     1  GLN1        0.1698
      3  C         41.6340   53.4410   20.7690 C.2     1  GLN1        0.2593
      4  O         41.9900   54.5990   20.5720 O.2     1  GLN1       -0.2718
      5  CB        43.6830   51.9780   20.9540 C.3     1  GLN1        0.0381
      6  CG        44.0490   50.4780   21.0650 C.3     1  GLN1        0.0905
      7  CD        44.0420   49.7470   19.6860 C.2     1  GLN1        0.2608
      8  OE1       42.9770   49.5860   19.0530 O.2     1  GLN1       -0.2717
      9  NE2       45.2350   49.3210   19.2180 N.am    1  GLN1       -0.0878
     10  N         40.5650   53.1170   21.4770 N.am    2  SER2       -0.1938
     11  CA        39.6770   54.0510   22.1080 C.3     2  SER2        0.2055
     12  C         39.7010   53.7020   23.5850 C.2     2  SER2        0.2643
     13  O         40.2050   52.6420   23.9750 O.2     2  SER2       -0.2714
     14  CB        38.2660   53.8720   21.5370 C.3     2  SER2        0.2130
     15  OG        38.2760   53.9310   20.1070 O.3     2  SER2       -0.2179
     16  N         39.1790   54.5910   24.4190 N.am    3  TYR3       -0.1959
     17  CA        39.1710   54.3030   25.8440 C.3     3  TYR3        0.1771
     18  C         38.0600   53.3390   26.1670 C.2     3  TYR3        0.2620
     19  O         36.9490   53.4260   25.5950 O.2     3  TYR3       -0.2715
     20  CB        38.9320   55.5800   26.6560 C.3     3  TYR3        0.0574
     21  CG        39.9690   56.6140   26.3860 C.ar    3  TYR3       -0.0198
     22  CD1       41.2040   56.5500   27.0160 C.ar    3  TYR3       -0.0009
     23  CD2       39.7640   57.5890   25.4170 C.ar    3  TYR3       -0.0009
     24  CE1       42.2200   57.4240   26.6910 C.ar    3  TYR3        0.0417
     25  CE2       40.7900   58.4680   25.0670 C.ar    3  TYR3        0.0417
     26  CZ        42.0130   58.3740   25.7100 C.ar    3  TYR3        0.1957
     27  OH        43.0620   59.1750   25.3290 O.3     3  TYR3       -0.2866
     28  N         38.3750   52.4170   27.0700 N.am    4  THR4       -0.1938
     29  CA        37.3710   51.4850   27.5990 C.3     4  THR4        0.2002
     30  CB        37.4850   50.0620   26.9410 C.3     4  THR4        0.1551
     31  CG2       37.2130   50.1460   25.4340 C.3     4  THR4        0.0350
     32  OG1       38.8010   49.5630   27.2530 O.3     4  THR4       -0.2705
     33  P         39.2920   48.0940   26.9360 P.3     4  THR4        0.5326
     34  O1P       39.3670   47.9830   25.3450 O.2     4  THR4       -0.2224
     35  O2P       38.3110   47.0640   27.5230 O.3     4  THR4       -0.1145
     36  O3P       40.7410   47.9920   27.5400 O.3     4  THR4       -0.1145
     37  C         37.6790   51.4220   29.0860 C.2     4  THR4        0.2642
     38  O         38.7290   51.9160   29.5110 O.2     4  THR4       -0.2714
     39  N         36.7880   50.8520   29.8720 N.am    5  VAL5       -0.1941
     40  CA        37.0160   50.6400   31.3000 C.3     5  VAL5        0.1977
     41  C         36.5540   49.2720   31.7310 C.2     5  VAL5        0.3842
     42  O         35.9690   48.5200   30.8860 O.co2   5  VAL5       -0.2437
     43  CB        36.2920   51.6600   32.2150 C.3     5  VAL5        0.0311
     44  CG1       36.9540   53.0570   32.0280 C.3     5  VAL5        0.0023
     45  CG2       34.7730   51.6640   31.9200 C.3     5  VAL5        0.0023
     46  OXT       36.7840   48.9630   32.9360 O.co2   5  VAL5       -0.2437
@<TRIPOS>BOND
     1     1     2    1
     2     8     7    2
     3     9     7   am
     4     7     6    1
     5    15    14    1
     6     2     3    1
     7     2     5    1
     8     4     3    2
     9     3    10   am
    10     5     6    1
    11    10    11    1
    12    14    11    1
    13    11    12    1
    14    12    13    2
    15    12    16   am
    16    16    17    1
    17    25    23   ar
    18    25    26   ar
    19    27    26    1
    20    34    33    2
    21    23    21   ar
    22    31    30    1
    23    19    18    2
    24    26    24   ar
    25    17    18    1
    26    17    20    1
    27    18    28   am
    28    21    20    1
    29    21    22   ar
    30    24    22   ar
    31    33    32    1
    32    33    35    1
    33    33    36    1
    34    30    32    1
    35    30    29    1
    36    28    29    1
    37    29    37    1
    38    37    38    2
    39    37    39   am
    40    39    40    1
    41    42    41   ar
    42    40    41    1
    43    40    43    1
    44    41    46   ar
    45    45    43    1
    46    44    43    1
