@<TRIPOS>MOLECULE
1o9e_FSC_A_1.pdb
 48 51 0 0 0
SMALL
GASTEIGER

@<TRIPOS>ATOM
      1  C1        35.6590   49.1930   38.0610 C.3   1241  FSC1241     0.0361
      2  C4        36.4920   50.1180   37.5040 C.3   1241  FSC1241     0.0089
      3  C11       36.2070   51.6230   37.4270 C.3   1241  FSC1241     0.0440
      4  C18       35.9240   52.0570   35.9870 C.3   1241  FSC1241     0.0038
      5  C17       37.3930   52.4140   37.9720 C.3   1241  FSC1241     0.2083
      6  O24       36.9210   53.6560   38.4990 O.3   1241  FSC1241    -0.4485
      7  C31       37.7960   54.4870   39.1150 C.2   1241  FSC1241     0.3176
      8  O37       38.6440   54.0460   39.8750 O.2   1241  FSC1241    -0.2501
      9  C36       37.7160   55.9680   38.8690 C.3   1241  FSC1241     0.1212
     10  C10       37.7300   49.4310   36.9420 C.3   1241  FSC1241     0.0334
     11  C6        37.4690   47.9100   37.0180 C.3   1241  FSC1241     0.1556
     12  O13       37.7500   47.2570   35.7690 O.3   1241  FSC1241    -0.2228
     13  C2        35.9890   47.8130   37.4870 C.3   1241  FSC1241     0.0484
     14  C7        35.8440   46.7170   38.5520 C.3   1241  FSC1241     0.0070
     15  C5        35.1460   47.3290   36.3110 C.2   1241  FSC1241    -0.0326
     16  C12       34.0440   47.8220   35.6870 C.2   1241  FSC1241    -0.0465
     17  C20       33.6080   47.1000   34.4270 C.3   1241  FSC1241     0.0476
     18  C27       32.8500   45.8050   34.7500 C.3   1241  FSC1241     0.1462
     19  O32       33.0130   44.8670   33.6860 O.3   1241  FSC1241    -0.3508
     20  C38       32.2570   43.6790   33.9150 C.3   1241  FSC1241     0.1741
     21  C26       32.7160   48.0930   33.6660 C.3   1241  FSC1241     0.0069
     22  C25       32.1060   49.0140   34.7470 C.3   1241  FSC1241     0.0045
     23  C19       33.1010   49.0110   35.9180 C.3   1241  FSC1241     0.0206
     24  C15       32.3800   49.0790   37.3340 C.3   1241  FSC1241     0.0366
     25  C23       32.0750   47.7100   37.9640 C.3   1241  FSC1241     0.0030
     26  C9        33.1390   49.9830   38.3780 C.3   1241  FSC1241     0.1792
     27  O16       32.2450   50.2480   39.4560 O.3   1241  FSC1241    -0.2205
     28  C3        34.4640   49.4110   39.0190 C.3   1241  FSC1241     0.1483
     29  O8        34.8820   50.3460   40.0340 O.3   1241  FSC1241    -0.3284
     30  C14       34.9630   49.8610   41.4040 C.3   1241  FSC1241     0.2706
     31  O22       36.2230   49.1290   41.6190 O.3   1241  FSC1241    -0.3257
     32  C30       37.4510   49.9450   41.5300 C.3   1241  FSC1241     0.1812
     33  C33       37.3750   51.2980   42.3260 C.3   1241  FSC1241     0.2239
     34  O39       38.5100   52.1010   41.9930 O.3   1241  FSC1241    -0.2165
     35  C28       36.0570   52.0020   41.9240 C.3   1241  FSC1241     0.2366
     36  O34       35.8930   53.4040   42.3160 O.3   1241  FSC1241    -0.4466
     37  C40       35.9270   53.8480   43.5980 C.2   1241  FSC1241     0.3176
     38  O43       36.9920   54.1850   44.0910 O.2   1241  FSC1241    -0.2501
     39  C42       34.6420   53.9700   44.4010 C.3   1241  FSC1241     0.1212
     40  C21       34.8800   51.0810   42.3540 C.3   1241  FSC1241     0.2501
     41  O29       33.6310   51.7460   42.1640 O.3   1241  FSC1241    -0.2137
     42  C35       38.6510   49.1170   42.0000 C.3   1241  FSC1241     0.1746
     43  O41       38.2970   48.3300   43.1690 O.3   1241  FSC1241    -0.3518
     44  C44       39.0400   47.1100   43.4980 C.3   1241  FSC1241     0.1114
     45  C47       39.0280   46.1390   42.3090 C.3   1241  FSC1241     0.0342
     46  C46       38.3790   46.4140   44.6960 C.3   1241  FSC1241     0.0342
     47  C45       40.5000   47.4390   43.8450 C.2   1241  FSC1241     0.0002
     48  C48       40.8270   48.4140   44.7290 C.2   1241  FSC1241    -0.0025
@<TRIPOS>BOND
     1    21    17    1
     2    21    22    1
     3    19    20    1
     4    19    18    1
     5    17    18    1
     6    17    16    1
     7    22    23    1
     8    16    23    1
     9    16    15    2
    10    12    11    1
    11    23    24    1
    12     4     3    1
    13    15    13    1
    14    10    11    1
    15    10     2    1
    16    11    13    1
    17    24    25    1
    18    24    26    1
    19     3     2    1
    20     3     5    1
    21    13     1    1
    22    13    14    1
    23     2     1    1
    24     5     6    1
    25     1    28    1
    26    26    28    1
    27    26    27    1
    28     6     7    1
    29     9     7    1
    30    28    29    1
    31     7     8    2
    32    29    30    1
    33    30    31    1
    34    30    40    1
    35    32    31    1
    36    32    42    1
    37    32    33    1
    38    35    36    1
    39    35    33    1
    40    35    40    1
    41    34    33    1
    42    42    43    1
    43    41    40    1
    44    45    44    1
    45    36    37    1
    46    43    44    1
    47    44    47    1
    48    44    46    1
    49    37    38    2
    50    37    39    1
    51    47    48    2
