@<TRIPOS>MOLECULE
1o9f_FSC_A_1.pdb
 48 51 0 0 0
SMALL
GASTEIGER

@<TRIPOS>ATOM
      1  C1        35.8140   49.4170   38.2120 C.2   1240  FSC1240    -0.0172
      2  C4        36.5970   50.3800   37.6450 C.2   1240  FSC1240    -0.0436
      3  C11       36.3010   51.8830   37.6790 C.3   1240  FSC1240     0.0617
      4  C18       35.8440   52.3720   36.3030 C.3   1240  FSC1240     0.0082
      5  C17       37.5380   52.6630   38.1030 C.3   1240  FSC1240     0.2123
      6  O24       37.2100   54.0560   38.1570 O.3   1240  FSC1240    -0.4481
      7  C31       37.9050   54.8670   38.9910 C.2   1240  FSC1240     0.3176
      8  O37       38.7720   54.4120   39.7230 O.2   1240  FSC1240    -0.2501
      9  C36       37.6090   56.3470   39.0170 C.3   1240  FSC1240     0.1212
     10  C10       37.7910   49.7390   36.9450 C.3   1240  FSC1240     0.0551
     11  C6        37.6710   48.2270   37.1890 C.3   1240  FSC1240     0.1630
     12  O13       38.0420   47.4660   36.0340 O.3   1240  FSC1240    -0.2221
     13  C2        36.1970   48.0560   37.6410 C.3   1240  FSC1240     0.0632
     14  C7        36.0910   46.9450   38.7040 C.3   1240  FSC1240     0.0110
     15  C5        35.3840   47.5500   36.4460 C.2   1240  FSC1240    -0.0289
     16  C12       34.2300   47.9600   35.8480 C.2   1240  FSC1240    -0.0462
     17  C20       33.8020   47.1730   34.6270 C.3   1240  FSC1240     0.0476
     18  C27       33.2520   45.7940   35.0060 C.3   1240  FSC1240     0.1462
     19  O32       33.2100   44.9710   33.8460 O.3   1240  FSC1240    -0.3508
     20  C38       32.4410   43.7890   34.0590 C.3   1240  FSC1240     0.1741
     21  C26       32.7280   48.0150   33.9060 C.3   1240  FSC1240     0.0069
     22  C25       32.1770   49.0090   34.9500 C.3   1240  FSC1240     0.0045
     23  C19       33.2150   49.0880   36.0870 C.3   1240  FSC1240     0.0206
     24  C15       32.5330   49.1360   37.5300 C.3   1240  FSC1240     0.0370
     25  C23       32.3200   47.7570   38.1900 C.3   1240  FSC1240     0.0030
     26  C9        33.2770   50.0970   38.5310 C.3   1240  FSC1240     0.1831
     27  O16       32.3890   50.3770   39.6080 O.3   1240  FSC1240    -0.2202
     28  C3        34.6250   49.5830   39.1750 C.3   1240  FSC1240     0.1661
     29  O8        35.0140   50.5390   40.1800 O.3   1240  FSC1240    -0.3242
     30  C14       35.1050   50.0660   41.5490 C.3   1240  FSC1240     0.2709
     31  O22       36.3670   49.3470   41.7620 O.3   1240  FSC1240    -0.3257
     32  C30       37.5790   50.1720   41.6350 C.3   1240  FSC1240     0.1812
     33  C33       37.5150   51.5310   42.4300 C.3   1240  FSC1240     0.2239
     34  O39       38.6210   52.3450   42.0210 O.3   1240  FSC1240    -0.2165
     35  C28       36.1680   52.2330   42.0950 C.3   1240  FSC1240     0.2366
     36  O34       35.9450   53.5960   42.5820 O.3   1240  FSC1240    -0.4466
     37  C40       36.5700   54.1500   43.6610 C.2   1240  FSC1240     0.3176
     38  O43       37.7230   54.5590   43.5700 O.2   1240  FSC1240    -0.2501
     39  C42       35.8240   54.3050   44.9640 C.3   1240  FSC1240     0.1212
     40  C21       35.0060   51.2930   42.4920 C.3   1240  FSC1240     0.2501
     41  O29       33.7620   51.9540   42.2750 O.3   1240  FSC1240    -0.2137
     42  C35       38.8020   49.3620   42.0760 C.3   1240  FSC1240     0.1746
     43  O41       38.4770   48.5590   43.2390 O.3   1240  FSC1240    -0.3518
     44  C44       39.2110   47.3260   43.5060 C.3   1240  FSC1240     0.1114
     45  C47       39.2050   46.4150   42.2680 C.3   1240  FSC1240     0.0342
     46  C46       38.5480   46.5710   44.6650 C.3   1240  FSC1240     0.0342
     47  C45       40.6600   47.6520   43.8800 C.2   1240  FSC1240     0.0002
     48  C48       40.9620   48.5880   44.8100 C.2   1240  FSC1240    -0.0025
@<TRIPOS>BOND
     1    19    20    1
     2    19    18    1
     3    21    17    1
     4    21    22    1
     5    17    18    1
     6    17    16    1
     7    22    23    1
     8    16    23    1
     9    16    15    2
    10    12    11    1
    11    23    24    1
    12     4     3    1
    13    15    13    1
    14    10    11    1
    15    10     2    1
    16    11    13    1
    17    24    25    1
    18    24    26    1
    19    13     1    1
    20    13    14    1
    21     2     3    1
    22     2     1    2
    23     3     5    1
    24     5     6    1
    25     6     7    1
    26     1    28    1
    27    26    28    1
    28    26    27    1
    29     7     9    1
    30     7     8    2
    31    28    29    1
    32    29    30    1
    33    30    31    1
    34    30    40    1
    35    32    31    1
    36    32    42    1
    37    32    33    1
    38    34    33    1
    39    42    43    1
    40    35    33    1
    41    35    40    1
    42    35    36    1
    43    45    44    1
    44    41    40    1
    45    36    37    1
    46    43    44    1
    47    44    47    1
    48    44    46    1
    49    38    37    2
    50    37    39    1
    51    47    48    2
