@<TRIPOS>MOLECULE
1o9f_III_P_1.pdb
 46 46 0 0 0
SMALL
GASTEIGER

@<TRIPOS>ATOM
      1  N         42.9080   51.9150   18.4070 N.3     1  GLN1       -0.1231
      2  CA        41.9740   51.4220   19.4560 C.3     1  GLN1        0.1698
      3  C         41.2560   52.5500   20.1800 C.2     1  GLN1        0.2593
      4  O         41.6160   53.7230   20.0560 O.2     1  GLN1       -0.2718
      5  CB        42.7170   50.5500   20.4740 C.3     1  GLN1        0.0381
      6  CG        42.7450   49.0680   20.1160 C.3     1  GLN1        0.0905
      7  CD        43.3730   48.7880   18.7540 C.2     1  GLN1        0.2608
      8  OE1       42.8440   49.1940   17.7140 O.2     1  GLN1       -0.2717
      9  NE2       44.5080   48.0900   18.7570 N.am    1  GLN1       -0.0878
     10  N         40.2300   52.1720   20.9370 N.am    2  SER2       -0.1938
     11  CA        39.4250   53.1230   21.6880 C.3     2  SER2        0.2055
     12  C         39.4250   52.7540   23.1650 C.2     2  SER2        0.2643
     13  O         39.8220   51.6490   23.5450 O.2     2  SER2       -0.2714
     14  CB        37.9850   53.1340   21.1580 C.3     2  SER2        0.2130
     15  OG        37.9390   53.4740   19.7790 O.3     2  SER2       -0.2179
     16  N         38.9660   53.6930   23.9850 N.am    3  TYR3       -0.1959
     17  CA        38.9010   53.5180   25.4270 C.3     3  TYR3        0.1771
     18  C         37.7650   52.5990   25.8660 C.2     3  TYR3        0.2620
     19  O         36.6160   52.7520   25.4300 O.2     3  TYR3       -0.2715
     20  CB        38.7330   54.8820   26.1070 C.3     3  TYR3        0.0574
     21  CG        39.8470   55.8590   25.8090 C.ar    3  TYR3       -0.0198
     22  CD1       41.1260   55.6780   26.3450 C.ar    3  TYR3       -0.0009
     23  CD2       39.6330   56.9500   24.9660 C.ar    3  TYR3       -0.0009
     24  CE1       42.1620   56.5550   26.0480 C.ar    3  TYR3        0.0417
     25  CE2       40.6630   57.8360   24.6580 C.ar    3  TYR3        0.0417
     26  CZ        41.9240   57.6320   25.2020 C.ar    3  TYR3        0.1957
     27  OH        42.9440   58.5010   24.8870 O.3     3  TYR3       -0.2866
     28  N         38.1050   51.6450   26.7330 N.am    4  THR4       -0.1938
     29  CA        37.1410   50.6990   27.3020 C.3     4  THR4        0.2002
     30  CB        37.2440   49.3130   26.6670 C.3     4  THR4        0.1551
     31  CG2       37.1440   49.4000   25.1360 C.3     4  THR4        0.0350
     32  OG1       38.4970   48.7590   27.0640 O.3     4  THR4       -0.2705
     33  P         38.9220   47.2760   26.6250 P.3     4  THR4        0.5326
     34  O1P       39.0050   47.3010   25.0390 O.2     4  THR4       -0.2224
     35  O2P       37.8130   46.2560   27.1620 O.3     4  THR4       -0.1145
     36  O3P       40.3800   47.0620   27.2900 O.3     4  THR4       -0.1145
     37  C         37.4110   50.5680   28.7980 C.2     4  THR4        0.2642
     38  O         38.4360   51.0350   29.2820 O.2     4  THR4       -0.2714
     39  N         36.5040   49.9350   29.5330 N.am    5  VAL5       -0.1941
     40  CA        36.6950   49.7690   30.9700 C.3     5  VAL5        0.1977
     41  C         36.2880   48.3630   31.3930 C.2     5  VAL5        0.3842
     42  O         35.6760   47.6600   30.5520 O.co2   5  VAL5       -0.2437
     43  CB        35.8660   50.8140   31.7700 C.3     5  VAL5        0.0311
     44  CG1       34.3750   50.6260   31.5000 C.3     5  VAL5        0.0023
     45  CG2       36.1670   50.6950   33.2480 C.3     5  VAL5        0.0023
     46  OXT       36.5820   47.9860   32.5520 O.co2   5  VAL5       -0.2437
@<TRIPOS>BOND
     1     8     7    2
     2     1     2    1
     3     7     9   am
     4     7     6    1
     5     2     3    1
     6     2     5    1
     7    15    14    1
     8     4     3    2
     9     6     5    1
    10     3    10   am
    11    10    11    1
    12    14    11    1
    13    11    12    1
    14    12    13    2
    15    12    16   am
    16    16    17    1
    17    25    23   ar
    18    25    26   ar
    19    27    26    1
    20    23    21   ar
    21    34    33    2
    22    31    30    1
    23    26    24   ar
    24    17    18    1
    25    17    20    1
    26    19    18    2
    27    21    20    1
    28    21    22   ar
    29    18    28   am
    30    24    22   ar
    31    33    32    1
    32    33    35    1
    33    33    36    1
    34    30    32    1
    35    30    29    1
    36    28    29    1
    37    29    37    1
    38    37    38    2
    39    37    39   am
    40    39    40    1
    41    42    41   ar
    42    40    41    1
    43    40    43    1
    44    41    46   ar
    45    44    43    1
    46    43    45    1
