@<TRIPOS>MOLECULE
1o9j_NAD_A_1.pdb
 44 48 0 0 0
SMALL
GASTEIGER

@<TRIPOS>ATOM
      1  PA        22.7600  -19.0510   45.8510 P.3   1501  NAD1501     0.2189
      2  O1A       21.3180  -18.7100   45.8000 O.2   1501  NAD1501    -0.5170
      3  O2A       23.0920  -20.1130   46.9190 O.3   1501  NAD1501    -0.4371
      4  O5B       23.6270  -17.6840   46.0460 O.3   1501  NAD1501    -0.3112
      5  C5B       23.7080  -16.7180   45.0120 C.3   1501  NAD1501     0.1813
      6  C4B       24.1360  -15.3380   45.5160 C.3   1501  NAD1501     0.1821
      7  O4B       23.1060  -14.7820   46.3150 O.3   1501  NAD1501    -0.3135
      8  C3B       25.3800  -15.4190   46.3860 C.3   1501  NAD1501     0.2184
      9  O3B       26.2100  -14.3140   46.1460 O.3   1501  NAD1501    -0.2174
     10  C2B       24.8030  -15.4260   47.7900 C.3   1501  NAD1501     0.2570
     11  O2B       25.6730  -14.9670   48.7910 O.3   1501  NAD1501    -0.2130
     12  C1B       23.5740  -14.5430   47.6380 C.3   1501  NAD1501     0.3186
     13  N9A       22.5310  -14.7790   48.6640 N.pl3 1501  NAD1501    -0.1439
     14  C8A       22.2390  -15.9230   49.3900 C.3   1501  NAD1501     0.3377
     15  N7A       21.2020  -15.6580   50.2280 N.2   1501  NAD1501    -0.2095
     16  C5A       20.8240  -14.3660   50.0520 C.2   1501  NAD1501     0.2526
     17  C6A       19.8410  -13.5750   50.6140 C.2   1501  NAD1501     0.4393
     18  N6A       19.0380  -14.0560   51.5370 N.pl3 1501  NAD1501     0.2180
     19  N1A       19.6710  -12.2640   50.2330 N.2   1501  NAD1501     0.0021
     20  C2A       20.5010  -11.7360   49.2780 C.3   1501  NAD1501     0.5254
     21  N3A       21.4800  -12.5280   48.7000 N.2   1501  NAD1501    -0.0055
     22  C4A       21.6420  -13.8120   49.0770 C.2   1501  NAD1501     0.3518
     23  O3        23.1270  -19.6150   44.3850 O.3   1501  NAD1501    -0.2703
     24  PN        24.4290  -20.5170   44.1640 P.3   1501  NAD1501     0.2189
     25  O1N       24.1460  -21.7600   44.9010 O.3   1501  NAD1501    -0.4371
     26  O2N       25.5890  -19.6620   44.5050 O.2   1501  NAD1501    -0.5170
     27  O5D       24.4610  -20.7970   42.5690 O.3   1501  NAD1501    -0.3112
     28  C5D       23.8630  -21.9260   41.9610 C.3   1501  NAD1501     0.1813
     29  C4D       22.5140  -21.5600   41.3420 C.3   1501  NAD1501     0.1799
     30  O4D       22.6860  -20.4500   40.4730 O.3   1501  NAD1501    -0.3327
     31  C3D       21.9260  -22.6980   40.5040 C.3   1501  NAD1501     0.2158
     32  O3D       20.5930  -22.9690   40.8830 O.3   1501  NAD1501    -0.2175
     33  C2D       22.0280  -22.1910   39.0780 C.3   1501  NAD1501     0.2309
     34  O2D       21.0010  -22.6130   38.2140 O.3   1501  NAD1501    -0.2158
     35  C1D       21.9660  -20.6930   39.2740 C.3   1501  NAD1501     0.2263
     36  N1N       22.5030  -19.9790   38.1020 N.pl3 1501  NAD1501    -0.2787
     37  C2N       21.6290  -19.4160   37.2120 C.3   1501  NAD1501     0.1244
     38  C3N       22.1270  -18.7390   36.0930 C.2   1501  NAD1501     0.0544
     39  C7N       21.2180  -18.0960   35.0710 C.2   1501  NAD1501     0.2818
     40  O7N       21.8150  -17.4410   33.9950 O.2   1501  NAD1501    -0.2670
     41  N7N       19.8950  -18.1420   35.1430 N.am  1501  NAD1501    -0.0839
     42  C4N       23.5100  -18.6410   35.9130 C.2   1501  NAD1501     0.0033
     43  C5N       24.3750  -19.2280   36.8310 C.2   1501  NAD1501     0.0157
     44  C6N       23.8540  -19.8960   37.9300 C.2   1501  NAD1501     0.0633
@<TRIPOS>BOND
     1    40    39    2
     2    39    41   am
     3    39    38    1
     4    42    38    2
     5    42    43    1
     6    38    37    1
     7    43    44    2
     8    37    36    1
     9    44    36    1
    10    36    35    1
    11    34    33    1
    12    33    35    1
    13    33    31    1
    14    35    30    1
    15    30    29    1
    16    31    32    1
    17    31    29    1
    18    29    28    1
    19    28    27    1
    20    27    24    1
    21    24    23    1
    22    24    26    2
    23    24    25    1
    24    23     1    1
    25     5     6    1
    26     5     4    1
    27     6     7    1
    28     6     8    1
    29     2     1    2
    30     1     4    1
    31     1     3    1
    32     9     8    1
    33     7    12    1
    34     8    10    1
    35    12    10    1
    36    12    13    1
    37    10    11    1
    38    13    22    1
    39    13    14    1
    40    21    22    2
    41    21    20    1
    42    22    16    1
    43    20    19    1
    44    14    15    1
    45    16    15    2
    46    16    17    1
    47    19    17    2
    48    17    18    1
