@<TRIPOS>MOLECULE
1o9l_EMT_A_1.pdb
 13 13 0 0 0
SMALL
GASTEIGER

@<TRIPOS>ATOM
      1  SD        31.6390   15.5550   22.3880 S.3   9007  EMT9007     0.0000
      2 HG         31.8190   14.6580   20.2130 Hg    9007  EMT9007     0.0000
      3  C1        31.4370   13.0650   19.0620 C.3   9007  EMT9007     0.0000
      4  C2        30.2520   12.4150   19.6070 C.3   9007  EMT9007     0.0000
      5  CE1       31.9260   17.3140   22.0130 C.ar  9007  EMT9007     0.0000
      6  CD1       33.2270   17.7750   21.8310 C.ar  9007  EMT9007     0.0000
      7  CG1       33.4760   19.1350   21.7140 C.ar  9007  EMT9007     0.0000
      8  CD2       32.4250   20.0410   21.7560 C.ar  9007  EMT9007     0.0000
      9  CE2       31.1170   19.5880   21.9260 C.ar  9007  EMT9007     0.0000
     10  CZ        30.8610   18.2260   22.0350 C.ar  9007  EMT9007     0.0000
     11  CG        29.4110   17.7460   22.1160 C.2   9007  EMT9007     0.0000
     12  OD2       28.5160   18.6150   22.2140 O.co2 9007  EMT9007     0.0000
     13  OD1       29.1860   16.5150   22.1070 O.co2 9007  EMT9007     0.0000
@<TRIPOS>BOND
     1     3     4    1
     2     3     2    1
     3     2     1    1
     4     7     8   ar
     5     7     6   ar
     6     8     9   ar
     7     6     5   ar
     8     9    10   ar
     9     5    10   ar
    10     5     1    1
    11    10    11    1
    12    13    11   ar
    13    11    12   ar
