@<TRIPOS>MOLECULE
1o9s_SAH_A_1.pdb
 25 27 0 0 0
SMALL
GASTEIGER

@<TRIPOS>ATOM
      1  N          9.7940   -0.1210   45.5010 N.3   1367  SAH1367    -0.1245
      2  CA         9.2190    0.1830   44.1850 C.3   1367  SAH1367     0.1570
      3  CB        10.2350    0.3690   43.0490 C.3   1367  SAH1367     0.0387
      4  CG        10.6690    1.7740   42.6420 C.3   1367  SAH1367     0.0596
      5  SD         9.3620    2.8290   41.9410 S.3   1367  SAH1367    -0.1375
      6  C          8.3140   -0.9680   43.7570 C.2   1367  SAH1367     0.2261
      7  O          8.2970   -2.0580   44.3250 O.2   1367  SAH1367    -0.2867
      8  C5'        9.4010    4.1620   43.1440 C.3   1367  SAH1367     0.0899
      9  C4'        8.6640    3.7780   44.4200 C.3   1367  SAH1367     0.1630
     10  O4'        9.5300    2.9830   45.2380 O.3   1367  SAH1367    -0.3153
     11  C3'        8.1910    4.9470   45.2700 C.3   1367  SAH1367     0.2168
     12  O3'        6.8400    5.3210   45.0460 O.3   1367  SAH1367    -0.2175
     13  C2'        8.3520    4.4300   46.6890 C.3   1367  SAH1367     0.2569
     14  O2'        7.1610    3.8290   47.1670 O.3   1367  SAH1367    -0.2130
     15  C1'        9.4490    3.3890   46.5900 C.3   1367  SAH1367     0.3185
     16  N9        10.7880    3.9060   46.9990 N.pl3 1367  SAH1367    -0.1439
     17  C8        11.8660    4.1150   46.1840 C.3   1367  SAH1367     0.3377
     18  N7        12.9110    4.5520   46.9300 N.2   1367  SAH1367    -0.2095
     19  C5        12.5130    4.6110   48.2210 C.2   1367  SAH1367     0.2526
     20  C6        13.1740    4.9800   49.3950 C.2   1367  SAH1367     0.4393
     21  N6        14.4450    5.3800   49.3720 N.pl3 1367  SAH1367     0.2180
     22  N1        12.4900    4.9330   50.5760 N.2   1367  SAH1367     0.0021
     23  C2        11.1800    4.5200   50.6200 C.3   1367  SAH1367     0.5254
     24  N3        10.5200    4.1520   49.4510 N.2   1367  SAH1367    -0.0055
     25  C4        11.1860    4.1990   48.2780 C.2   1367  SAH1367     0.3518
@<TRIPOS>BOND
     1     5     4    1
     2     5     8    1
     3     4     3    1
     4     3     2    1
     5     8     9    1
     6     6     2    1
     7     6     7    2
     8     2     1    1
     9     9    10    1
    10     9    11    1
    11    12    11    1
    12    10    15    1
    13    11    13    1
    14    17    18    1
    15    17    16    1
    16    15    13    1
    17    15    16    1
    18    13    14    1
    19    18    19    2
    20    16    25    1
    21    19    25    1
    22    19    20    1
    23    25    24    2
    24    21    20    1
    25    20    22    2
    26    24    23    1
    27    22    23    1
