@<TRIPOS>MOLECULE
1o9s_III_L_1.pdb
 49 48 0 0 0
SMALL
GASTEIGER

@<TRIPOS>ATOM
      1  N         11.8240   34.1650   26.0260 N.3     1  ALA1       -0.1231
      2  CA        11.3760   35.3540   25.2660 C.3     1  ALA1        0.1694
      3  C          9.8470   35.3490   25.1110 C.2     1  ALA1        0.2592
      4  O          9.3160   34.5400   24.3630 O.2     1  ALA1       -0.2718
      5  CB        12.0500   35.3780   23.8990 C.3     1  ALA1        0.0304
      6  N          9.1530   36.0920   25.9710 N.am    2  ARG2       -0.1966
      7  CA         7.7560   36.4980   25.7970 C.3     2  ARG2        0.1729
      8  C          7.2720   36.9960   24.4070 C.2     2  ARG2        0.2617
      9  O          6.2850   37.7140   24.3490 O.2     2  ARG2       -0.2715
     10  CB         7.4050   37.5440   26.8700 C.3     2  ARG2        0.0348
     11  CG         6.6650   36.9720   28.0900 C.3     2  ARG2        0.0492
     12  CD         6.0060   38.0440   28.9700 C.3     2  ARG2        0.2205
     13  NE         5.7450   37.6020   30.3340 N.pl3   2  ARG2       -0.0865
     14  CZ         5.8560   38.3870   31.4020 C.cat   2  ARG2        0.5346
     15  NH1        6.2330   39.6520   31.2780 N.pl3   2  ARG2        0.1354
     16  NH2        5.5960   37.9100   32.6040 N.pl3   2  ARG2        0.1354
     17  N          7.9380   36.6240   23.3090 N.am    3  THR3       -0.1937
     18  CA         7.4350   36.9260   21.9620 C.3     3  THR3        0.2028
     19  C          7.5240   35.7460   20.9880 C.2     3  THR3        0.2642
     20  O          7.9140   34.6330   21.3300 O.2     3  THR3       -0.2714
     21  CB         8.1800   38.1010   21.3330 C.3     3  THR3        0.1808
     22  OG1        9.4650   37.6680   20.8610 O.3     3  THR3       -0.2208
     23  CG2        8.5070   39.1370   22.3380 C.3     3  THR3        0.0379
     24  N          6.9850   35.9580   19.5070 N.am    4  LYS4       -0.1963
     25  CA         7.2320   34.8120   18.6530 C.3     4  LYS4        0.1728
     26  CB         6.2770   34.9670   17.4970 C.3     4  LYS4        0.0311
     27  CG         4.8380   35.2240   17.9430 C.3     4  LYS4        0.0038
     28  CD         4.1190   36.0090   16.8600 C.3     4  LYS4        0.0189
     29  CE         2.6420   36.0920   17.1840 C.3     4  LYS4        0.0888
     30  NZ         1.9700   36.6430   16.0200 N.3     4  LYS4       -0.2165
     31  CM         0.5330   36.8680   16.0700 C.3     4  LYS4        0.1075
     32  C          8.6590   34.8190   18.1600 C.2     4  LYS4        0.2616
     33  O          9.2230   35.8600   17.8940 O.2     4  LYS4       -0.2715
     34  N          8.8120   33.1630   17.5880 N.am    5  GLN5       -0.1963
     35  CA        10.2550   33.1050   17.2390 C.3     5  GLN5        0.1733
     36  C         10.4850   32.0940   16.1350 C.2     5  GLN5        0.2617
     37  O          9.8110   31.0630   16.0770 O.2     5  GLN5       -0.2715
     38  CB        11.0940   32.7400   18.4740 C.3     5  GLN5        0.0408
     39  CG        10.2820   32.4450   19.7230 C.3     5  GLN5        0.0908
     40  CD        10.3890   33.5440   20.7540 C.2     5  GLN5        0.2608
     41  OE1       11.0830   34.5390   20.5380 O.2     5  GLN5       -0.2717
     42  NE2        9.7180   33.3650   21.8880 N.am    5  GLN5       -0.0878
     43  N         11.2990   32.4890   15.1650 N.am    6  THR6       -0.1951
     44  CA        11.8480   31.6180   14.1490 C.3     6  THR6        0.1897
     45  C         13.0250   30.7760   14.6410 C.2     6  THR6        0.2313
     46  O         13.0480   29.5570   14.4470 O.2     6  THR6       -0.2863
     47  CB        12.2950   32.5090   12.9940 C.3     6  THR6        0.1794
     48  OG1       11.7550   33.8310   13.1670 O.3     6  THR6       -0.2208
     49  CG2       11.6930   32.0570   11.6910 C.3     6  THR6        0.0378
@<TRIPOS>BOND
     1    49    47    1
     2    47    48    1
     3    47    44    1
     4    44    45    1
     5    44    43    1
     6    46    45    2
     7    43    36   am
     8    30    31    1
     9    30    29    1
    10    37    36    2
    11    36    35    1
    12    28    29    1
    13    28    27    1
    14    35    34    1
    15    35    38    1
    16    26    27    1
    17    26    25    1
    18    34    32   am
    19    33    32    2
    20    32    25    1
    21    38    39    1
    22    25    24    1
    23    24    19   am
    24    39    40    1
    25    41    40    2
    26    40    42   am
    27    22    21    1
    28    19    20    2
    29    19    18    1
    30    21    18    1
    31    21    23    1
    32    18    17    1
    33    17     8   am
    34     5     2    1
    35     9     8    2
    36     4     3    2
    37     8     7    1
    38     3     2    1
    39     3     6   am
    40     2     1    1
    41     7     6    1
    42     7    10    1
    43    10    11    1
    44    11    12    1
    45    12    13    1
    46    13    14    2
    47    15    14    1
    48    14    16    1
