@<TRIPOS>MOLECULE
1o9t_ATP_B_1.pdb
 31 33 0 0 0
SMALL
GASTEIGER

@<TRIPOS>ATOM
      1  PG         5.6220   32.9110   47.8770 P.3   1397  ATP1397     0.5373
      2  O1G        4.1800   33.1350   47.1320 O.3   1397  ATP1397    -0.1143
      3  O2G        6.0780   33.9440   48.7080 O.3   1397  ATP1397    -0.1143
      4  O3G        6.5730   32.5240   46.6760 O.2   1397  ATP1397    -0.2221
      5  PB         3.7920   31.5760   49.5430 P.3   1397  ATP1397     0.2277
      6  O1B        3.8900   30.8120   50.9590 O.3   1397  ATP1397    -0.4368
      7  O2B        2.8910   32.6160   49.3790 O.2   1397  ATP1397    -0.5168
      8  O3B        4.9100   31.3880   48.4860 O.3   1397  ATP1397    -0.2258
      9  PA         1.7440   30.3450   47.4690 P.3   1397  ATP1397     0.2189
     10  O1A        0.5090   30.8330   48.2180 O.3   1397  ATP1397    -0.4371
     11  O2A        2.3160   31.0420   46.2420 O.2   1397  ATP1397    -0.5170
     12  O3A        3.0650   30.2060   48.7440 O.3   1397  ATP1397    -0.2700
     13  O5'        1.1420   28.9790   46.7170 O.3   1397  ATP1397    -0.3112
     14  C5'        1.8450   27.9990   45.9160 C.3   1397  ATP1397     0.1813
     15  C4'        3.2260   27.4710   46.4000 C.3   1397  ATP1397     0.1821
     16  O4'        3.2940   27.4780   47.8940 O.3   1397  ATP1397    -0.3135
     17  C3'        3.4110   26.0320   46.0190 C.3   1397  ATP1397     0.2184
     18  O3'        4.4030   25.9560   45.0750 O.3   1397  ATP1397    -0.2174
     19  C2'        3.7210   25.2320   47.2900 C.3   1397  ATP1397     0.2570
     20  O2'        4.9910   24.5620   47.2270 O.3   1397  ATP1397    -0.2130
     21  C1'        3.7730   26.2050   48.4320 C.3   1397  ATP1397     0.3186
     22  N9         3.5040   25.6110   49.8390 N.pl3 1397  ATP1397    -0.1439
     23  C8         4.2510   25.7160   50.9910 C.3   1397  ATP1397     0.3377
     24  N7         3.7590   25.0090   52.0330 N.2   1397  ATP1397    -0.2095
     25  C5         2.6630   24.4750   51.4910 C.2   1397  ATP1397     0.2526
     26  C6         1.7260   23.5770   52.1170 C.2   1397  ATP1397     0.4393
     27  N6         1.8360   23.2220   53.4100 N.pl3 1397  ATP1397     0.2180
     28  N1         0.6640   23.1300   51.3400 N.2   1397  ATP1397     0.0021
     29  C2         0.5150   23.4690   50.0220 C.3   1397  ATP1397     0.5254
     30  N3         1.4240   24.3110   49.4540 N.2   1397  ATP1397    -0.0055
     31  C4         2.5100   24.8010   50.1320 C.2   1397  ATP1397     0.3518
@<TRIPOS>BOND
     1    18    17    1
     2    14    15    1
     3    14    13    1
     4    17    15    1
     5    17    19    1
     6    11     9    2
     7    15    16    1
     8     4     1    2
     9    13     9    1
    10     2     1    1
    11    20    19    1
    12    19    21    1
    13     9    10    1
    14     9    12    1
    15     1     8    1
    16     1     3    1
    17    16    21    1
    18    21    22    1
    19     8     5    1
    20    12     5    1
    21     7     5    2
    22    30    29    1
    23    30    31    2
    24     5     6    1
    25    22    31    1
    26    22    23    1
    27    29    28    1
    28    31    25    1
    29    23    24    1
    30    28    26    2
    31    25    24    2
    32    25    26    1
    33    26    27    1
