@<TRIPOS>MOLECULE
1o9u_ADZ_A_1.pdb
 11 12 0 0 0
SMALL
GASTEIGER

@<TRIPOS>ATOM
      1  N9        -8.6590   43.3590  134.6350 N.pl3 1386  ADZ1386    -0.1635
      2  C8        -9.8250   42.7230  134.3380 C.3   1386  ADZ1386     0.3360
      3  N7        -9.9650   41.6380  135.1460 N.2   1386  ADZ1386    -0.2096
      4  C5        -8.9030   41.5780  135.9530 C.2   1386  ADZ1386     0.2525
      5  C6        -8.4220   40.7130  137.0070 C.2   1386  ADZ1386     0.4393
      6  N6        -9.1420   39.6350  137.3930 N.pl3 1386  ADZ1386     0.2180
      7  N1        -7.2100   40.9830  137.6460 N.2   1386  ADZ1386     0.0021
      8  C2        -6.4260   42.0600  137.3050 C.3   1386  ADZ1386     0.5254
      9  N3        -6.8650   42.8950  136.3010 N.2   1386  ADZ1386    -0.0055
     10  C4        -8.0580   42.6940  135.6130 C.2   1386  ADZ1386     0.3502
     11  C1'       -8.0970   44.6040  133.9870 C.3   1386  ADZ1386     0.2552
@<TRIPOS>BOND
     1    11     1    1
     2     2     1    1
     3     2     3    1
     4     1    10    1
     5     3     4    2
     6    10     4    1
     7    10     9    2
     8     4     5    1
     9     9     8    1
    10     5     6    1
    11     5     7    2
    12     8     7    1
