@<TRIPOS>MOLECULE
1o9v_SNG_A_1.pdb
 16 16 0 0 0
SMALL
GASTEIGER

@<TRIPOS>ATOM
      1  C1        37.4560   46.9450   13.7920 C.3   1177  SNG1177     0.0000
      2  C2        36.1080   46.4220   14.3070 C.3   1177  SNG1177     0.0000
      3  C3        36.1160   44.8760   14.3200 C.3   1177  SNG1177     0.0000
      4  C4        36.5240   44.3010   12.9560 C.3   1177  SNG1177     0.0000
      5  C5        37.8620   44.9270   12.5250 C.3   1177  SNG1177     0.0000
      6  C6        38.2950   44.4280   11.1250 C.3   1177  SNG1177     0.0000
      7  C7        34.8800   47.6840   16.0550 C.2   1177  SNG1177     0.0000
      8  C8        33.9760   48.1280   14.9380 C.3   1177  SNG1177     0.0000
      9  CM        36.0600   49.0490   12.5620 C.3   1177  SNG1177     0.0000
     10  N2        35.8740   46.8910   15.6930 N.am  1177  SNG1177     0.0000
     11  O3        34.7950   44.3960   14.6770 O.3   1177  SNG1177     0.0000
     12  O4        36.6780   42.8910   13.0860 O.3   1177  SNG1177     0.0000
     13  O5        37.6760   46.3500   12.4700 O.3   1177  SNG1177     0.0000
     14  O6        37.3400   44.8330   10.1800 O.3   1177  SNG1177     0.0000
     15  O7        34.6290   47.9910   17.2600 O.2   1177  SNG1177     0.0000
     16 SE         37.4670   48.8010   13.6670 Se    1177  SNG1177     0.0000
@<TRIPOS>BOND
     1    14     6    1
     2     6     5    1
     3    13     5    1
     4    13     1    1
     5     5     4    1
     6     9    16    1
     7     4    12    1
     8     4     3    1
     9    16     1    1
    10     1     2    1
    11     2     3    1
    12     2    10    1
    13     3    11    1
    14     8     7    1
    15    10     7   am
    16     7    15    2
