@<TRIPOS>MOLECULE
1o9w_NAG_A_1.pdb
 15 15 0 0 0
SMALL
GASTEIGER

@<TRIPOS>ATOM
      1  C1        37.7380   46.7390   13.3500 C.3   1177  NAG1177     0.2917
      2  C2        36.4030   46.2410   13.9120 C.3   1177  NAG1177     0.1871
      3  C3        36.4030   44.7110   13.9810 C.3   1177  NAG1177     0.2095
      4  C4        36.7980   44.0970   12.6290 C.3   1177  NAG1177     0.2136
      5  C5        38.1140   44.7100   12.1620 C.3   1177  NAG1177     0.1835
      6  C6        38.5650   44.2030   10.7990 C.3   1177  NAG1177     0.2142
      7  C7        35.2460   47.6050   15.5870 C.2   1177  NAG1177     0.2421
      8  C8        34.2240   47.9910   14.5730 C.3   1177  NAG1177     0.0964
      9  N2        36.2260   46.7630   15.2630 N.am  1177  NAG1177    -0.1991
     10  O1        37.6760   48.1040   13.1580 O.3   1177  NAG1177    -0.1879
     11  O3        35.1190   44.2150   14.3710 O.3   1177  NAG1177    -0.2183
     12  O4        36.9580   42.7010   12.7870 O.3   1177  NAG1177    -0.2176
     13  O5        37.9740   46.1320   12.0560 O.3   1177  NAG1177    -0.3242
     14  O6        37.6080   44.5490    9.8090 O.3   1177  NAG1177    -0.2176
     15  O7        35.1390   48.0750   16.7440 O.2   1177  NAG1177    -0.2733
@<TRIPOS>BOND
     1    14     6    1
     2     6     5    1
     3    13     5    1
     4    13     1    1
     5     5     4    1
     6     4    12    1
     7     4     3    1
     8    10     1    1
     9     1     2    1
    10     2     3    1
    11     2     9    1
    12     3    11    1
    13     8     7    1
    14     9     7   am
    15     7    15    2
