@<TRIPOS>MOLECULE
1o9x_HEM_A_1.pdb
 43 50 0 0 0
SMALL
GASTEIGER

@<TRIPOS>ATOM
      1 FE         12.1370   88.6450   21.3870 Fe    2001  HEM2001     0.0000
      2  CHA       13.9920   88.0120   18.5870 C.2   2001  HEM2001     0.0000
      3  CHB       10.4380   85.6960   20.9550 C.2   2001  HEM2001     0.0000
      4  CHC       10.2020   89.4460   24.1180 C.2   2001  HEM2001     0.0000
      5  CHD       13.7590   91.6660   21.7020 C.2   2001  HEM2001     0.0000
      6  NA        12.2370   87.1130   20.0250 N.ar  2001  HEM2001     0.0000
      7  C1A       13.0690   87.0530   18.9460 C.ar  2001  HEM2001     0.0000
      8  C2A       12.8670   85.8520   18.2500 C.ar  2001  HEM2001     0.0000
      9  C3A       11.8450   85.1650   18.9260 C.ar  2001  HEM2001     0.0000
     10  C4A       11.4520   85.9840   20.0300 C.ar  2001  HEM2001     0.0000
     11  CMA       11.2690   83.8240   18.5390 C.3   2001  HEM2001     0.0000
     12  CAA       13.6220   85.4230   16.9900 C.3   2001  HEM2001     0.0000
     13  CBA       12.8380   85.4750   15.6760 C.3   2001  HEM2001     0.0000
     14  CGA       13.6500   86.1570   14.5700 C.2   2001  HEM2001     0.0000
     15  O1A       13.8440   85.5790   13.4720 O.co2 2001  HEM2001     0.0000
     16  O2A       14.1410   87.3140   14.6990 O.co2 2001  HEM2001     0.0000
     17  NB        10.5910   87.7210   22.3650 N.2   2001  HEM2001     0.0000
     18  C1B       10.0220   86.5040   22.0280 C.2   2001  HEM2001     0.0000
     19  C2B        8.9590   86.2080   22.9190 C.2   2001  HEM2001     0.0000
     20  C3B        8.8800   87.3190   23.8670 C.2   2001  HEM2001     0.0000
     21  C4B        9.9300   88.2460   23.4740 C.2   2001  HEM2001     0.0000
     22  CMB        8.1330   84.9550   22.7960 C.3   2001  HEM2001     0.0000
     23  CAB        8.0330   87.6130   24.9730 C.3   2001  HEM2001     0.0000
     24  CBB        6.9830   86.8650   25.4740 C.3   2001  HEM2001     0.0000
     25  NC        12.0350   90.2520   22.7040 N.ar  2001  HEM2001     0.0000
     26  C1C       11.1640   90.3860   23.7570 C.ar  2001  HEM2001     0.0000
     27  C2C       11.3840   91.6130   24.4270 C.ar  2001  HEM2001     0.0000
     28  C3C       12.4430   92.2770   23.7060 C.ar  2001  HEM2001     0.0000
     29  C4C       12.7870   91.4010   22.6410 C.ar  2001  HEM2001     0.0000
     30  CMC       10.5690   92.0550   25.6630 C.3   2001  HEM2001     0.0000
     31  CAC       13.0670   93.5490   23.9010 C.3   2001  HEM2001     0.0000
     32  CBC       12.7550   94.4840   24.9280 C.3   2001  HEM2001     0.0000
     33  ND        13.5980   89.6390   20.3680 N.2   2001  HEM2001     0.0000
     34  C1D       14.0950   90.8730   20.6480 C.2   2001  HEM2001     0.0000
     35  C2D       15.0820   91.2120   19.6750 C.2   2001  HEM2001     0.0000
     36  C3D       15.1240   90.1440   18.7850 C.2   2001  HEM2001     0.0000
     37  C4D       14.2070   89.2080   19.2240 C.2   2001  HEM2001     0.0000
     38  CMD       15.9190   92.5190   19.6070 C.3   2001  HEM2001     0.0000
     39  CAD       15.9900   90.0380   17.5350 C.3   2001  HEM2001     0.0000
     40  CBD       15.2550   90.7910   16.3930 C.3   2001  HEM2001     0.0000
     41  CGD       16.0420   90.7650   15.0870 C.2   2001  HEM2001     0.0000
     42  O1D       16.7430   89.7770   14.8000 O.co2 2001  HEM2001     0.0000
     43  O2D       15.9770   91.7600   14.2780 O.co2 2001  HEM2001     0.0000
@<TRIPOS>BOND
     1    15    14   ar
     2    43    41   ar
     3    14    16   ar
     4    14    13    1
     5    42    41   ar
     6    41    40    1
     7    13    12    1
     8    40    39    1
     9    12     8    1
    10    39    36    1
    11     8     9   ar
    12     8     7   ar
    13    11     9    1
    14     2     7    2
    15     2    37    1
    16    36    37    1
    17    36    35    2
    18     9    10   ar
    19     7     6   ar
    20    37    33    2
    21    38    35    1
    22    35    34    1
    23     6    10   ar
    24     6     1    1
    25    10     3    2
    26    33    34    1
    27    33     1    1
    28    34     5    2
    29     3    18    1
    30     1    17    1
    31     1    25    1
    32     5    29    1
    33    18    17    2
    34    18    19    1
    35    17    21    1
    36    29    25   ar
    37    29    28   ar
    38    25    26   ar
    39    22    19    1
    40    19    20    2
    41    21    20    1
    42    21     4    2
    43    28    31    1
    44    28    27   ar
    45    26     4    1
    46    26    27   ar
    47    20    23    1
    48    31    32    1
    49    27    30    1
    50    23    24    1
