@<TRIPOS>MOLECULE
1o9x_MYR_A_2.pdb
 11 10 0 0 0
SMALL
GASTEIGER

@<TRIPOS>ATOM
      1  C1        27.9870   64.1550    7.9250 C.2   1003  MYR1003     0.3649
      2  O1        28.2400   64.6590    6.8130 O.co2 1003  MYR1003    -0.2457
      3  O2        27.4700   63.0270    8.0480 O.co2 1003  MYR1003    -0.2457
      4  C2        28.3260   64.9470    9.1860 C.3   1003  MYR1003     0.1141
      5  C3        29.7510   64.6180    9.6500 C.3   1003  MYR1003     0.0118
      6  C4        30.4360   65.9700    9.8060 C.3   1003  MYR1003     0.0006
      7  C5        31.9530   65.8530    9.7270 C.3   1003  MYR1003     0.0000
      8  C6        32.6110   67.2340    9.6800 C.3   1003  MYR1003     0.0000
      9  C7        33.7950   67.3540   10.6450 C.3   1003  MYR1003     0.0000
     10  C8        33.4290   68.1440   11.9070 C.3   1003  MYR1003     0.0000
     11  C9        34.4160   69.2680   12.1910 C.3   1003  MYR1003     0.0000
@<TRIPOS>BOND
     1     2     1   ar
     2     1     3   ar
     3     1     4    1
     4     4     5    1
     5     5     6    1
     6     8     7    1
     7     8     9    1
     8     7     6    1
     9     9    10    1
    10    10    11    1
