@<TRIPOS>MOLECULE
1oa7_CBI_A_1.pdb
 23 24 0 0 0
SMALL
GASTEIGER

@<TRIPOS>ATOM
      1  C1        19.8850   32.0390   27.1560 C.3   840  CBI840      0.2695
      2  C2        19.9520   32.4970   28.6180 C.3   840  CBI840      0.2406
      3  C3        18.5920   32.9800   29.1230 C.3   840  CBI840      0.2198
      4  C4        18.1100   34.1290   28.2000 C.3   840  CBI840      0.2144
      5  C5        17.9750   33.5760   26.7530 C.3   840  CBI840      0.1835
      6  C6        17.5770   34.6320   25.7190 C.3   840  CBI840      0.2142
      7  O2        20.5060   31.4370   29.3830 O.3   840  CBI840     -0.2149
      8  O3        18.7580   33.4670   30.4560 O.3   840  CBI840     -0.2174
      9  O4        16.8850   34.6970   28.6520 O.3   840  CBI840     -0.2176
     10  O5        19.2820   33.1150   26.3750 O.3   840  CBI840     -0.3256
     11  O6        18.5720   35.6480   25.6960 O.3   840  CBI840     -0.2176
     12  C1'       22.5030   29.5630   23.2800 C.3   840  CBI840      0.3023
     13  C2'       22.4940   31.1020   23.2040 C.3   840  CBI840      0.2433
     14  C3'       22.4690   31.6990   24.6100 C.3   840  CBI840      0.2168
     15  C4'       21.2370   31.2160   25.3540 C.3   840  CBI840      0.1804
     16  C5'       21.0960   29.6590   25.3270 C.3   840  CBI840      0.1804
     17  C6'       19.7620   29.0940   25.8820 C.3   840  CBI840      0.2141
     18  O1'       22.6470   29.0030   21.9840 O.3   840  CBI840     -0.1869
     19  O2'       23.6670   31.5780   22.5400 O.3   840  CBI840     -0.2148
     20  O3'       22.3560   33.1210   24.5250 O.3   840  CBI840     -0.2175
     21  O4'       21.1950   31.8100   26.6530 O.3   840  CBI840     -0.3257
     22  O5'       21.2480   29.1500   23.9710 O.3   840  CBI840     -0.3237
     23  O6'       18.6490   29.5560   25.1250 O.3   840  CBI840     -0.2176
@<TRIPOS>BOND
     1    18    12    1
     2    19    13    1
     3    13    12    1
     4    13    14    1
     5    12    22    1
     6    22    16    1
     7    20    14    1
     8    14    15    1
     9    23    17    1
    10    16    15    1
    11    16    17    1
    12    15    21    1
    13    11     6    1
    14     6     5    1
    15    10     5    1
    16    10     1    1
    17    21     1    1
    18     5     4    1
    19     1     2    1
    20     4     9    1
    21     4     3    1
    22     2     3    1
    23     2     7    1
    24     3     8    1
