@<TRIPOS>MOLECULE
1oab_PEP_A_1.pdb
 10 9 0 0 0
SMALL
GASTEIGER

@<TRIPOS>ATOM
      1  C1       105.0870   15.7870   60.1420 C.2   508  PEP508      0.3919
      2  O1       103.9430   15.4590   60.3060 O.co2 508  PEP508     -0.2429
      3  O2'      105.4920   16.8910   60.4610 O.co2 508  PEP508     -0.2429
      4  C2       106.0920   14.7670   59.5720 C.3   508  PEP508      0.2285
      5  C3       105.6600   13.5350   59.1290 C.3   508  PEP508      0.0450
      6  O2       107.3950   15.3400   59.5670 O.3   508  PEP508     -0.2611
      7  P        108.6180   14.6360   58.9570 P.3   508  PEP508      0.5330
      8  O1P      109.5890   15.6530   59.4980 O.3   508  PEP508     -0.1145
      9  O2P      108.5540   14.6420   57.5080 O.2   508  PEP508     -0.2224
     10  O3P      109.1230   13.5220   59.7110 O.3   508  PEP508     -0.1145
@<TRIPOS>BOND
     1     9     7    2
     2     7     8    1
     3     7     6    1
     4     7    10    1
     5     5     4    1
     6     6     4    1
     7     4     1    1
     8     1     2   ar
     9     1     3   ar
