@<TRIPOS>MOLECULE
1oae_HEC_A_1.pdb
 43 50 0 0 0
SMALL
GASTEIGER

@<TRIPOS>ATOM
      1 FE         16.4600   34.8820   12.9010 Fe    1125  HEC1125     0.0000
      2  CHA       16.2120   33.4950    9.8260 C.2   1125  HEC1125     0.0000
      3  CHB       18.1050   37.6100   11.5460 C.2   1125  HEC1125     0.0000
      4  CHC       16.2260   36.4820   15.9010 C.2   1125  HEC1125     0.0000
      5  CHD       15.2060   31.9810   14.3330 C.2   1125  HEC1125     0.0000
      6  NA        17.0940   35.4360   11.0650 N.ar  1125  HEC1125     0.0000
      7  C1A       16.8840   34.6980    9.9310 C.ar  1125  HEC1125     0.0000
      8  C2A       17.5050   35.3990    8.8300 C.ar  1125  HEC1125     0.0000
      9  C3A       18.0160   36.5470    9.2890 C.ar  1125  HEC1125     0.0000
     10  C4A       17.7550   36.5860   10.6960 C.ar  1125  HEC1125     0.0000
     11  CMA       18.8000   37.6500    8.5630 C.3   1125  HEC1125     0.0000
     12  CAA       17.4800   34.8780    7.3830 C.3   1125  HEC1125     0.0000
     13  CBA       16.4700   35.6610    6.5740 C.3   1125  HEC1125     0.0000
     14  CGA       15.0620   35.4610    7.0260 C.2   1125  HEC1125     0.0000
     15  O1A       14.4490   36.4890    7.4870 O.co2 1125  HEC1125     0.0000
     16  O2A       14.5470   34.3050    6.8750 O.co2 1125  HEC1125     0.0000
     17  NB        17.0450   36.6700   13.5850 N.2   1125  HEC1125     0.0000
     18  C1B       17.6380   37.6550   12.8590 C.2   1125  HEC1125     0.0000
     19  C2B       17.6600   38.8370   13.6940 C.2   1125  HEC1125     0.0000
     20  C3B       17.1760   38.5730   14.8880 C.2   1125  HEC1125     0.0000
     21  C4B       16.7670   37.1700   14.8550 C.2   1125  HEC1125     0.0000
     22  CMB       18.3060   40.1430   13.2460 C.3   1125  HEC1125     0.0000
     23  CAB       17.0480   39.5760   16.0700 C.3   1125  HEC1125     0.0000
     24  CBB       16.2100   40.6510   15.8350 C.3   1125  HEC1125     0.0000
     25  NC        15.8530   34.3670   14.7360 N.ar  1125  HEC1125     0.0000
     26  C1C       15.8400   35.1540   15.8710 C.ar  1125  HEC1125     0.0000
     27  C2C       15.4110   34.3640   16.9940 C.ar  1125  HEC1125     0.0000
     28  C3C       15.0920   33.1230   16.5400 C.ar  1125  HEC1125     0.0000
     29  C4C       15.3770   33.1010   15.1230 C.ar  1125  HEC1125     0.0000
     30  CMC       15.2340   34.9050   18.4270 C.3   1125  HEC1125     0.0000
     31  CAC       14.4960   31.8810   17.2580 C.2   1125  HEC1125     0.0000
     32  CBC       13.4200   32.0780   18.0580 C.2   1125  HEC1125     0.0000
     33  ND        15.8630   33.0090   12.1970 N.2   1125  HEC1125     0.0000
     34  C1D       15.2670   32.0210   12.9680 C.2   1125  HEC1125     0.0000
     35  C2D       14.6690   31.0410   12.0910 C.2   1125  HEC1125     0.0000
     36  C3D       14.9430   31.5130   10.6830 C.2   1125  HEC1125     0.0000
     37  C4D       15.7030   32.7540   10.8550 C.2   1125  HEC1125     0.0000
     38  CMD       13.8680   29.7970   12.4840 C.3   1125  HEC1125     0.0000
     39  CAD       14.4340   30.8530    9.3500 C.3   1125  HEC1125     0.0000
     40  CBD       15.1310   29.5610    8.9880 C.3   1125  HEC1125     0.0000
     41  CGD       16.2760   29.8750    8.0170 C.2   1125  HEC1125     0.0000
     42  O1D       17.1980   29.0480    7.8290 O.co2 1125  HEC1125     0.0000
     43  O2D       16.2590   30.9560    7.3940 O.co2 1125  HEC1125     0.0000
@<TRIPOS>BOND
     1    13    14    1
     2    13    12    1
     3    16    14   ar
     4    14    15   ar
     5    12     8    1
     6    43    41   ar
     7    42    41   ar
     8    41    40    1
     9    11     9    1
    10     8     9   ar
    11     8     7   ar
    12    40    39    1
    13     9    10   ar
    14    39    36    1
    15     2     7    2
    16     2    37    1
    17     7     6   ar
    18    36    37    1
    19    36    35    2
    20    10     6   ar
    21    10     3    2
    22    37    33    2
    23     6     1    1
    24     3    18    1
    25    35    38    1
    26    35    34    1
    27    33     1    1
    28    33    34    1
    29    18    17    2
    30    18    19    1
    31     1    17    1
    32     1    25    1
    33    34     5    2
    34    22    19    1
    35    17    21    1
    36    19    20    2
    37     5    29    1
    38    25    29   ar
    39    25    26   ar
    40    21    20    1
    41    21     4    2
    42    20    23    1
    43    29    28   ar
    44    24    23    1
    45    26     4    1
    46    26    27   ar
    47    28    27   ar
    48    28    31    1
    49    27    30    1
    50    31    32    2
