@<TRIPOS>MOLECULE
1oaf_ASC_A_1.pdb
 12 12 0 0 0
SMALL
GASTEIGER

@<TRIPOS>ATOM
      1  C1        15.9620   64.3260   26.6030 C.2   1253  ASC1253     0.3843
      2  C2        15.1880   65.0100   25.5950 C.2   1253  ASC1253     0.3085
      3  C3        15.3510   66.3230   25.8000 C.2   1253  ASC1253     0.2606
      4  C4        16.2380   66.5760   26.9770 C.3   1253  ASC1253     0.2661
      5  C5        15.4810   67.2900   28.1010 C.3   1253  ASC1253     0.2322
      6  C6        16.3360   67.4220   29.3680 C.3   1253  ASC1253     0.2190
      7  O1        16.1130   63.1420   26.8070 O.2   1253  ASC1253    -0.2411
      8  O2        14.4640   64.4020   24.6550 O.2   1253  ASC1253    -0.2764
      9  O3        14.8220   67.3250   25.1050 O.2   1253  ASC1253    -0.2838
     10  O4        16.6310   65.2680   27.4180 O.3   1253  ASC1253    -0.4360
     11  O5        14.2740   66.6270   28.4230 O.3   1253  ASC1253    -0.2159
     12  O6        17.5840   67.9990   29.0090 O.3   1253  ASC1253    -0.2174
@<TRIPOS>BOND
     1     8     2    1
     2     9     3    1
     3     2     3    2
     4     2     1    1
     5     3     4    1
     6     1     7    2
     7     1    10    1
     8     4    10    1
     9     4     5    1
    10     5    11    1
    11     5     6    1
    12    12     6    1
