@<TRIPOS>MOLECULE
1oaf_HEM_A_1.pdb
 43 50 0 0 0
SMALL
GASTEIGER

@<TRIPOS>ATOM
      1 FE         14.4800   54.7750   18.9220 Fe    1251  HEM1251     0.0000
      2  CHA       13.3780   57.7570   20.1820 C.2   1251  HEM1251     0.0000
      3  CHB       12.4420   55.1770   16.1810 C.2   1251  HEM1251     0.0000
      4  CHC       15.6680   51.9160   17.5890 C.2   1251  HEM1251     0.0000
      5  CHD       16.8450   54.6000   21.3980 C.2   1251  HEM1251     0.0000
      6  NA        13.1710   56.2080   18.2660 N.ar  1251  HEM1251     0.0000
      7  C1A       12.8720   57.3560   18.9640 C.ar  1251  HEM1251     0.0000
      8  C2A       11.8540   58.0670   18.2220 C.ar  1251  HEM1251     0.0000
      9  C3A       11.5920   57.3610   17.1160 C.ar  1251  HEM1251     0.0000
     10  C4A       12.4020   56.1660   17.1330 C.ar  1251  HEM1251     0.0000
     11  CMA       10.5830   57.7150   16.0090 C.3   1251  HEM1251     0.0000
     12  CAA       11.2640   59.4050   18.6740 C.3   1251  HEM1251     0.0000
     13  CBA       12.1700   60.5800   18.3100 C.3   1251  HEM1251     0.0000
     14  CGA       11.5160   61.8390   18.8180 C.2   1251  HEM1251     0.0000
     15  O1A       10.4230   62.1940   18.2980 O.co2 1251  HEM1251     0.0000
     16  O2A       12.0060   62.4580   19.8000 O.co2 1251  HEM1251     0.0000
     17  NB        14.1310   53.7340   17.1720 N.2   1251  HEM1251     0.0000
     18  C1B       13.1640   54.0100   16.2440 C.2   1251  HEM1251     0.0000
     19  C2B       13.0420   52.8670   15.3710 C.2   1251  HEM1251     0.0000
     20  C3B       13.9070   51.9350   15.7850 C.2   1251  HEM1251     0.0000
     21  C4B       14.6230   52.4850   16.9140 C.2   1251  HEM1251     0.0000
     22  CMB       12.0250   52.8090   14.2230 C.3   1251  HEM1251     0.0000
     23  CAB       14.1240   50.5470   15.1720 C.2   1251  HEM1251     0.0000
     24  CBB       14.1970   49.4790   15.9880 C.2   1251  HEM1251     0.0000
     25  NC        16.0080   53.5190   19.4070 N.ar  1251  HEM1251     0.0000
     26  C1C       16.3720   52.4120   18.6590 C.ar  1251  HEM1251     0.0000
     27  C2C       17.5920   51.8720   19.2120 C.ar  1251  HEM1251     0.0000
     28  C3C       17.9070   52.6110   20.2740 C.ar  1251  HEM1251     0.0000
     29  C4C       16.9240   53.6680   20.4120 C.ar  1251  HEM1251     0.0000
     30  CMC       18.3180   50.6600   18.6040 C.3   1251  HEM1251     0.0000
     31  CAC       19.0930   52.5040   21.2300 C.2   1251  HEM1251     0.0000
     32  CBC       19.4540   51.3140   21.7050 C.2   1251  HEM1251     0.0000
     33  ND        15.0290   56.0000   20.4770 N.2   1251  HEM1251     0.0000
     34  C1D       15.9310   55.6220   21.4700 C.2   1251  HEM1251     0.0000
     35  C2D       15.7760   56.4710   22.6100 C.2   1251  HEM1251     0.0000
     36  C3D       14.7170   57.4280   22.2500 C.2   1251  HEM1251     0.0000
     37  C4D       14.3190   57.0920   20.9200 C.2   1251  HEM1251     0.0000
     38  CMD       16.4850   56.4010   23.9500 C.3   1251  HEM1251     0.0000
     39  CAD       14.1500   58.5320   23.1170 C.3   1251  HEM1251     0.0000
     40  CBD       14.8260   59.8610   22.8370 C.3   1251  HEM1251     0.0000
     41  CGD       14.3940   60.9790   23.7580 C.2   1251  HEM1251     0.0000
     42  O1D       14.7360   62.1490   23.4290 O.co2 1251  HEM1251     0.0000
     43  O2D       13.7370   60.7410   24.7980 O.co2 1251  HEM1251     0.0000
@<TRIPOS>BOND
     1    22    19    1
     2    23    20    1
     3    23    24    2
     4    19    20    2
     5    19    18    1
     6    20    21    1
     7    11     9    1
     8     3    18    1
     9     3    10    2
    10    18    17    2
    11    21    17    1
    12    21     4    2
    13     9    10   ar
    14     9     8   ar
    15    10     6   ar
    16    17     1    1
    17     4    26    1
    18     8    12    1
    19     8     7   ar
    20     6     1    1
    21     6     7   ar
    22    15    14   ar
    23    13    12    1
    24    13    14    1
    25    30    27    1
    26    26    27   ar
    27    26    25   ar
    28    14    16   ar
    29     1    25    1
    30     1    33    1
    31     7     2    2
    32    27    28   ar
    33    25    29   ar
    34     2    37    1
    35    28    29   ar
    36    28    31    1
    37    29     5    1
    38    33    37    2
    39    33    34    1
    40    37    36    1
    41    31    32    2
    42     5    34    2
    43    34    35    1
    44    36    35    2
    45    36    39    1
    46    35    38    1
    47    40    39    1
    48    40    41    1
    49    42    41   ar
    50    41    43   ar
