@<TRIPOS>MOLECULE
1oag_HEM_A_1.pdb
 43 50 0 0 0
SMALL
GASTEIGER

@<TRIPOS>ATOM
      1 FE         14.2970   54.4260   19.1540 Fe    251  HEM251      0.0000
      2  CHA       13.2290   57.5090   20.3910 C.2   251  HEM251      0.0000
      3  CHB       12.2780   54.8380   16.4140 C.2   251  HEM251      0.0000
      4  CHC       15.5010   51.5730   17.7760 C.2   251  HEM251      0.0000
      5  CHD       16.6170   54.2260   21.5960 C.2   251  HEM251      0.0000
      6  NA        13.0370   55.9320   18.4980 N.ar  251  HEM251      0.0000
      7  C1A       12.7080   57.0880   19.1900 C.ar  251  HEM251      0.0000
      8  C2A       11.6900   57.7780   18.4300 C.ar  251  HEM251      0.0000
      9  C3A       11.4260   57.0260   17.3250 C.ar  251  HEM251      0.0000
     10  C4A       12.2480   55.8430   17.3690 C.ar  251  HEM251      0.0000
     11  CMA       10.4010   57.3270   16.2110 C.3   251  HEM251      0.0000
     12  CAA       11.1250   59.1090   18.9150 C.3   251  HEM251      0.0000
     13  CBA       12.0530   60.2630   18.5670 C.3   251  HEM251      0.0000
     14  CGA       11.3720   61.5110   19.0900 C.2   251  HEM251      0.0000
     15  O1A       10.2820   61.8320   18.5520 O.co2 251  HEM251      0.0000
     16  O2A       11.8870   62.2030   20.0200 O.co2 251  HEM251      0.0000
     17  NB        13.9890   53.4160   17.4070 N.2   251  HEM251      0.0000
     18  C1B       13.0210   53.7000   16.4820 C.2   251  HEM251      0.0000
     19  C2B       12.8490   52.5540   15.6200 C.2   251  HEM251      0.0000
     20  C3B       13.7270   51.6170   15.9810 C.2   251  HEM251      0.0000
     21  C4B       14.4600   52.1480   17.1280 C.2   251  HEM251      0.0000
     22  CMB       11.8480   52.4790   14.4650 C.3   251  HEM251      0.0000
     23  CAB       13.9220   50.2410   15.3680 C.2   251  HEM251      0.0000
     24  CBB       14.0440   49.1850   16.1810 C.2   251  HEM251      0.0000
     25  NC        15.7850   53.1800   19.5860 N.ar  251  HEM251      0.0000
     26  C1C       16.1780   52.0960   18.8370 C.ar  251  HEM251      0.0000
     27  C2C       17.3740   51.5370   19.4240 C.ar  251  HEM251      0.0000
     28  C3C       17.6870   52.2650   20.4940 C.ar  251  HEM251      0.0000
     29  C4C       16.6750   53.2860   20.6310 C.ar  251  HEM251      0.0000
     30  CMC       18.0790   50.3220   18.8150 C.3   251  HEM251      0.0000
     31  CAC       18.8670   52.0970   21.4520 C.2   251  HEM251      0.0000
     32  CBC       19.2490   50.8910   21.8810 C.2   251  HEM251      0.0000
     33  ND        14.8330   55.6830   20.6830 N.2   251  HEM251      0.0000
     34  C1D       15.7260   55.2590   21.6480 C.2   251  HEM251      0.0000
     35  C2D       15.5920   56.1140   22.8020 C.2   251  HEM251      0.0000
     36  C3D       14.5420   57.1150   22.4630 C.2   251  HEM251      0.0000
     37  C4D       14.1340   56.7920   21.1190 C.2   251  HEM251      0.0000
     38  CMD       16.3250   56.0180   24.1300 C.3   251  HEM251      0.0000
     39  CAD       14.0480   58.2300   23.3880 C.3   251  HEM251      0.0000
     40  CBD       14.7130   59.5530   23.0380 C.3   251  HEM251      0.0000
     41  CGD       14.2490   60.6820   23.9510 C.2   251  HEM251      0.0000
     42  O1D       14.4760   61.8820   23.6290 O.co2 251  HEM251      0.0000
     43  O2D       13.6550   60.4020   25.0200 O.co2 251  HEM251      0.0000
@<TRIPOS>BOND
     1    22    19    1
     2    23    20    1
     3    23    24    2
     4    19    20    2
     5    19    18    1
     6    20    21    1
     7    11     9    1
     8     3    18    1
     9     3    10    2
    10    18    17    2
    11    21    17    1
    12    21     4    2
    13     9    10   ar
    14     9     8   ar
    15    10     6   ar
    16    17     1    1
    17     4    26    1
    18     8    12    1
    19     8     7   ar
    20     6     1    1
    21     6     7   ar
    22    15    14   ar
    23    13    12    1
    24    13    14    1
    25    30    27    1
    26    26    27   ar
    27    26    25   ar
    28    14    16   ar
    29     1    25    1
    30     1    33    1
    31     7     2    2
    32    27    28   ar
    33    25    29   ar
    34     2    37    1
    35    28    29   ar
    36    28    31    1
    37    29     5    1
    38    33    37    2
    39    33    34    1
    40    37    36    1
    41    31    32    2
    42     5    34    2
    43    34    35    1
    44    36    35    2
    45    36    39    1
    46    35    38    1
    47    40    39    1
    48    40    41    1
    49    42    41   ar
    50    41    43   ar
