@<TRIPOS>MOLECULE
1oah_HEM_A_1.pdb
 43 50 0 0 0
SMALL
GASTEIGER

@<TRIPOS>ATOM
      1 FE         42.9650    1.8030   52.0960 Fe    1520  HEM1520     0.0000
      2  CHA       39.9080    2.3920   53.3980 C.2   1520  HEM1520     0.0000
      3  CHB       42.3760    4.1110   49.6430 C.2   1520  HEM1520     0.0000
      4  CHC       46.1410    1.3650   50.8840 C.2   1520  HEM1520     0.0000
      5  CHD       43.3820   -0.9560   54.0710 C.2   1520  HEM1520     0.0000
      6  NA        41.4460    2.9850   51.5870 N.ar  1520  HEM1520     0.0000
      7  C1A       40.2620    3.1080   52.2930 C.ar  1520  HEM1520     0.0000
      8  C2A       39.4530    4.1350   51.6970 C.ar  1520  HEM1520     0.0000
      9  C3A       40.1200    4.6100   50.6520 C.ar  1520  HEM1520     0.0000
     10  C4A       41.3900    3.9070   50.5700 C.ar  1520  HEM1520     0.0000
     11  CMA       39.6220    5.7340   49.7120 C.3   1520  HEM1520     0.0000
     12  CAA       38.0510    4.5840   52.1800 C.3   1520  HEM1520     0.0000
     13  CBA       38.1360    5.5410   53.3770 C.3   1520  HEM1520     0.0000
     14  CGA       38.8560    6.7990   52.9900 C.2   1520  HEM1520     0.0000
     15  O1A       38.2030    7.7490   52.4660 O.co2 1520  HEM1520     0.0000
     16  O2A       40.0900    6.8510   53.1970 O.co2 1520  HEM1520     0.0000
     17  NB        44.0400    2.5290   50.4940 N.2   1520  HEM1520     0.0000
     18  C1B       43.6520    3.6180   49.7450 C.2   1520  HEM1520     0.0000
     19  C2B       44.8160    4.1790   49.1100 C.2   1520  HEM1520     0.0000
     20  C3B       45.8570    3.4120   49.4160 C.2   1520  HEM1520     0.0000
     21  C4B       45.3940    2.3710   50.3190 C.2   1520  HEM1520     0.0000
     22  CMB       44.7830    5.3830   48.1530 C.3   1520  HEM1520     0.0000
     23  CAB       47.2960    3.6680   48.9340 C.2   1520  HEM1520     0.0000
     24  CBB       47.8380    4.8210   49.3520 C.2   1520  HEM1520     0.0000
     25  NC        44.4450    0.4560   52.4050 N.ar  1520  HEM1520     0.0000
     26  C1C       45.6990    0.4640   51.8210 C.ar  1520  HEM1520     0.0000
     27  C2C       46.5240   -0.5200   52.4930 C.ar  1520  HEM1520     0.0000
     28  C3C       45.7090   -1.2820   53.2320 C.ar  1520  HEM1520     0.0000
     29  C4C       44.4380   -0.6010   53.2830 C.ar  1520  HEM1520     0.0000
     30  CMC       47.8890   -0.9790   51.9340 C.3   1520  HEM1520     0.0000
     31  CAC       46.0720   -2.5600   54.0370 C.2   1520  HEM1520     0.0000
     32  CBC       47.3240   -2.8120   54.4460 C.2   1520  HEM1520     0.0000
     33  ND        41.8160    0.8290   53.4600 N.2   1520  HEM1520     0.0000
     34  C1D       42.2500   -0.2030   54.2640 C.2   1520  HEM1520     0.0000
     35  C2D       41.3230   -0.3790   55.3580 C.2   1520  HEM1520     0.0000
     36  C3D       40.2380    0.6600   55.1400 C.2   1520  HEM1520     0.0000
     37  C4D       40.6300    1.3620   53.9480 C.2   1520  HEM1520     0.0000
     38  CMD       41.3960   -1.4070   56.5030 C.3   1520  HEM1520     0.0000
     39  CAD       39.0240    0.9330   56.0410 C.3   1520  HEM1520     0.0000
     40  CBD       39.5130    1.5070   57.3830 C.3   1520  HEM1520     0.0000
     41  CGD       39.7530    2.9930   57.3110 C.2   1520  HEM1520     0.0000
     42  O1D       39.7050    3.5900   56.2040 O.co2 1520  HEM1520     0.0000
     43  O2D       39.9900    3.5990   58.3820 O.co2 1520  HEM1520     0.0000
@<TRIPOS>BOND
     1    22    19    1
     2    23    24    2
     3    23    20    1
     4    19    20    2
     5    19    18    1
     6    20    21    1
     7     3    18    1
     8     3    10    2
     9    11     9    1
    10    18    17    2
    11    21    17    1
    12    21     4    2
    13    17     1    1
    14    10     9   ar
    15    10     6   ar
    16     9     8   ar
    17     4    26    1
    18     6     1    1
    19     6     7   ar
    20     8    12    1
    21     8     7   ar
    22    26    25   ar
    23    26    27   ar
    24    30    27    1
    25     1    25    1
    26     1    33    1
    27    12    13    1
    28     7     2    2
    29    25    29   ar
    30    15    14   ar
    31    27    28   ar
    32    14    16   ar
    33    14    13    1
    34    28    29   ar
    35    28    31    1
    36    29     5    1
    37     2    37    1
    38    33    37    2
    39    33    34    1
    40    37    36    1
    41    31    32    2
    42     5    34    2
    43    34    35    1
    44    36    35    2
    45    36    39    1
    46    35    38    1
    47    39    40    1
    48    42    41   ar
    49    41    40    1
    50    41    43   ar
