@<TRIPOS>MOLECULE
1oan_FUC_A_1.pdb
 10 10 0 0 0
SMALL
GASTEIGER

@<TRIPOS>ATOM
      1  C1       -27.0710   69.1770   70.7960 C.3   1399  FUC1399     0.1776
      2  C2       -26.1750   69.7900   71.8710 C.3   1399  FUC1399     0.2141
      3  C3       -26.9530   69.9840   73.1620 C.3   1399  FUC1399     0.2172
      4  C4       -27.5730   68.6530   73.6020 C.3   1399  FUC1399     0.2116
      5  C5       -28.4300   68.0960   72.4710 C.3   1399  FUC1399     0.1483
      6  C6       -28.9900   66.7220   72.7930 C.3   1399  FUC1399     0.0349
      7  O2       -25.6810   71.0400   71.4240 O.3   1399  FUC1399    -0.2176
      8  O3       -26.0840   70.4840   74.1710 O.3   1399  FUC1399    -0.2175
      9  O4       -26.5540   67.7200   73.9310 O.3   1399  FUC1399    -0.2177
     10  O5       -27.6420   67.9640   71.2710 O.3   1399  FUC1399    -0.3508
@<TRIPOS>BOND
     1     1    10    1
     2     1     2    1
     3    10     5    1
     4     7     2    1
     5     2     3    1
     6     5     6    1
     7     5     4    1
     8     3     4    1
     9     3     8    1
    10     4     9    1
