@<TRIPOS>MOLECULE
1oar_AZN_H_1.pdb
 22 24 0 0 0
SMALL
GASTEIGER

@<TRIPOS>ATOM
      1  C2        36.8710   54.1050   78.8980 C.ar  500  AZN500      0.0842
      2  C3        38.8510   53.5610   80.4660 C.ar  500  AZN500      0.0421
      3  C4        37.2320   52.8180   78.2270 C.ar  500  AZN500      0.0466
      4  C5        35.8030   54.8150   78.4180 C.ar  500  AZN500      0.2387
      5  C8        38.3550   51.9830   78.6800 C.2   500  AZN500      0.1959
      6  C9        36.5190   52.3350   77.1440 C.ar  500  AZN500      0.0257
      7  C10       35.0940   54.2870   77.3120 C.ar  500  AZN500      0.2517
      8  C11       40.2000   51.5810   80.2660 C.ar  500  AZN500      0.0033
      9  C12       40.6540   53.1480   82.0130 C.ar  500  AZN500      0.0001
     10  C14       40.9440   51.9670   81.3640 C.ar  500  AZN500      0.0001
     11  C13       35.4790   53.0520   76.7470 C.ar  500  AZN500      0.1544
     12  C1        37.7080   54.4850   80.0340 C.2   500  AZN500      0.1989
     13  C6        39.1460   52.3820   79.8180 C.ar  500  AZN500      0.0420
     14  C7        39.6180   53.9450   81.5700 C.ar  500  AZN500      0.0033
     15  O6        33.7430   53.6900   74.8940 O.3   500  AZN500     -0.0649
     16  O4        33.9830   51.4270   75.1590 O.3   500  AZN500     -0.0649
     17  O3        34.0330   54.9600   76.8170 O.3   500  AZN500     -0.2817
     18  O1        35.4360   55.9680   78.9970 O.3   500  AZN500     -0.2830
     19  O5        35.5780   52.7220   74.0130 O.3   500  AZN500     -0.0649
     20  O         37.4860   55.5260   80.6350 O.2   500  AZN500     -0.2865
     21  O2        38.6130   50.9420   78.0980 O.2   500  AZN500     -0.2866
     22  S1        34.7060   52.6550   75.1280 S.3   500  AZN500      0.0452
@<TRIPOS>BOND
     1    19    22    1
     2    15    22    1
     3    22    16    1
     4    22    11    1
     5    11     6   ar
     6    11     7   ar
     7    17     7    1
     8     6     3   ar
     9     7     4   ar
    10    21     5    2
    11     3     5    1
    12     3     1   ar
    13     4     1   ar
    14     4    18    1
    15     5    13    1
    16     1    12    1
    17    13     8   ar
    18    13     2   ar
    19    12     2    1
    20    12    20    2
    21     8    10   ar
    22     2    14   ar
    23    10     9   ar
    24    14     9   ar
