@<TRIPOS>MOLECULE
1oas_PLP_A_1.pdb
 15 15 0 0 0
SMALL
GASTEIGER

@<TRIPOS>ATOM
      1  N1        11.6810    6.0200   38.4300 N.ar  323  PLP323     -0.2452
      2  C2        11.9090    7.3030   38.8440 C.ar  323  PLP323      0.0978
      3  C2A       11.7300    7.6660   40.3240 C.3   323  PLP323      0.0555
      4  C3        12.2930    8.2680   37.9320 C.ar  323  PLP323      0.2049
      5  O3        12.5390    9.5680   38.3610 O.3   323  PLP323     -0.2857
      6  C4        12.4390    7.9380   36.5990 C.ar  323  PLP323      0.0182
      7  C4A       12.9630    8.9980   35.6140 C.3   323  PLP323      0.0342
      8  C5        12.1860    6.6220   36.1780 C.ar  323  PLP323      0.0261
      9  C6        11.8230    5.6830   37.0980 C.ar  323  PLP323      0.0965
     10  C5A       12.1550    6.2290   34.6930 C.3   323  PLP323      0.1815
     11  O4P       13.4360    6.3130   34.0630 O.3   323  PLP323     -0.2653
     12  P         13.5470    6.8630   32.5580 P.3   323  PLP323      0.5329
     13  O1P       14.9430    6.6540   32.1050 O.3   323  PLP323     -0.1145
     14  O2P       12.6100    5.8510   31.7240 O.2   323  PLP323     -0.2224
     15  O3P       12.9630    8.2300   32.4830 O.3   323  PLP323     -0.1145
@<TRIPOS>BOND
     1    14    12    2
     2    13    12    1
     3    15    12    1
     4    12    11    1
     5    11    10    1
     6    10     8    1
     7     7     6    1
     8     8     6   ar
     9     8     9   ar
    10     6     4   ar
    11     9     1   ar
    12     4     5    1
    13     4     2   ar
    14     1     2   ar
    15     2     3    1
