@<TRIPOS>MOLECULE
1oat_PLP_A_1.pdb
 15 15 0 0 0
SMALL
GASTEIGER

@<TRIPOS>ATOM
      1  N1        55.8800   46.4930   19.6470 N.ar  440  PLP440     -0.2452
      2  C2        56.5410   47.6720   19.9170 C.ar  440  PLP440      0.0978
      3  C2A       56.3290   48.3270   21.2610 C.3   440  PLP440      0.0555
      4  C3        57.3410   48.2410   18.9230 C.ar  440  PLP440      0.2049
      5  O3        58.0160   49.4170   19.1840 O.3   440  PLP440     -0.2857
      6  C4        57.4220   47.6590   17.6660 C.ar  440  PLP440      0.0182
      7  C4A       58.4590   48.1230   16.7060 C.3   440  PLP440      0.0342
      8  C5        56.6820   46.5100   17.3920 C.ar  440  PLP440      0.0261
      9  C6        55.9640   45.9190   18.4050 C.ar  440  PLP440      0.0965
     10  C5A       56.4080   46.0550   15.9410 C.3   440  PLP440      0.1815
     11  O4P       57.5470   45.3210   15.4650 O.3   440  PLP440     -0.2653
     12  P         57.9100   45.0940   13.9530 P.3   440  PLP440      0.5329
     13  O1P       59.2180   44.5080   14.0270 O.3   440  PLP440     -0.1145
     14  O2P       56.7940   44.1280   13.5220 O.3   440  PLP440     -0.1145
     15  O3P       57.8230   46.3910   13.2820 O.2   440  PLP440     -0.2224
@<TRIPOS>BOND
     1    15    12    2
     2    14    12    1
     3    12    13    1
     4    12    11    1
     5    11    10    1
     6    10     8    1
     7     7     6    1
     8     8     6   ar
     9     8     9   ar
    10     6     4   ar
    11     9     1   ar
    12     4     5    1
    13     4     2   ar
    14     1     2   ar
    15     2     3    1
