@<TRIPOS>MOLECULE
1oau_DNF_H_1.pdb
 12 12 0 0 0
SMALL
GASTEIGER

@<TRIPOS>ATOM
      1  C1        37.3080   53.5380   77.7330 C.ar  501  DNF501      0.0242
      2  C2        37.2630   54.4970   78.7670 C.ar  501  DNF501      0.1445
      3  N2        36.2710   55.5460   78.7740 N.pl3 501  DNF501      0.0577
      4  O21       35.4190   55.6980   77.9220 O.2   501  DNF501     -0.1261
      5  O22       36.2910   56.3300   79.7090 O.2   501  DNF501     -0.1261
      6  C3        38.1430   54.4930   79.8200 C.ar  501  DNF501      0.0481
      7  C4        39.0820   53.5040   79.8180 C.ar  501  DNF501      0.1445
      8  N4        40.0540   53.4610   80.9330 N.pl3 501  DNF501      0.0577
      9  O41       39.9390   54.3220   81.7520 O.2   501  DNF501     -0.1261
     10  O42       40.8610   52.5570   80.8960 O.2   501  DNF501     -0.1261
     11  C5        39.2270   52.4810   78.8480 C.ar  501  DNF501      0.0242
     12  C6        38.3230   52.5440   77.8250 C.ar  501  DNF501      0.0034
@<TRIPOS>BOND
     1     1    12   ar
     2     1     2   ar
     3    12    11   ar
     4     4     3    2
     5     2     3    1
     6     2     6   ar
     7     3     5    2
     8    11     7   ar
     9     7     6   ar
    10     7     8    1
    11    10     8    2
    12     8     9    2
