@<TRIPOS>MOLECULE
1oau_III_K_1.pdb
 18 19 0 0 0
SMALL
GASTEIGER

@<TRIPOS>ATOM
      1  N         42.0000   37.0790   49.3930 N.3   110  TRP110     -0.1227
      2  CA        41.4900   37.8770   48.2790 C.3   110  TRP110      0.1734
      3  C         42.1020   37.3950   46.9630 C.2   110  TRP110      0.2595
      4  O         42.3680   36.2050   46.7890 O.2   110  TRP110     -0.2718
      5  CB        41.8360   39.3570   48.4850 C.3   110  TRP110      0.0527
      6  CG        40.7390   40.1850   49.1100 C.2   110  TRP110     -0.0139
      7  CD1       40.1890   40.0180   50.3490 C.2   110  TRP110      0.0907
      8  CD2       40.1510   41.3760   48.5680 C.3   110  TRP110      0.0819
      9  NE1       39.2630   41.0070   50.5930 N.2   110  TRP110     -0.2482
     10  CE2       39.2250   41.8550   49.5170 C.2   110  TRP110      0.0665
     11  CE3       40.3050   42.0720   47.3650 C.2   110  TRP110     -0.0164
     12  CZ2       38.4490   42.9910   49.2960 C.2   110  TRP110      0.0153
     13  CZ3       39.5370   43.2030   47.1500 C.2   110  TRP110     -0.0038
     14  CH2       38.6210   43.6520   48.1110 C.2   110  TRP110      0.0009
     15  N         42.3410   38.3310   46.0490 N.am  111  GLY111     -0.1957
     16  CA        42.9300   38.0050   44.7540 C.3   111  GLY111      0.1869
     17  C         44.4490   37.8690   44.8570 C.2   111  GLY111      0.2309
     18  O         45.0820   38.5000   45.7060 O.2   111  GLY111     -0.2863
@<TRIPOS>BOND
     1    16    17    1
     2    16    15    1
     3    17    18    2
     4    15     3   am
     5     4     3    2
     6     3     2    1
     7    13    11    2
     8    13    14    1
     9    11     8    1
    10    14    12    2
    11     2     5    1
    12     2     1    1
    13     5     6    1
    14     8     6    1
    15     8    10    1
    16     6     7    2
    17    12    10    1
    18    10     9    2
    19     7     9    1
