@<TRIPOS>MOLECULE
1oax_ANQ_H_1.pdb
 14 16 0 0 0
SMALL
GASTEIGER

@<TRIPOS>ATOM
      1  O1        37.5110   51.8370   75.6680 O.2   500  ANQ500     -0.2831
      2  C1        37.5580   52.6650   76.6430 C.2   500  ANQ500      0.2342
      3  C81       38.5460   52.6460   77.7690 C.ar  500  ANQ500      0.0423
      4  C8        39.6630   51.8080   78.1030 C.ar  500  ANQ500      0.0033
      5  C82       38.2450   53.6800   78.6050 C.ar  500  ANQ500      0.0064
      6  C21       37.1650   54.3920   78.1710 C.ar  500  ANQ500      0.0423
      7  C2        36.6370   53.8280   76.9020 C.2   500  ANQ500      0.2342
      8  O2        35.6320   54.2370   76.2120 O.2   500  ANQ500     -0.2831
      9  C3        36.9770   55.3370   79.0490 C.ar  500  ANQ500      0.0033
     10  C51       38.9200   54.0130   79.7730 C.ar  500  ANQ500      0.0002
     11  C6        40.0070   53.2010   80.1100 C.ar  500  ANQ500      0.0000
     12  C7        40.3690   52.1160   79.2810 C.ar  500  ANQ500      0.0001
     13  C5        38.4230   55.1950   80.5710 C.ar  500  ANQ500      0.0000
     14  C4        37.3470   55.8670   80.1010 C.ar  500  ANQ500      0.0001
@<TRIPOS>BOND
     1     1     2    1
     2     8     7    1
     3     2     7    2
     4     2     3    1
     5     7     6    1
     6     3     4   ar
     7     3     5   ar
     8     4    12   ar
     9     6     5   ar
    10     6     9   ar
    11     5    10   ar
    12     9    14   ar
    13    12    11   ar
    14    10    11   ar
    15    10    13   ar
    16    14    13   ar
