@<TRIPOS>MOLECULE
1oay_FUR_H_1.pdb
 16 17 0 0 0
SMALL
GASTEIGER

@<TRIPOS>ATOM
      1  O3        40.5940   53.8500   81.7770 O.2   500  FUR500     -0.1230
      2  N1        39.4910   54.2830   81.4830 N.pl3 500  FUR500      0.0932
      3  O2        38.9170   55.0460   82.2420 O.2   500  FUR500     -0.1230
      4  C1        38.9110   53.9290   80.3370 C.ar  500  FUR500      0.2886
      5  O1        37.8950   54.6490   79.4890 O.2   500  FUR500     -0.4354
      6  C2        39.0260   52.9210   79.6500 C.ar  500  FUR500      0.0658
      7  C3        38.4440   52.8150   78.7030 C.ar  500  FUR500      0.0399
      8  C4        37.6690   53.6930   78.3500 C.ar  500  FUR500      0.1485
      9  C5        36.9260   53.7860   77.3400 C.3   500  FUR500      0.1977
     10  N2        36.1130   53.9850   76.4430 N.pl3 500  FUR500     -0.1472
     11  N3        35.6940   52.9440   75.5820 N.ar  500  FUR500     -0.1717
     12  C8        34.5700   53.0240   74.8980 C.ar  500  FUR500      0.4400
     13  O5        33.7560   53.9340   74.8900 O.2   500  FUR500     -0.2209
     14  C6        36.4580   51.7210   75.3730 C.ar  500  FUR500      0.1447
     15  C7        35.5630   50.9720   74.3700 C.ar  500  FUR500      0.2053
     16  O4        34.4330   51.8160   74.1190 O.2   500  FUR500     -0.4024
@<TRIPOS>BOND
     1    16    15   ar
     2    16    12   ar
     3    15    14   ar
     4    13    12    2
     5    12    11   ar
     6    14    11   ar
     7    11    10    1
     8    10     9    1
     9     9     8    1
    10     8     7   ar
    11     8     5   ar
    12     7     6   ar
    13     5     4   ar
    14     6     4   ar
    15     4     2    1
    16     2     1    2
    17     2     3    2
