@<TRIPOS>MOLECULE
1ob2_GNP_A_1.pdb
 32 34 0 0 0
SMALL
GASTEIGER

@<TRIPOS>ATOM
      1  PG       129.4100   33.6030  121.5130 P.3   1397  GNP1397     0.4884
      2  O1G      128.1240   34.3050  121.1310 O.3   1397  GNP1397    -0.1240
      3  O2G      129.3090   32.2410  120.9860 O.2   1397  GNP1397    -0.2331
      4  O3G      129.5750   33.7920  122.9850 O.3   1397  GNP1397    -0.1240
      5  N3B      130.6060   34.4410  120.7000 N.3   1397  GNP1397    -0.0163
      6  PB       130.6000   36.0130  120.1760 P.3   1397  GNP1397     0.4669
      7  O1B      131.2870   36.1540  118.8540 O.2   1397  GNP1397    -0.2351
      8  O2B      129.2020   36.5850  120.1570 O.3   1397  GNP1397    -0.1253
      9  O3A      131.4630   36.8040  121.2220 O.3   1397  GNP1397    -0.2360
     10  PA       131.1160   38.1650  121.8970 P.3   1397  GNP1397     0.2220
     11  O1A      131.0220   39.2400  120.8920 O.2   1397  GNP1397    -0.5170
     12  O2A      129.8690   37.9350  122.6890 O.3   1397  GNP1397    -0.4370
     13  O5'      132.4000   38.3910  122.8040 O.3   1397  GNP1397    -0.3111
     14  C5'      133.7550   38.3030  122.3040 C.3   1397  GNP1397     0.1813
     15  C4'      134.7400   38.9120  123.2980 C.3   1397  GNP1397     0.1799
     16  O4'      135.8310   39.6020  122.6320 O.3   1397  GNP1397    -0.3326
     17  C3'      134.2160   39.9810  124.2650 C.3   1397  GNP1397     0.2158
     18  O3'      134.9680   40.0770  125.4770 O.3   1397  GNP1397    -0.2175
     19  C2'      134.2910   41.2250  123.4230 C.3   1397  GNP1397     0.2310
     20  O2'      134.2190   42.4690  124.0810 O.3   1397  GNP1397    -0.2158
     21  C1'      135.6040   41.0010  122.6780 C.3   1397  GNP1397     0.2293
     22  N9       135.5880   41.5800  121.3410 N.pl3 1397  GNP1397    -0.2354
     23  C8       134.5470   41.5710  120.4390 C.3   1397  GNP1397     0.2246
     24  N7       134.8160   42.1640  119.3190 N.2   1397  GNP1397    -0.2322
     25  C5       136.1050   42.5940  119.4680 C.2   1397  GNP1397     0.2182
     26  C6       136.9380   43.3120  118.5600 C.1   1397  GNP1397     0.2372
     27  O6       136.6420   43.6880  117.4290 O.2   1397  GNP1397    -0.2069
     28  N1       138.2350   43.5820  119.0890 N.2   1397  GNP1397    -0.2485
     29  C2       138.6630   43.1950  120.3600 C.1   1397  GNP1397     0.2531
     30  N2       139.9120   43.5280  120.7050 N.pl3 1397  GNP1397    -0.0226
     31  N3       137.8640   42.5080  121.2290 N.2   1397  GNP1397    -0.3074
     32  C4       136.6100   42.2470  120.7160 C.2   1397  GNP1397     0.2300
@<TRIPOS>BOND
     1    27    26    2
     2    26    28    2
     3    26    25    1
     4     7     6    2
     5    28    29    2
     6    24    25    2
     7    24    23    1
     8    25    32    1
     9     8     6    1
    10     6     5    1
    11     6     9    1
    12    29    30    1
    13    29    31    2
    14    23    22    1
    15     5     1    1
    16    32    31    2
    17    32    22    1
    18    11    10    2
    19     3     1    2
    20     2     1    1
    21     9    10    1
    22    22    21    1
    23     1     4    1
    24    10    12    1
    25    10    13    1
    26    14    13    1
    27    14    15    1
    28    16    21    1
    29    16    15    1
    30    21    19    1
    31    15    17    1
    32    19    20    1
    33    19    17    1
    34    17    18    1
