@<TRIPOS>MOLECULE
1ob5_GNP_A_1.pdb
 32 34 0 0 0
SMALL
GASTEIGER

@<TRIPOS>ATOM
      1  PG        45.3140   19.6260   15.3260 P.3   1406  GNP1406     0.4884
      2  O1G       44.4870   19.0220   14.2260 O.2   1406  GNP1406    -0.2331
      3  O2G       45.0530   18.8090   16.5150 O.3   1406  GNP1406    -0.1240
      4  O3G       44.9860   21.0970   15.3760 O.3   1406  GNP1406    -0.1240
      5  N3B       46.9000   19.4100   14.8170 N.3   1406  GNP1406    -0.0163
      6  PB        47.4830   18.9560   13.3380 P.3   1406  GNP1406     0.4669
      7  O1B       48.4590   17.8590   13.5000 O.3   1406  GNP1406    -0.1253
      8  O2B       46.3650   18.6160   12.3770 O.2   1406  GNP1406    -0.2351
      9  O3A       48.2830   20.2270   12.7820 O.3   1406  GNP1406    -0.2360
     10  PA        48.4080   20.7060   11.2660 P.3   1406  GNP1406     0.2220
     11  O1A       49.1340   19.7100   10.4360 O.2   1406  GNP1406    -0.5170
     12  O2A       47.0030   20.9920   10.8030 O.3   1406  GNP1406    -0.4370
     13  O5'       49.3340   22.0290   11.4110 O.3   1406  GNP1406    -0.3111
     14  C5'       48.8520   23.3810   11.1330 C.3   1406  GNP1406     0.1813
     15  C4'       49.8850   24.2510   10.4080 C.3   1406  GNP1406     0.1799
     16  O4'       51.2650   24.1280   10.8940 O.3   1406  GNP1406    -0.3326
     17  C3'       50.0250   24.0590    8.8750 C.3   1406  GNP1406     0.2158
     18  O3'       48.9350   24.5180    8.0840 O.3   1406  GNP1406    -0.2175
     19  C2'       51.3200   24.7780    8.5720 C.3   1406  GNP1406     0.2310
     20  O2'       51.2610   26.1730    8.2890 O.3   1406  GNP1406    -0.2158
     21  C1'       52.1560   24.4430    9.8150 C.3   1406  GNP1406     0.2293
     22  N9        53.1310   23.3740    9.4910 N.pl3 1406  GNP1406    -0.2354
     23  C8        52.8810   22.0350    9.2110 C.3   1406  GNP1406     0.2246
     24  N7        53.9540   21.3430    8.9530 N.2   1406  GNP1406    -0.2322
     25  C5        54.9810   22.2540    9.0600 C.2   1406  GNP1406     0.2182
     26  C6        56.3850   22.0790    8.8820 C.1   1406  GNP1406     0.2372
     27  O6        56.9590   21.0400    8.5880 O.2   1406  GNP1406    -0.2069
     28  N1        57.1310   23.2850    9.0820 N.2   1406  GNP1406    -0.2485
     29  C2        56.5650   24.5160    9.4160 C.1   1406  GNP1406     0.2531
     30  N2        57.3920   25.5470    9.5680 N.pl3 1406  GNP1406    -0.0226
     31  N3        55.2300   24.6870    9.5850 N.2   1406  GNP1406    -0.3074
     32  C4        54.5030   23.5190    9.3930 C.2   1406  GNP1406     0.2300
@<TRIPOS>BOND
     1    18    17    1
     2    20    19    1
     3    19    17    1
     4    19    21    1
     5    27    26    2
     6    17    15    1
     7    26    25    1
     8    26    28    2
     9    24    25    2
    10    24    23    1
    11    25    32    1
    12    28    29    2
    13    23    22    1
    14    32    22    1
    15    32    31    2
    16    29    30    1
    17    29    31    2
    18    22    21    1
    19    21    16    1
    20    15    16    1
    21    15    14    1
    22    11    10    2
    23    12    10    1
    24    14    13    1
    25    10    13    1
    26    10     9    1
    27     8     6    2
    28     9     6    1
    29     6     7    1
    30     6     5    1
    31     2     1    2
    32     5     1    1
    33     1     4    1
    34     1     3    1
