@<TRIPOS>MOLECULE
1ob5_ENX_A_1.pdb
 47 47 0 0 0
SMALL
GASTEIGER

@<TRIPOS>ATOM
      1  C1        38.4900    0.2420   22.2900 C.3   1408  ENX1408     0.0050
      2  C2        38.6360   -0.9960   23.1470 C.3   1408  ENX1408     0.0258
      3  C3        40.0340   -1.5020   23.1560 C.2   1408  ENX1408    -0.0271
      4  C4        40.5890   -2.1870   24.1730 C.2   1408  ENX1408     0.0135
      5  C5        42.0130   -2.6840   24.1520 C.3   1408  ENX1408     0.2097
      6  C6        42.6180   -2.9000   25.5830 C.3   1408  ENX1408     0.1548
      7  C7        44.0530   -3.3890   25.4540 C.3   1408  ENX1408     0.1782
      8  C8        44.7540   -3.6310   26.7530 C.3   1408  ENX1408     0.1015
      9  C9        46.1990   -3.8190   26.4940 C.2   1408  ENX1408     0.1859
     10  C10       47.0740   -4.1700   27.6830 C.3   1408  ENX1408     0.2391
     11  C11       47.2570   -2.8800   28.5450 C.3   1408  ENX1408     0.1941
     12  C12       48.4700   -2.9180   29.5290 C.3   1408  ENX1408     0.0665
     13  C13       48.6380   -1.5680   30.1860 C.2   1408  ENX1408     0.0376
     14  C14       49.8290   -0.9400   30.2030 C.2   1408  ENX1408     0.0071
     15  C15       50.0820    0.3550   30.7670 C.2   1408  ENX1408     0.0005
     16  C16       51.2890    0.9340   30.7860 C.2   1408  ENX1408    -0.0006
     17  C17       51.4460    2.2470   31.3560 C.2   1408  ENX1408    -0.0082
     18  C18       52.5760    2.9660   31.5010 C.2   1408  ENX1408    -0.0395
     19  C19       52.4510    4.2960   32.0880 C.3   1408  ENX1408     0.0477
     20  C20       53.2240    5.3680   31.8200 C.2   1408  ENX1408    -0.0258
     21  C21       53.9490    6.0730   32.8650 C.2   1408  ENX1408    -0.0188
     22  C22       54.6920    7.1720   32.6220 C.3   1408  ENX1408     0.1352
     23  C23       54.3660    8.5010   33.1710 C.2   1408  ENX1408     0.3214
     24  O24       53.0030    8.8290   33.0700 O.3   1408  ENX1408    -0.4494
     25  C25       52.5040   10.1270   33.5590 C.3   1408  ENX1408     0.1994
     26  C26       52.5840   10.1960   35.1070 C.3   1408  ENX1408     0.0575
     27  C27       51.5630    9.2600   35.7790 C.3   1408  ENX1408     0.1072
     28  C28       51.6680    9.3870   37.2780 C.2   1408  ENX1408     0.3644
     29  O29       42.8590   -1.7520   23.4000 O.3   1408  ENX1408    -0.4303
     30 CL30       41.6480   -4.0310   26.5200 Cl    1408  ENX1408    -0.1081
     31  O31       44.0500   -4.5910   24.6990 O.3   1408  ENX1408    -0.2212
     32  O32       48.3280   -4.6750   27.2290 O.3   1408  ENX1408    -0.2124
     33  O33       47.3980   -1.8190   27.5930 O.3   1408  ENX1408    -0.2196
     34  C34       48.3200   -4.0370   30.5780 C.3   1408  ENX1408     0.0083
     35 CL35       47.2180   -0.8740   30.8780 Cl    1408  ENX1408    -0.0868
     36  C36       53.9290    2.5000   31.1020 C.3   1408  ENX1408     0.0267
     37  O37       55.1470    9.3160   33.6810 O.2   1408  ENX1408    -0.2497
     38  C38       51.0220   10.4170   33.1130 C.3   1408  ENX1408     0.1917
     39  C39       49.9870    9.4870   33.7940 C.3   1408  ENX1408     0.0372
     40  C40       50.1170    9.5800   35.3230 C.3   1408  ENX1408     0.0141
     41  O41       50.8590   10.3190   31.6940 O.3   1408  ENX1408    -0.2193
     42  C42       43.3960   -2.1380   22.1670 C.2   1408  ENX1408     0.4413
     43  N43       44.5820   -2.8090   22.2950 N.am  1408  ENX1408    -0.0475
     44  O44       42.8120   -1.8660   21.0960 O.2   1408  ENX1408    -0.2227
     45  O45       46.7100   -3.6630   25.3780 O.2   1408  ENX1408    -0.2932
     46  O46       51.5390   10.3940   37.9820 O.co2 1408  ENX1408    -0.2457
     47  O47       51.9530    8.2220   37.9360 O.co2 1408  ENX1408    -0.2457
@<TRIPOS>BOND
     1    44    42    2
     2    42    43   am
     3    42    29    1
     4     1     2    1
     5     2     3    1
     6     3     4    2
     7    29     5    1
     8     5     4    1
     9     5     6    1
    10    31     7    1
    11    45     9    2
    12     7     6    1
    13     7     8    1
    14     6    30    1
    15     9     8    1
    16     9    10    1
    17    32    10    1
    18    33    11    1
    19    10    11    1
    20    11    12    1
    21    12    13    1
    22    12    34    1
    23    13    14    2
    24    13    35    1
    25    14    15    1
    26    15    16    2
    27    16    17    1
    28    36    18    1
    29    17    18    2
    30    18    19    1
    31    41    38    1
    32    20    19    1
    33    20    21    2
    34    22    21    1
    35    22    23    1
    36    24    23    1
    37    24    25    1
    38    38    25    1
    39    38    39    1
    40    23    37    2
    41    25    26    1
    42    39    40    1
    43    26    27    1
    44    40    27    1
    45    27    28    1
    46    28    47   ar
    47    28    46   ar
