@<TRIPOS>MOLECULE
1obb_NAD_A_1.pdb
 44 48 0 0 0
SMALL
GASTEIGER

@<TRIPOS>ATOM
      1  PA        20.7240   32.7340   30.9330 P.3   500  NAD500      0.2189
      2  O1A       19.5870   31.8030   30.7900 O.2   500  NAD500     -0.5170
      3  O2A       21.6740   32.1990   31.9790 O.3   500  NAD500     -0.4371
      4  O5B       20.1700   34.1940   31.3050 O.3   500  NAD500     -0.3112
      5  C5B       21.0530   34.7820   32.3050 C.3   500  NAD500      0.1813
      6  C4B       20.1900   35.3900   33.3870 C.3   500  NAD500      0.1821
      7  O4B       18.8800   35.8280   32.8050 O.3   500  NAD500     -0.3135
      8  C3B       19.7650   34.3130   34.4380 C.3   500  NAD500      0.2184
      9  O3B       20.1960   34.6680   35.7570 O.3   500  NAD500     -0.2174
     10  C2B       18.2640   34.1890   34.2810 C.3   500  NAD500      0.2570
     11  O2B       17.5220   33.6350   35.3090 O.3   500  NAD500     -0.2130
     12  C1B       17.9760   35.6450   33.8870 C.3   500  NAD500      0.3186
     13  N9A       16.6030   35.8270   33.4280 N.pl3 500  NAD500     -0.1439
     14  C8A       15.7410   35.0500   32.6440 C.3   500  NAD500      0.3377
     15  N7A       14.5480   35.5840   32.4670 N.2   500  NAD500     -0.2095
     16  C5A       14.5380   36.7570   33.1220 C.2   500  NAD500      0.2526
     17  C6A       13.5100   37.7950   33.2940 C.2   500  NAD500      0.4393
     18  N6A       12.3080   37.6880   32.7620 N.pl3 500  NAD500      0.2180
     19  N1A       13.9070   38.8970   34.0640 N.2   500  NAD500      0.0021
     20  C2A       15.1160   39.0530   34.6430 C.3   500  NAD500      0.5254
     21  N3A       16.1410   38.0840   34.5210 N.2   500  NAD500     -0.0055
     22  C4A       15.8070   36.9460   33.7410 C.2   500  NAD500      0.3518
     23  O3        21.5060   32.8990   29.5660 O.3   500  NAD500     -0.2703
     24  PN        23.0460   33.3000   29.2280 P.3   500  NAD500      0.2189
     25  O1N       23.4830   32.4550   28.1140 O.2   500  NAD500     -0.5170
     26  O2N       23.7920   33.2340   30.5330 O.3   500  NAD500     -0.4371
     27  O5D       22.9580   34.8360   28.6810 O.3   500  NAD500     -0.3112
     28  C5D       21.7200   35.6280   28.6830 C.3   500  NAD500      0.1813
     29  C4D       21.6730   36.5280   27.4850 C.3   500  NAD500      0.1799
     30  O4D       23.0060   37.1960   27.2720 O.3   500  NAD500     -0.3327
     31  C3D       21.3820   35.7920   26.1310 C.3   500  NAD500      0.2158
     32  O3D       20.5700   36.6090   25.2580 O.3   500  NAD500     -0.2175
     33  C2D       22.7850   35.5450   25.5500 C.3   500  NAD500      0.2309
     34  O2D       22.7910   35.2560   24.1850 O.3   500  NAD500     -0.2158
     35  C1D       23.5650   36.8640   25.9600 C.3   500  NAD500      0.2263
     36  N1N       25.0610   36.6860   26.1210 N.pl3 500  NAD500     -0.2787
     37  C2N       25.4900   35.5350   26.9120 C.3   500  NAD500      0.1244
     38  C3N       26.7800   35.2600   27.1260 C.2   500  NAD500      0.0544
     39  C7N       27.1870   34.0400   27.9650 C.2   500  NAD500      0.2818
     40  O7N       28.3080   34.0170   28.5400 O.2   500  NAD500     -0.2670
     41  N7N       26.3370   33.0080   28.0900 N.am  500  NAD500     -0.0839
     42  C4N       27.8500   36.1760   26.5260 C.2   500  NAD500      0.0033
     43  C5N       27.4120   37.3730   25.7090 C.2   500  NAD500      0.0157
     44  C6N       26.0070   37.5970   25.5270 C.2   500  NAD500      0.0633
@<TRIPOS>BOND
     1    34    33    1
     2    32    31    1
     3    44    43    2
     4    44    36    1
     5    33    35    1
     6    33    31    1
     7    43    42    1
     8    35    36    1
     9    35    30    1
    10    36    37    1
    11    31    29    1
    12    42    38    2
    13    37    38    1
    14    38    39    1
    15    30    29    1
    16    29    28    1
    17    39    41   am
    18    39    40    2
    19    25    24    2
    20    27    28    1
    21    27    24    1
    22    24    23    1
    23    24    26    1
    24    23     1    1
    25     2     1    2
    26     1     4    1
    27     1     3    1
    28     4     5    1
    29     5     6    1
    30    15    14    1
    31    15    16    2
    32    14    13    1
    33    18    17    1
    34     7     6    1
    35     7    12    1
    36    16    17    1
    37    16    22    1
    38    17    19    2
    39     6     8    1
    40    13    22    1
    41    13    12    1
    42    22    21    2
    43    12    10    1
    44    19    20    1
    45    10     8    1
    46    10    11    1
    47     8     9    1
    48    21    20    1
