@<TRIPOS>MOLECULE
1obb_MAL_A_1.pdb
 23 24 0 0 0
SMALL
GASTEIGER

@<TRIPOS>ATOM
      1  C1        29.5360   34.2600   21.6440 C.3   900  MAL900      0.2695
      2  C2        28.6060   35.4290   21.2660 C.3   900  MAL900      0.2406
      3  C3        27.5640   35.6290   22.3370 C.3   900  MAL900      0.2198
      4  C4        26.7550   34.3270   22.4180 C.3   900  MAL900      0.2144
      5  C5        27.6670   33.1160   22.7370 C.3   900  MAL900      0.1835
      6  C6        27.0060   31.7470   22.5060 C.3   900  MAL900      0.2142
      7  O1        30.3070   34.5650   22.7790 O.3   900  MAL900     -0.3257
      8  O2        29.4340   36.5700   21.1060 O.3   900  MAL900     -0.2149
      9  O3        26.7330   36.7370   21.9730 O.3   900  MAL900     -0.2174
     10  O4        25.7670   34.4640   23.4720 O.3   900  MAL900     -0.2176
     11  O5        28.8150   33.0710   21.8680 O.3   900  MAL900     -0.3256
     12  O6        26.5430   31.6380   21.1490 O.3   900  MAL900     -0.2176
     13  C1'       33.9910   33.1360   24.3270 C.3   900  MAL900      0.3023
     14  C2'       33.8490   33.3920   22.8200 C.3   900  MAL900      0.2433
     15  C3'       32.6800   34.3410   22.4230 C.3   900  MAL900      0.2168
     16  C4'       31.4370   33.6860   23.0030 C.3   900  MAL900      0.1804
     17  C5'       31.5940   33.5230   24.5300 C.3   900  MAL900      0.1804
     18  C6'       30.3670   32.8420   25.2170 C.3   900  MAL900      0.2141
     19  O1'       34.3130   34.4100   24.8620 O.3   900  MAL900     -0.1869
     20  O2'       34.9790   34.0480   22.2860 O.3   900  MAL900     -0.2148
     21  O3'       32.6220   34.5050   20.9850 O.3   900  MAL900     -0.2175
     22  O5'       32.7470   32.6550   24.9010 O.3   900  MAL900     -0.3237
     23  O6'       30.8080   32.8370   26.5970 O.3   900  MAL900     -0.2176
@<TRIPOS>BOND
     1    21    15    1
     2     8     2    1
     3    12     6    1
     4     2     1    1
     5     2     3    1
     6     1    11    1
     7     1     7    1
     8    11     5    1
     9     9     3    1
    10    20    14    1
    11     3     4    1
    12     4     5    1
    13     4    10    1
    14    15    14    1
    15    15    16    1
    16     6     5    1
    17     7    16    1
    18    14    13    1
    19    16    17    1
    20    13    19    1
    21    13    22    1
    22    17    22    1
    23    17    18    1
    24    18    23    1
