@<TRIPOS>MOLECULE
1obc_LMS_A_1.pdb
 23 25 0 0 0
SMALL
GASTEIGER

@<TRIPOS>ATOM
      1  N9        34.2390   43.7190   74.6780 N.pl3 1817  LMS1817    -0.1439
      2  C8        34.4000   44.9610   75.2510 C.3   1817  LMS1817     0.3377
      3  N7        34.2750   44.9580   76.5590 N.2   1817  LMS1817    -0.2095
      4  C5        34.0280   43.6270   76.8710 C.2   1817  LMS1817     0.2526
      5  C6        33.7870   42.9600   78.1000 C.2   1817  LMS1817     0.4393
      6  N6        33.7390   43.5760   79.2880 N.pl3 1817  LMS1817     0.2180
      7  N1        33.5870   41.6240   78.0590 N.2   1817  LMS1817     0.0021
      8  C2        33.6200   41.0070   76.8660 C.3   1817  LMS1817     0.5254
      9  N3        33.8240   41.5210   75.6510 N.2   1817  LMS1817    -0.0055
     10  C4        34.0210   42.8500   75.7240 C.2   1817  LMS1817     0.3518
     11  N         34.7020   48.1350   69.5480 N.3   1817  LMS1817     0.0391
     12  S         35.0980   48.0270   71.1330 S.3   1817  LMS1817     0.0828
     13  O1P       36.5260   48.3520   71.3340 O.3   1817  LMS1817    -0.0529
     14  O2P       34.0860   48.7380   71.9440 O.3   1817  LMS1817    -0.0529
     15  O5'       34.9110   46.4900   71.5180 O.3   1817  LMS1817    -0.2246
     16  C5'       35.6890   45.4610   70.8730 C.3   1817  LMS1817     0.2061
     17  C4'       35.1650   44.0860   71.2370 C.3   1817  LMS1817     0.1842
     18  O4'       35.4330   43.8070   72.6460 O.3   1817  LMS1817    -0.3135
     19  C3'       33.6660   43.8500   71.0330 C.3   1817  LMS1817     0.2185
     20  O3'       33.4370   42.5320   70.5440 O.3   1817  LMS1817    -0.2174
     21  C2'       33.1140   43.9610   72.4530 C.3   1817  LMS1817     0.2570
     22  O2'       31.9360   43.2080   72.6590 O.3   1817  LMS1817    -0.2130
     23  C1'       34.2510   43.3440   73.2600 C.3   1817  LMS1817     0.3186
@<TRIPOS>BOND
     1    11    12    1
     2    20    19    1
     3    16    17    1
     4    16    15    1
     5    19    17    1
     6    19    21    1
     7    12    13    1
     8    12    15    1
     9    12    14    1
    10    17    18    1
    11    21    22    1
    12    21    23    1
    13    18    23    1
    14    23     1    1
    15     1     2    1
    16     1    10    1
    17     2     3    1
    18     9    10    2
    19     9     8    1
    20    10     4    1
    21     3     4    2
    22     8     7    1
    23     4     5    1
    24     7     5    2
    25     5     6    1
