@<TRIPOS>MOLECULE
1obc_2AD_A_1.pdb
 19 21 0 0 0
SMALL
GASTEIGER

@<TRIPOS>ATOM
      1  O5'        2.5070   52.3490   59.9960 O.3   1816  2AD1816    -0.2176
      2  C5'        1.3840   51.9260   59.2060 C.3   1816  2AD1816     0.2142
      3  C4'        0.1200   52.6000   59.6910 C.3   1816  2AD1816     0.1839
      4  O4'        0.2620   54.0390   59.5730 O.3   1816  2AD1816    -0.3143
      5  C3'       -1.1150   52.2770   58.8660 C.3   1816  2AD1816     0.2057
      6  O3'       -1.7190   51.0720   59.3280 O.3   1816  2AD1816    -0.2186
      7  C2'       -2.0110   53.4900   59.0910 C.3   1816  2AD1816     0.1972
      8  C1'       -1.0090   54.6160   59.3270 C.3   1816  2AD1816     0.3053
      9  N9        -0.8920   55.5550   58.2170 N.pl3 1816  2AD1816    -0.1448
     10  C8        -0.8000   55.2850   56.8720 C.3   1816  2AD1816     0.3377
     11  N7        -0.6710   56.3550   56.1280 N.2   1816  2AD1816    -0.2095
     12  C5        -0.6870   57.3990   57.0410 C.2   1816  2AD1816     0.2526
     13  C6        -0.5860   58.7900   56.8850 C.2   1816  2AD1816     0.4393
     14  N6        -0.4320   59.3910   55.7030 N.pl3 1816  2AD1816     0.2180
     15  N1        -0.6490   59.5540   57.9990 N.2   1816  2AD1816     0.0021
     16  C2        -0.8030   58.9470   59.1840 C.3   1816  2AD1816     0.5254
     17  N3        -0.9040   57.6510   59.4580 N.2   1816  2AD1816    -0.0055
     18  C4        -0.8350   56.9220   58.3300 C.2   1816  2AD1816     0.3518
     19  N         -3.0270   53.4530   60.1590 N.3   1816  2AD1816    -0.1230
@<TRIPOS>BOND
     1    14    13    1
     2    11    10    1
     3    11    12    2
     4    10     9    1
     5    13    12    1
     6    13    15    2
     7    12    18    1
     8    15    16    1
     9     9    18    1
    10     9     8    1
    11    18    17    2
    12     5     7    1
    13     5     6    1
    14     5     3    1
    15     7     8    1
    16     7    19    1
    17    16    17    1
    18     2     3    1
    19     2     1    1
    20     8     4    1
    21     4     3    1
