@<TRIPOS>MOLECULE
1obd_ATP_A_1.pdb
 31 33 0 0 0
SMALL
GASTEIGER

@<TRIPOS>ATOM
      1  PG         5.9010   26.0890   -3.2060 P.3   307  ATP307      0.5373
      2  O1G        6.4720   27.3980   -3.6380 O.3   307  ATP307     -0.1143
      3  O2G        5.1380   26.2030   -1.8700 O.3   307  ATP307     -0.1143
      4  O3G        4.9710   25.5780   -4.3140 O.2   307  ATP307     -0.2221
      5  PB         7.6350   24.4300   -1.7310 P.3   307  ATP307      0.2277
      6  O1B        8.7100   23.4680   -2.0580 O.2   307  ATP307     -0.5168
      7  O2B        6.5220   23.8660   -0.8590 O.3   307  ATP307     -0.4368
      8  O3B        7.1020   25.0110   -3.0960 O.3   307  ATP307     -0.2258
      9  PA         8.0030   26.3690    0.3570 P.3   307  ATP307      0.2189
     10  O1A        8.4610   27.7660    0.2790 O.2   307  ATP307     -0.5170
     11  O2A        6.5190   26.2540    0.6670 O.3   307  ATP307     -0.4371
     12  O3A        8.3100   25.7050   -1.0490 O.3   307  ATP307     -0.2700
     13  O5'        8.9160   25.5550    1.3710 O.3   307  ATP307     -0.3112
     14  C5'        8.4030   25.1910    2.6270 C.3   307  ATP307      0.1813
     15  C4'        8.7820   23.7480    2.9020 C.3   307  ATP307      0.1821
     16  O4'        8.8620   23.5610    4.2910 O.3   307  ATP307     -0.3135
     17  C3'        7.6970   22.8320    2.4170 C.3   307  ATP307      0.2184
     18  O3'        8.3270   21.5930    2.1030 O.3   307  ATP307     -0.2174
     19  C2'        6.7640   22.7620    3.6290 C.3   307  ATP307      0.2570
     20  O2'        5.9060   21.6660    3.7310 O.3   307  ATP307     -0.2130
     21  C1'        7.8020   22.7080    4.7290 C.3   307  ATP307      0.3186
     22  N9         7.5150   23.2790    6.0640 N.pl3 307  ATP307     -0.1439
     23  C8         6.6700   24.3340    6.2740 C.3   307  ATP307      0.3377
     24  N7         6.7230   24.6190    7.5600 N.2   307  ATP307     -0.2095
     25  C5         7.5520   23.7660    8.2300 C.2   307  ATP307      0.2526
     26  C6         7.9760   23.5690    9.5480 C.2   307  ATP307      0.4393
     27  N6         7.7750   24.3940   10.5620 N.pl3 307  ATP307      0.2180
     28  N1         8.8490   22.5460    9.8190 N.2   307  ATP307      0.0021
     29  C2         9.3310   21.7450    8.8300 C.3   307  ATP307      0.5254
     30  N3         8.9310   21.9120    7.5370 N.2   307  ATP307     -0.0055
     31  C4         8.0590   22.9080    7.2510 C.2   307  ATP307      0.3518
@<TRIPOS>BOND
     1     4     1    2
     2     2     1    1
     3     1     8    1
     4     1     3    1
     5     8     5    1
     6     6     5    2
     7     5    12    1
     8     5     7    1
     9    12     9    1
    10    10     9    2
    11     9    11    1
    12     9    13    1
    13    13    14    1
    14    18    17    1
    15    17    15    1
    16    17    19    1
    17    14    15    1
    18    15    16    1
    19    19    20    1
    20    19    21    1
    21    16    21    1
    22    21    22    1
    23    22    23    1
    24    22    31    1
    25    23    24    1
    26    31    30    2
    27    31    25    1
    28    30    29    1
    29    24    25    2
    30    25    26    1
    31    29    28    1
    32    26    28    2
    33    26    27    1
