@<TRIPOS>MOLECULE
1obd_AMP_A_1.pdb
 23 25 0 0 0
SMALL
GASTEIGER

@<TRIPOS>ATOM
      1  P          8.0430   39.6860   18.8130 P.3   315  AMP315      0.5327
      2  O1P        7.7740   40.6370   19.9950 O.3   315  AMP315     -0.1145
      3  O2P        6.8830   38.7840   18.6430 O.2   315  AMP315     -0.2224
      4  O3P        9.3160   38.8560   19.0920 O.3   315  AMP315     -0.1145
      5  O5'        8.2900   40.5340   17.4630 O.3   315  AMP315     -0.2675
      6  C5'        9.2750   41.5450   17.4120 C.3   315  AMP315      0.1860
      7  C4'        9.9220   41.6170   16.0320 C.3   315  AMP315      0.1823
      8  O4'       10.6260   40.4170   15.7520 O.3   315  AMP315     -0.3135
      9  C3'        8.8990   41.8150   14.9230 C.3   315  AMP315      0.2184
     10  O3'        9.2380   42.9330   14.1330 O.3   315  AMP315     -0.2174
     11  C2'        8.9330   40.5290   14.1140 C.3   315  AMP315      0.2570
     12  O2'        8.9320   40.7810   12.7260 O.3   315  AMP315     -0.2130
     13  C1'       10.2200   39.8280   14.5300 C.3   315  AMP315      0.3186
     14  N9        10.0930   38.3690   14.7560 N.pl3 315  AMP315     -0.1439
     15  C8         9.3770   37.7670   15.7530 C.3   315  AMP315      0.3377
     16  N7         9.4950   36.4180   15.6450 N.2   315  AMP315     -0.2095
     17  C5        10.2870   36.1600   14.5860 C.2   315  AMP315      0.2526
     18  C6        10.7070   34.9510   14.0630 C.2   315  AMP315      0.4393
     19  N6        10.3370   33.8060   14.6270 N.pl3 315  AMP315      0.2180
     20  N1        11.5510   34.9950   12.9590 N.2   315  AMP315      0.0021
     21  C2        11.9150   36.1950   12.3750 C.3   315  AMP315      0.5254
     22  N3        11.4880   37.4030   12.9020 N.2   315  AMP315     -0.0055
     23  C4        10.6720   37.3690   14.0010 C.2   315  AMP315      0.3518
@<TRIPOS>BOND
     1    21    22    1
     2    21    20    1
     3    12    11    1
     4    22    23    2
     5    20    18    2
     6    23    17    1
     7    23    14    1
     8    18    17    1
     9    18    19    1
    10    11    13    1
    11    11     9    1
    12    10     9    1
    13    13    14    1
    14    13     8    1
    15    17    16    2
    16    14    15    1
    17     9     7    1
    18    16    15    1
    19     8     7    1
    20     7     6    1
    21     6     5    1
    22     5     1    1
    23     3     1    2
    24     1     4    1
    25     1     2    1
