@<TRIPOS>MOLECULE
1obg_AMP_A_1.pdb
 23 25 0 0 0
SMALL
GASTEIGER

@<TRIPOS>ATOM
      1  P          4.1110   19.7210   15.1480 P.3   307  AMP307      0.5327
      2  O1P        4.7920   21.0660   14.8590 O.3   307  AMP307     -0.1145
      3  O2P        4.9490   18.8250   15.9880 O.3   307  AMP307     -0.1145
      4  O3P        3.7360   18.9870   13.7580 O.2   307  AMP307     -0.2224
      5  O5'        2.7620   19.9900   15.9740 O.3   307  AMP307     -0.2675
      6  C5'        2.0700   18.8760   16.4660 C.3   307  AMP307      0.1860
      7  C4'        0.5890   19.1740   16.4120 C.3   307  AMP307      0.1823
      8  O4'        0.2070   19.8080   17.6170 O.3   307  AMP307     -0.3135
      9  C3'        0.2510   20.1240   15.2620 C.3   307  AMP307      0.2184
     10  O3'       -0.7830   19.5490   14.5010 O.3   307  AMP307     -0.2174
     11  C2'       -0.2460   21.3770   15.9570 C.3   307  AMP307      0.2570
     12  O2'       -1.3130   21.9310   15.2360 O.3   307  AMP307     -0.2130
     13  C1'       -0.7070   20.8220   17.3020 C.3   307  AMP307      0.3186
     14  N9        -0.7610   21.8030   18.4050 N.pl3 307  AMP307     -0.1439
     15  C8         0.0430   22.8910   18.6540 C.3   307  AMP307      0.3377
     16  N7        -0.4050   23.4850   19.7910 N.2   307  AMP307     -0.2095
     17  C5        -1.4660   22.7920   20.2680 C.2   307  AMP307      0.2526
     18  C6        -2.3000   22.9400   21.3810 C.2   307  AMP307      0.4393
     19  N6        -2.0230   23.8130   22.3560 N.pl3 307  AMP307      0.2180
     20  N1        -3.3260   22.0300   21.5720 N.2   307  AMP307      0.0021
     21  C2        -3.5270   20.9850   20.6980 C.3   307  AMP307      0.5254
     22  N3        -2.6930   20.8430   19.6020 N.2   307  AMP307     -0.0055
     23  C4        -1.6900   21.7290   19.3970 C.2   307  AMP307      0.3518
@<TRIPOS>BOND
     1     4     1    2
     2    10     9    1
     3     2     1    1
     4     1     5    1
     5     1     3    1
     6    12    11    1
     7     9    11    1
     8     9     7    1
     9    11    13    1
    10     5     6    1
    11     7     6    1
    12     7     8    1
    13    13     8    1
    14    13    14    1
    15    14    15    1
    16    14    23    1
    17    15    16    1
    18    23    22    2
    19    23    17    1
    20    22    21    1
    21    16    17    2
    22    17    18    1
    23    21    20    1
    24    18    20    2
    25    18    19    1
