@<TRIPOS>MOLECULE
1obh_LMS_A_1.pdb
 23 25 0 0 0
SMALL
GASTEIGER

@<TRIPOS>ATOM
      1  N9        69.2710   43.2840   11.9420 N.pl3 1817  LMS1817    -0.1439
      2  C8        69.1930   44.5210   11.3470 C.3   1817  LMS1817     0.3377
      3  N7        69.3350   44.4890   10.0430 N.2   1817  LMS1817    -0.2095
      4  C5        69.5130   43.1420    9.7610 C.2   1817  LMS1817     0.2526
      5  C6        69.7330   42.4430    8.5590 C.2   1817  LMS1817     0.4393
      6  N6        69.8210   43.0250    7.3550 N.pl3 1817  LMS1817     0.2180
      7  N1        69.8670   41.1030    8.6350 N.2   1817  LMS1817     0.0021
      8  C2        69.7890   40.5140    9.8320 C.3   1817  LMS1817     0.5254
      9  N3        69.5960   41.0570   11.0230 N.2   1817  LMS1817    -0.0055
     10  C4        69.4660   42.3900   10.9190 C.2   1817  LMS1817     0.3518
     11  N         68.8540   47.6990   16.9030 N.3   1817  LMS1817     0.0391
     12  S         68.3440   47.5870   15.3520 S.3   1817  LMS1817     0.0828
     13  O1P       66.9110   47.9470   15.2410 O.3   1817  LMS1817    -0.0529
     14  O2P       69.3210   48.2540   14.4620 O.3   1817  LMS1817    -0.0529
     15  O5'       68.4460   46.0470   14.9620 O.3   1817  LMS1817    -0.2246
     16  C5'       67.5650   45.0680   15.5330 C.3   1817  LMS1817     0.2061
     17  C4'       68.1140   43.6800   15.2950 C.3   1817  LMS1817     0.1842
     18  O4'       67.9530   43.3330   13.8860 O.3   1817  LMS1817    -0.3135
     19  C3'       69.6020   43.4920   15.6140 C.3   1817  LMS1817     0.2185
     20  O3'       69.8370   42.2000   16.1670 O.3   1817  LMS1817    -0.2174
     21  C2'       70.2500   43.5870   14.2370 C.3   1817  LMS1817     0.2570
     22  O2'       71.4670   42.8770   14.1570 O.3   1817  LMS1817    -0.2130
     23  C1'       69.1950   42.9190   13.3600 C.3   1817  LMS1817     0.3186
@<TRIPOS>BOND
     1     6     5    1
     2     5     7    2
     3     5     4    1
     4     7     8    1
     5     4     3    2
     6     4    10    1
     7     8     9    1
     8     3     2    1
     9    10     9    2
    10    10     1    1
    11     2     1    1
    12     1    23    1
    13    23    18    1
    14    23    21    1
    15    18    17    1
    16    22    21    1
    17    21    19    1
    18    14    12    1
    19    15    12    1
    20    15    16    1
    21    13    12    1
    22    17    16    1
    23    17    19    1
    24    12    11    1
    25    19    20    1
