@<TRIPOS>MOLECULE
1obm_HEM_A_1.pdb
 43 50 0 0 0
SMALL
GASTEIGER

@<TRIPOS>ATOM
      1 FE         35.4230    4.4210   10.0900 Fe    154  HEM154      0.0000
      2  CHA       38.0170    2.5420   11.1810 C.2   154  HEM154      0.0000
      3  CHB       37.3060    5.4680    7.4320 C.2   154  HEM154      0.0000
      4  CHC       32.7430    6.1480    8.8460 C.2   154  HEM154      0.0000
      5  CHD       33.5700    3.5090   12.7950 C.2   154  HEM154      0.0000
      6  NA        37.2350    4.1310    9.3990 N.ar  154  HEM154      0.0000
      7  C1A       38.1980    3.3250    9.9930 C.ar  154  HEM154      0.0000
      8  C2A       39.4650    3.3410    9.2370 C.ar  154  HEM154      0.0000
      9  C3A       39.2410    4.1860    8.1900 C.ar  154  HEM154      0.0000
     10  C4A       37.8710    4.6430    8.3040 C.ar  154  HEM154      0.0000
     11  CMA       40.2000    4.4320    7.0640 C.3   154  HEM154      0.0000
     12  CAA       40.7180    2.4380    9.5340 C.3   154  HEM154      0.0000
     13  CBA       40.7770    1.1960    8.6400 C.3   154  HEM154      0.0000
     14  CGA       39.5040    0.3610    8.7040 C.2   154  HEM154      0.0000
     15  O1A       39.1910   -0.2230    9.7690 O.co2 154  HEM154      0.0000
     16  O2A       38.7990    0.2980    7.6780 O.co2 154  HEM154      0.0000
     17  NB        35.0440    5.5180    8.4740 N.2   154  HEM154      0.0000
     18  C1B       35.9450    5.8560    7.4760 C.2   154  HEM154      0.0000
     19  C2B       35.3580    6.7120    6.4520 C.2   154  HEM154      0.0000
     20  C3B       34.1050    6.9210    6.8870 C.2   154  HEM154      0.0000
     21  C4B       33.9110    6.1790    8.1010 C.2   154  HEM154      0.0000
     22  CMB       36.0280    7.1700    5.1300 C.3   154  HEM154      0.0000
     23  CAB       33.0700    7.6780    6.2330 C.3   154  HEM154      0.0000
     24  CBB       33.1730    8.8620    5.4010 C.3   154  HEM154      0.0000
     25  NC        33.5140    4.7370   10.6590 N.ar  154  HEM154      0.0000
     26  C1C       32.5920    5.5410   10.0900 C.ar  154  HEM154      0.0000
     27  C2C       31.4330    5.7330   11.0160 C.ar  154  HEM154      0.0000
     28  C3C       31.6330    4.9860   12.1460 C.ar  154  HEM154      0.0000
     29  C4C       32.9570    4.3770   11.9040 C.ar  154  HEM154      0.0000
     30  CMC       30.2400    6.6400   10.7130 C.3   154  HEM154      0.0000
     31  CAC       30.9060    4.8510   13.3910 C.3   154  HEM154      0.0000
     32  CBC       29.7340    5.4350   13.9070 C.3   154  HEM154      0.0000
     33  ND        35.7580    3.2920   11.6430 N.2   154  HEM154      0.0000
     34  C1D       34.8440    3.0010   12.6690 C.2   154  HEM154      0.0000
     35  C2D       35.4400    2.1390   13.6190 C.2   154  HEM154      0.0000
     36  C3D       36.6900    1.8660   13.1960 C.2   154  HEM154      0.0000
     37  C4D       36.8630    2.5360   11.9460 C.2   154  HEM154      0.0000
     38  CMD       34.7850    1.5960   14.8570 C.3   154  HEM154      0.0000
     39  CAD       37.7840    1.1340   13.9720 C.3   154  HEM154      0.0000
     40  CBD       38.5920    2.1640   14.7540 C.3   154  HEM154      0.0000
     41  CGD       39.7890    1.5320   15.4750 C.2   154  HEM154      0.0000
     42  O1D       39.8680    1.6430   16.7110 O.co2 154  HEM154      0.0000
     43  O2D       40.6400    0.9130   14.8110 O.co2 154  HEM154      0.0000
@<TRIPOS>BOND
     1    22    19    1
     2    24    23    1
     3    23    20    1
     4    19    20    2
     5    19    18    1
     6    20    21    1
     7    11     9    1
     8     3    18    1
     9     3    10    2
    10    18    17    2
    11    16    14   ar
    12    21    17    1
    13    21     4    2
    14     9    10   ar
    15     9     8   ar
    16    10     6   ar
    17    17     1    1
    18    13    14    1
    19    13    12    1
    20    14    15   ar
    21     4    26    1
    22     8    12    1
    23     8     7   ar
    24     6     7   ar
    25     6     1    1
    26     7     2    2
    27     1    25    1
    28     1    33    1
    29    26    25   ar
    30    26    27   ar
    31    25    29   ar
    32    30    27    1
    33    27    28   ar
    34     2    37    1
    35    33    37    2
    36    33    34    1
    37    29    28   ar
    38    29     5    1
    39    37    36    1
    40    28    31    1
    41    34     5    2
    42    34    35    1
    43    36    35    2
    44    36    39    1
    45    31    32    1
    46    35    38    1
    47    39    40    1
    48    40    41    1
    49    43    41   ar
    50    41    42   ar
