@<TRIPOS>MOLECULE
1obn_ASV_A_1.pdb
 23 22 0 0 0
SMALL
GASTEIGER

@<TRIPOS>ATOM
      1  C1        17.2490   36.2970    5.6910 C.2   1332  ASV1332     0.3819
      2  C2        15.8470   36.4460    6.2060 C.3   1332  ASV1332     0.1943
      3  C3        15.1480   37.5940    5.5220 C.3   1332  ASV1332     0.0311
      4  C4        13.6990   37.8040    6.0290 C.3   1332  ASV1332     0.0117
      5  C7        13.2400   39.0900    5.3110 C.3   1332  ASV1332     0.0869
      6  C10       11.8240   39.5220    5.6380 C.2   1332  ASV1332     0.2418
      7  N11       10.9000   39.3270    4.7200 N.am  1332  ASV1332    -0.1968
      8  C12        9.4840   39.4760    4.9190 C.3   1332  ASV1332     0.1843
      9  C13        8.7630   38.1740    4.7200 C.2   1332  ASV1332     0.2626
     10  N14       15.8200   36.5710    7.6730 N.3   1332  ASV1332    -0.1208
     11  O15       11.5400   40.0370    6.7200 O.2   1332  ASV1332    -0.2733
     12  C16        9.0950   40.5230    3.8740 C.3   1332  ASV1332     0.0997
     13  S17        9.4150   40.0050    2.1620 S.3   1332  ASV1332    -0.0797
     14  O18        9.2980   37.1030    4.8380 O.2   1332  ASV1332    -0.2714
     15  O19       18.1580   36.4560    6.5190 O.co2 1332  ASV1332    -0.2441
     16  O20       17.4050   36.0020    4.5170 O.co2 1332  ASV1332    -0.2441
     17  N29        7.4500   38.2460    4.5090 N.am  1332  ASV1332    -0.1941
     18  C30        6.5860   37.0890    4.3400 C.3   1332  ASV1332     0.1978
     19  C31        5.4050   37.2380    5.2440 C.2   1332  ASV1332     0.3842
     20  C32        6.1390   36.9240    2.8770 C.3   1332  ASV1332     0.0333
     21  C33        7.3810   36.8580    1.9820 C.3   1332  ASV1332     0.0024
     22  O42        4.4380   36.4940    5.0780 O.co2 1332  ASV1332    -0.2437
     23  O43        5.3690   38.0720    6.1730 O.co2 1332  ASV1332    -0.2437
@<TRIPOS>BOND
     1    21    20    1
     2    13    12    1
     3    20    18    1
     4    12     8    1
     5    18    17    1
     6    18    19    1
     7    17     9   am
     8    16     1   ar
     9     7     8    1
    10     7     6   am
    11     9    14    2
    12     9     8    1
    13    22    19   ar
    14    19    23   ar
    15     5     6    1
    16     5     4    1
    17     3     4    1
    18     3     2    1
    19     6    11    2
    20     1     2    1
    21     1    15   ar
    22     2    10    1
