@<TRIPOS>MOLECULE
1obo_FMN_A_1.pdb
 31 33 0 0 0
SMALL
GASTEIGER

@<TRIPOS>ATOM
      1  N1         2.6820   -1.8380   28.6900 N.2   1170  FMN1170    -0.2887
      2  C2         1.9730   -1.3700   27.6220 C.1   1170  FMN1170     0.3669
      3  O2         1.9500   -1.9350   26.5440 O.2   1170  FMN1170    -0.1744
      4  N3         1.2580   -0.1850   27.8350 N.2   1170  FMN1170    -0.2300
      5  C4         1.1870    0.5720   29.0310 C.1   1170  FMN1170     0.2513
      6  O4         0.5150    1.5970   29.0810 O.2   1170  FMN1170    -0.2057
      7  C4A        1.9220    0.0410   30.0830 C.2   1170  FMN1170     0.2703
      8  N5         1.9970    0.5730   31.3300 N.2   1170  FMN1170    -0.3882
      9  C5A        2.6630    0.1500   32.4480 C.2   1170  FMN1170     0.1277
     10  C6         2.5670    0.8840   33.7020 C.3   1170  FMN1170     0.0820
     11  C7         3.2860    0.3840   34.8600 C.2   1170  FMN1170    -0.0408
     12  C7M        3.1490    1.1780   36.1660 C.3   1170  FMN1170     0.0265
     13  C8         4.0910   -0.8370   34.7280 C.2   1170  FMN1170    -0.0280
     14  C8M        4.9100   -1.4920   35.8860 C.3   1170  FMN1170     0.0304
     15  C9         4.1390   -1.4990   33.4480 C.2   1170  FMN1170     0.0123
     16  C9A        3.4080   -1.0110   32.3050 C.2   1170  FMN1170     0.0793
     17  N10        3.3840   -1.5990   31.0310 N.pl3 1170  FMN1170    -0.2545
     18  C10        2.6640   -1.1660   29.8800 C.2   1170  FMN1170     0.2449
     19  C1'        4.2120   -2.8660   30.8760 C.3   1170  FMN1170     0.1336
     20  C2'        5.6980   -2.6240   30.5770 C.3   1170  FMN1170     0.2048
     21  O2'        5.8800   -1.9750   29.3200 O.3   1170  FMN1170    -0.2185
     22  C3'        6.4140   -3.9670   30.5220 C.3   1170  FMN1170     0.2165
     23  O3'        6.3260   -4.6490   31.7690 O.3   1170  FMN1170    -0.2175
     24  C4'        7.8670   -3.7970   29.9950 C.3   1170  FMN1170     0.2147
     25  O4'        8.4190   -5.0840   29.6910 O.3   1170  FMN1170    -0.2176
     26  C5'        8.8340   -3.2330   30.9910 C.3   1170  FMN1170     0.1892
     27  O5'       10.0730   -3.0240   30.3510 O.3   1170  FMN1170    -0.2674
     28  P         11.3720   -2.5580   31.1010 P.3   1170  FMN1170     0.5327
     29  O1P       11.0290   -1.3520   31.8970 O.3   1170  FMN1170    -0.1145
     30  O2P       11.7150   -3.7180   31.9560 O.3   1170  FMN1170    -0.1145
     31  O3P       12.3520   -2.4020   30.0180 O.2   1170  FMN1170    -0.2224
@<TRIPOS>BOND
     1     3     2    2
     2     2     4    2
     3     2     1    2
     4     4     5    2
     5     1    18    2
     6     5     6    2
     7     5     7    1
     8    21    20    1
     9    25    24    1
    10    18     7    1
    11    18    17    1
    12    24    22    1
    13    24    26    1
    14    31    28    2
    15     7     8    2
    16    27    26    1
    17    27    28    1
    18    22    20    1
    19    22    23    1
    20    20    19    1
    21    19    17    1
    22    17    16    1
    23    28    29    1
    24    28    30    1
    25     8     9    2
    26    16     9    1
    27    16    15    2
    28     9    10    1
    29    15    13    1
    30    10    11    1
    31    13    11    2
    32    13    14    1
    33    11    12    1
