@<TRIPOS>MOLECULE
1obt_AMP_A_1.pdb
 23 25 0 0 0
SMALL
GASTEIGER

@<TRIPOS>ATOM
      1  P         54.8340  -30.0600   95.8560 P.3   701  AMP701      0.5327
      2  O1P       54.4240  -30.8970   97.0420 O.3   701  AMP701     -0.1145
      3  O2P       54.0720  -30.0350   94.5580 O.2   701  AMP701     -0.2224
      4  O3P       56.3810  -30.4550   95.4750 O.3   701  AMP701     -0.1145
      5  O5'       54.7430  -28.5410   96.3810 O.3   701  AMP701     -0.2675
      6  C5'       53.4210  -28.0230   96.6440 C.3   701  AMP701      0.1860
      7  C4'       53.4210  -26.5030   96.5090 C.3   701  AMP701      0.1823
      8  O4'       54.5280  -25.9790   97.2940 O.3   701  AMP701     -0.3135
      9  C3'       53.6640  -26.0650   95.0450 C.3   701  AMP701      0.2184
     10  O3'       53.0550  -24.7690   94.8080 O.3   701  AMP701     -0.2174
     11  C2'       55.2000  -25.9810   95.0100 C.3   701  AMP701      0.2570
     12  O2'       55.5460  -25.0240   94.0220 O.3   701  AMP701     -0.2130
     13  C1'       55.5720  -25.4620   96.4090 C.3   701  AMP701      0.3186
     14  N9        56.8760  -25.9810   96.8600 N.pl3 701  AMP701     -0.1439
     15  C8        57.4540  -27.1970   96.5880 C.3   701  AMP701      0.3377
     16  N7        58.6200  -27.3770   97.1580 N.2   701  AMP701     -0.2095
     17  C5        58.8430  -26.1880   97.8630 C.2   701  AMP701      0.2526
     18  C6        59.9160  -25.7490   98.6970 C.2   701  AMP701      0.4393
     19  N6        61.0220  -26.4790   98.9590 N.pl3 701  AMP701      0.2180
     20  N1        59.8100  -24.5200   99.2410 N.2   701  AMP701      0.0021
     21  C2        58.7000  -23.8220   98.9680 C.3   701  AMP701      0.5254
     22  N3        57.6280  -24.1010   98.2070 N.2   701  AMP701     -0.0055
     23  C4        57.7760  -25.3370   97.6800 C.2   701  AMP701      0.3518
@<TRIPOS>BOND
     1    12    11    1
     2     3     1    2
     3    10     9    1
     4    11     9    1
     5    11    13    1
     6     9     7    1
     7     4     1    1
     8     1     5    1
     9     1     2    1
    10     5     6    1
    11    13    14    1
    12    13     8    1
    13     7     6    1
    14     7     8    1
    15    15    14    1
    16    15    16    1
    17    14    23    1
    18    16    17    2
    19    23    17    1
    20    23    22    2
    21    17    18    1
    22    22    21    1
    23    18    19    1
    24    18    20    2
    25    21    20    1
