@<TRIPOS>MOLECULE
1obv_FMN_A_1.pdb
 31 33 0 0 0
SMALL
GASTEIGER

@<TRIPOS>ATOM
      1  N1         2.0800   10.3480    9.0750 N.2   1170  FMN1170    -0.2887
      2  C2         1.2670   11.3970    9.4230 C.1   1170  FMN1170     0.3669
      3  O2         1.5620   12.5730    9.2270 O.2   1170  FMN1170    -0.1744
      4  N3         0.0550   11.0410   10.0330 N.2   1170  FMN1170    -0.2300
      5  C4        -0.4140    9.7200   10.3270 C.1   1170  FMN1170     0.2513
      6  O4        -1.5090    9.5590   10.8690 O.2   1170  FMN1170    -0.2057
      7  C4A        0.4690    8.6870    9.9420 C.2   1170  FMN1170     0.2703
      8  N5         0.2580    7.3250   10.0960 N.2   1170  FMN1170    -0.3882
      9  C5A        1.0230    6.2160    9.7430 C.2   1170  FMN1170     0.1277
     10  C6         0.5590    4.8370    9.9960 C.3   1170  FMN1170     0.0820
     11  C7         1.4060    3.7150    9.5720 C.2   1170  FMN1170    -0.0408
     12  C7M        0.8770    2.2920    9.8300 C.3   1170  FMN1170     0.0265
     13  C8         2.6950    4.0080    8.9160 C.2   1170  FMN1170    -0.0280
     14  C8M        3.7020    2.9300    8.3770 C.3   1170  FMN1170     0.0304
     15  C9         3.0790    5.3950    8.7330 C.2   1170  FMN1170     0.0123
     16  C9A        2.2310    6.5030    9.1310 C.2   1170  FMN1170     0.0793
     17  N10        2.5200    7.8880    8.9690 N.pl3 1170  FMN1170    -0.2545
     18  C10        1.7050    9.0350    9.3180 C.2   1170  FMN1170     0.2449
     19  C1'        3.8630    8.1920    8.3160 C.3   1170  FMN1170     0.1336
     20  C2'        5.0280    8.4120    9.3060 C.3   1170  FMN1170     0.2048
     21  O2'        4.7940    9.5670   10.1170 O.3   1170  FMN1170    -0.2185
     22  C3'        6.3350    8.6430    8.5230 C.3   1170  FMN1170     0.2165
     23  O3'        6.6830    7.5210    7.7190 O.3   1170  FMN1170    -0.2175
     24  C4'        7.5010    9.1320    9.4580 C.3   1170  FMN1170     0.2147
     25  O4'        8.6240    9.5490    8.6910 O.3   1170  FMN1170    -0.2176
     26  C5'        8.0610    8.0800   10.3950 C.3   1170  FMN1170     0.1892
     27  O5'        9.0420    8.6810   11.2270 O.3   1170  FMN1170    -0.2674
     28  P          9.8970    7.9260   12.3220 P.3   1170  FMN1170     0.5327
     29  O1P        8.9200    7.2330   13.1900 O.3   1170  FMN1170    -0.1145
     30  O2P       10.7440    6.9950   11.5730 O.2   1170  FMN1170    -0.2224
     31  O3P       10.6920    9.0170   12.9270 O.3   1170  FMN1170    -0.1145
@<TRIPOS>BOND
     1    23    22    1
     2    19    17    1
     3    19    20    1
     4    14    13    1
     5    22    20    1
     6    22    24    1
     7    25    24    1
     8    15    13    1
     9    15    16    2
    10    13    11    2
    11    17    16    1
    12    17    18    1
    13     1    18    2
    14     1     2    2
    15    16     9    1
    16     3     2    2
    17    20    21    1
    18    18     7    1
    19     2     4    2
    20    24    26    1
    21    11    12    1
    22    11    10    1
    23     9    10    1
    24     9     8    2
    25     7     8    2
    26     7     5    1
    27     4     5    2
    28     5     6    2
    29    26    27    1
    30    27    28    1
    31    30    28    2
    32    28    31    1
    33    28    29    1
