@<TRIPOS>MOLECULE
1obx_III_B_1.pdb
 33 33 0 0 0
SMALL
GASTEIGER

@<TRIPOS>ATOM
      1  N         28.8690   15.6980    8.9230 N.3     5  ASP5       -0.1225
      2  CA        27.3970   15.8440    8.8640 C.3     5  ASP5        0.1805
      3  C         26.8510   15.5960   10.2500 C.2     5  ASP5        0.2598
      4  O         27.4180   15.0050   11.1350 O.2     5  ASP5       -0.2718
      5  CB        26.8010   14.8030    7.9380 C.3     5  ASP5        0.1424
      6  CG        27.1330   15.0100    6.4830 C.2     5  ASP5        0.3668
      7  OD1       28.2670   15.4310    6.0770 O.co2   5  ASP5       -0.2456
      8  OD2       26.2710   14.6850    5.6570 O.co2   5  ASP5       -0.2456
      9  N         25.6240   16.0290   10.4350 N.am    6  SER6       -0.1938
     10  CA        24.9590   15.9060   11.7140 C.3     6  SER6        0.2055
     11  C         24.3290   14.4960   11.8580 C.2     6  SER6        0.2643
     12  O         23.7640   13.8850   10.9460 O.2     6  SER6       -0.2714
     13  CB        23.9300   17.0440   11.8530 C.3     6  SER6        0.2130
     14  OG        24.5510   18.3430   11.8830 O.3     6  SER6       -0.2179
     15  N         24.4410   13.9960   13.0750 N.am    7  VAL7       -0.1963
     16  CA        23.7400   12.7760   13.4770 C.3     7  VAL7        0.1727
     17  C         22.5680   13.2180   14.3340 C.2     7  VAL7        0.2617
     18  O         22.6790   14.1300   15.1240 O.2     7  VAL7       -0.2715
     19  CB        24.6550   11.7390   14.2070 C.3     7  VAL7        0.0290
     20  CG1       25.3530   12.2850   15.3940 C.3     7  VAL7        0.0023
     21  CG2       23.8600   10.5360   14.6390 C.3     7  VAL7        0.0023
     22  N         21.4940   12.4640   14.1980 N.am    8  PHE8       -0.1938
     23  CA        20.2480   12.6800   14.9570 C.3     8  PHE8        0.2021
     24  C         19.7760   11.4140   15.6120 C.2     8  PHE8        0.3845
     25  O         20.2690   10.3470   15.2140 O.co2   8  PHE8       -0.2437
     26  CB        19.1570   13.2200   14.0410 C.3     8  PHE8        0.0596
     27  CG        19.5160   14.5470   13.4940 C.ar    8  PHE8       -0.0199
     28  CD1       20.1660   14.6630   12.2900 C.ar    8  PHE8       -0.0042
     29  CD2       19.2960   15.6870   14.2380 C.ar    8  PHE8       -0.0042
     30  CE1       20.5620   15.9010   11.8490 C.ar    8  PHE8       -0.0003
     31  CE2       19.7240   16.8750   13.7970 C.ar    8  PHE8       -0.0003
     32  CZ        20.3580   16.9750   12.5880 C.ar    8  PHE8       -0.0000
     33  OXT       18.9510   11.5250   16.5010 O.co2   8  PHE8       -0.2437
@<TRIPOS>BOND
     1     8     6   ar
     2     7     6   ar
     3     6     5    1
     4     5     2    1
     5     2     1    1
     6     2     3    1
     7     3     9   am
     8     3     4    2
     9     9    10    1
    10    12    11    2
    11    10    13    1
    12    10    11    1
    13    30    28   ar
    14    30    32   ar
    15    13    14    1
    16    11    15   am
    17    28    27   ar
    18    32    31   ar
    19    15    16    1
    20    16    19    1
    21    16    17    1
    22    27    26    1
    23    27    29   ar
    24    31    29   ar
    25    26    23    1
    26    22    17   am
    27    22    23    1
    28    19    21    1
    29    19    20    1
    30    17    18    2
    31    23    24    1
    32    25    24   ar
    33    24    33   ar
