@<TRIPOS>MOLECULE
1oby_III_P_1.pdb
 46 47 0 0 0
SMALL
GASTEIGER

@<TRIPOS>ATOM
      1  N         19.3040  -11.9450    6.3120 N.3     2  ASN2       -0.1225
      2  CA        19.6210  -10.7060    7.0930 C.3     2  ASN2        0.1785
      3  C         18.3980   -9.8030    7.2520 C.2     2  ASN2        0.2597
      4  O         18.4830   -8.5740    7.1230 O.2     2  ASN2       -0.2718
      5  CB        20.7690   -9.8740    6.4830 C.3     2  ASN2        0.1169
      6  CG        22.0930  -10.6300    6.4490 C.2     2  ASN2        0.2627
      7  OD1       22.4430  -11.3160    7.4140 O.2     2  ASN2       -0.2716
      8  ND2       22.8360  -10.5030    5.3440 N.am    2  ASN2       -0.0877
      9  N         17.2630  -10.4030    7.5820 N.am    3  GLU3       -0.1965
     10  CA        16.0670   -9.5970    7.8470 C.3     3  GLU3        0.1733
     11  C         16.0800   -9.2010    9.3160 C.2     3  GLU3        0.2616
     12  O         16.7750   -9.8060   10.1380 O.2     3  GLU3       -0.2715
     13  CB        14.8030  -10.3810    7.4960 C.3     3  GLU3        0.0429
     14  CG        14.6500  -10.6600    6.0050 C.3     3  GLU3        0.1163
     15  CD        15.3400  -11.9480    5.5460 C.2     3  GLU3        0.3649
     16  OE1       15.9180  -12.6570    6.4040 O.co2   3  GLU3       -0.2457
     17  OE2       15.2990  -12.2600    4.3240 O.co2   3  GLU3       -0.2457
     18  N         15.3030   -8.1860    9.6670 N.am    4  PHE4       -0.1960
     19  CA        15.2470   -7.7080   11.0370 C.3     4  PHE4        0.1771
     20  C         13.7770   -7.7090   11.4980 C.2     4  PHE4        0.2620
     21  O         12.8630   -7.3620   10.7570 O.2     4  PHE4       -0.2715
     22  CB        15.8330   -6.3070   11.1140 C.3     4  PHE4        0.0574
     23  CG        17.3500   -6.2490   10.9660 C.ar    4  PHE4       -0.0200
     24  CD1       18.1580   -6.0040   12.0590 C.ar    4  PHE4       -0.0042
     25  CD2       17.9510   -6.3860    9.7240 C.ar    4  PHE4       -0.0042
     26  CE1       19.5440   -5.9220   11.9410 C.ar    4  PHE4       -0.0003
     27  CE2       19.3340   -6.2890    9.5870 C.ar    4  PHE4       -0.0003
     28  CZ        20.1260   -6.0670   10.6950 C.ar    4  PHE4       -0.0000
     29  N         13.5680   -8.1070   12.7510 N.am    5  TYR5       -0.1960
     30  CA        12.2530   -8.1160   13.3900 C.3     5  TYR5        0.1771
     31  C         12.0910   -6.9410   14.3460 C.2     5  TYR5        0.2620
     32  O         12.9200   -6.7210   15.2270 O.2     5  TYR5       -0.2715
     33  CB        12.1220   -9.4630   14.1200 C.3     5  TYR5        0.0574
     34  CG        10.8860   -9.5830   14.9790 C.ar    5  TYR5       -0.0198
     35  CD1        9.6400   -9.1850   14.5080 C.ar    5  TYR5       -0.0009
     36  CD2       10.9710  -10.1280   16.2520 C.ar    5  TYR5       -0.0009
     37  CE1        8.5210   -9.2820   15.3040 C.ar    5  TYR5        0.0417
     38  CE2        9.8500  -10.2330   17.0510 C.ar    5  TYR5        0.0417
     39  CZ         8.6350   -9.8130   16.5760 C.ar    5  TYR5        0.1957
     40  OH         7.5340   -9.9330   17.3770 O.3     5  TYR5       -0.2866
     41  N         11.0200   -6.1650   14.2110 N.am    6  ALA6       -0.1941
     42  CA        10.8210   -5.0130   15.0870 C.3     6  ALA6        0.1979
     43  C          9.4360   -4.9850   15.7520 C.2     6  ALA6        0.3842
     44  O          8.5490   -5.7160   15.3220 O.co2   6  ALA6       -0.2437
     45  CB        11.0230   -3.7190   14.2900 C.3     6  ALA6        0.0356
     46  OXT        9.3450   -4.2030   16.7030 O.co2   6  ALA6       -0.2437
@<TRIPOS>BOND
     1    17    15   ar
     2     8     6   am
     3    15    14    1
     4    15    16   ar
     5    14    13    1
     6     1     2    1
     7     6     5    1
     8     6     7    2
     9     5     2    1
    10     2     3    1
    11     4     3    2
    12     3     9   am
    13    13    10    1
    14     9    10    1
    15    10    11    1
    16    11    18   am
    17    11    12    2
    18    27    25   ar
    19    27    28   ar
    20    18    19    1
    21    25    23   ar
    22    28    26   ar
    23    21    20    2
    24    23    22    1
    25    23    24   ar
    26    19    22    1
    27    19    20    1
    28    20    29   am
    29    26    24   ar
    30    29    30    1
    31    30    33    1
    32    30    31    1
    33    33    34    1
    34    41    31   am
    35    41    42    1
    36    45    42    1
    37    31    32    2
    38    35    34   ar
    39    35    37   ar
    40    34    36   ar
    41    42    43    1
    42    37    39   ar
    43    44    43   ar
    44    43    46   ar
    45    36    38   ar
    46    39    38   ar
    47    39    40    1
