@<TRIPOS>MOLECULE
1obz_III_P_1.pdb
 33 33 0 0 0
SMALL
GASTEIGER

@<TRIPOS>ATOM
      1  N          3.0140    3.2540    2.5010 N.3     5  ASP5       -0.1225
      2  CA         1.6430    2.6310    2.4540 C.3     5  ASP5        0.1805
      3  C          0.6310    3.7000    2.8720 C.2     5  ASP5        0.2598
      4  O          0.8600    4.8950    2.6290 O.2     5  ASP5       -0.2718
      5  CB         1.5560    1.3440    3.3110 C.3     5  ASP5        0.1424
      6  CG         2.4070    0.1870    2.7530 C.2     5  ASP5        0.3668
      7  OD1        1.8260   -0.8850    2.4190 O.co2   5  ASP5       -0.2456
      8  OD2        3.6630    0.2460    2.6100 O.co2   5  ASP5       -0.2456
      9  N         -0.5100    3.2710    3.4070 N.am    6  SER6       -0.1938
     10  CA        -1.3940    4.1410    4.1980 C.3     6  SER6        0.2055
     11  C         -0.8000    4.2420    5.6170 C.2     6  SER6        0.2643
     12  O          0.3210    3.7500    5.8550 O.2     6  SER6       -0.2714
     13  CB        -2.8360    3.5860    4.2390 C.3     6  SER6        0.2130
     14  OG        -2.9010    2.1520    4.1610 O.3     6  SER6       -0.2179
     15  N         -1.5390    4.8770    6.5340 N.am    7  VAL7       -0.1963
     16  CA        -1.1680    4.9430    7.9580 C.3     7  VAL7        0.1727
     17  C         -1.5140    3.6450    8.6710 C.2     7  VAL7        0.2617
     18  O         -2.5870    3.0900    8.4500 O.2     7  VAL7       -0.2715
     19  CB        -1.8950    6.1020    8.6930 C.3     7  VAL7        0.0290
     20  CG1       -1.6120    6.0650   10.2180 C.3     7  VAL7        0.0023
     21  CG2       -1.5070    7.4620    8.1140 C.3     7  VAL7        0.0023
     22  N         -0.5740    3.1970    9.5180 N.am    8  PHE8       -0.1938
     23  CA        -0.6870    2.0370   10.4050 C.3     8  PHE8        0.2021
     24  C         -0.4990    2.4470   11.8460 C.2     8  PHE8        0.3845
     25  O         -0.8270    1.6270   12.7020 O.co2   8  PHE8       -0.2437
     26  CB         0.3550    0.9740   10.0530 C.3     8  PHE8        0.0596
     27  CG        -0.0230    0.2030    8.8500 C.ar    8  PHE8       -0.0199
     28  CD1       -0.9740   -0.8190    8.9450 C.ar    8  PHE8       -0.0042
     29  CD2        0.4680    0.5650    7.6270 C.ar    8  PHE8       -0.0042
     30  CE1       -1.3880   -1.4670    7.8940 C.ar    8  PHE8       -0.0003
     31  CE2        0.0340   -0.0690    6.4890 C.ar    8  PHE8       -0.0003
     32  CZ        -0.9010   -1.1050    6.6120 C.ar    8  PHE8       -0.0000
     33  OXT       -0.0320    3.5580   12.0750 O.co2   8  PHE8       -0.2437
@<TRIPOS>BOND
     1     7     6   ar
     2     2     1    1
     3     2     3    1
     4     2     5    1
     5     8     6   ar
     6     4     3    2
     7     6     5    1
     8     3     9   am
     9     9    10    1
    10    14    13    1
    11    10    13    1
    12    10    11    1
    13    11    12    2
    14    11    15   am
    15    31    32   ar
    16    31    29   ar
    17    15    16    1
    18    32    30   ar
    19    29    27   ar
    20    30    28   ar
    21    16    17    1
    22    16    19    1
    23    21    19    1
    24    18    17    2
    25    17    22   am
    26    19    20    1
    27    27    28   ar
    28    27    26    1
    29    22    23    1
    30    26    23    1
    31    23    24    1
    32    24    33   ar
    33    24    25   ar
