@<TRIPOS>MOLECULE
1oc1_ASV_A_1.pdb
 23 22 0 0 0
SMALL
GASTEIGER

@<TRIPOS>ATOM
      1  C1        44.2540   18.3270   15.1360 C.2   1332  ASV1332     0.3819
      2  C2        43.8120   17.4560   16.3650 C.3   1332  ASV1332     0.1943
      3  C3        43.9990   18.3530   17.5990 C.3   1332  ASV1332     0.0311
      4  C4        44.6250   17.5800   18.7740 C.3   1332  ASV1332     0.0117
      5  C7        44.5170   18.3460   20.1140 C.3   1332  ASV1332     0.0869
      6  C10       44.1420   17.4560   21.3610 C.2   1332  ASV1332     0.2418
      7  N11       43.2530   18.0970   22.1870 N.am  1332  ASV1332    -0.1968
      8  C12       42.7720   17.8350   23.5750 C.3   1332  ASV1332     0.1843
      9  C13       41.3560   17.1820   23.5890 C.2   1332  ASV1332     0.2626
     10  N14       44.5420   16.1500   16.4710 N.3   1332  ASV1332    -0.1208
     11  O15       44.6520   16.3170   21.5190 O.2   1332  ASV1332    -0.2733
     12  C16       42.6940   19.2240   24.1890 C.3   1332  ASV1332     0.0997
     13  S17       41.1550   20.1430   23.7500 S.3   1332  ASV1332    -0.0797
     14  O18       41.0810   16.5150   22.5950 O.2   1332  ASV1332    -0.2714
     15  O19       45.2150   17.8750   14.4480 O.co2 1332  ASV1332    -0.2441
     16  O20       43.6190   19.4180   14.9170 O.co2 1332  ASV1332    -0.2441
     17  N29       40.4750   17.4090   24.6290 N.am  1332  ASV1332    -0.1941
     18  C30       39.0090   16.9780   24.6450 C.3   1332  ASV1332     0.1978
     19  C31       38.7800   15.8530   25.7100 C.2   1332  ASV1332     0.3842
     20  C32       37.9050   18.1170   24.7910 C.3   1332  ASV1332     0.0333
     21  O42       39.8470   15.3850   26.2180 O.co2 1332  ASV1332    -0.2437
     22  O43       37.5740   15.4990   25.9160 O.co2 1332  ASV1332    -0.2437
     23  C33       37.5890   18.8650   23.4890 C.3   1332  ASV1332     0.0024
@<TRIPOS>BOND
     1    15     1   ar
     2    16     1   ar
     3     1     2    1
     4     2    10    1
     5     2     3    1
     6     3     4    1
     7     4     5    1
     8     5     6    1
     9     6    11    2
    10     6     7   am
    11     7     8    1
    12    14     9    2
    13    23    20    1
    14     8     9    1
    15     8    12    1
    16     9    17   am
    17    13    12    1
    18    17    18    1
    19    18    20    1
    20    18    19    1
    21    19    22   ar
    22    19    21   ar
