@<TRIPOS>MOLECULE
1oc2_NAD_A_1.pdb
 44 48 0 0 0
SMALL
GASTEIGER

@<TRIPOS>ATOM
      1  PA        46.0790   17.2560   75.6290 P.3   1350  NAD1350     0.2189
      2  O1A       46.8600   18.2910   76.3740 O.3   1350  NAD1350    -0.4371
      3  O2A       46.2190   17.1290   74.1430 O.2   1350  NAD1350    -0.5170
      4  O5B       46.3540   15.8820   76.4220 O.3   1350  NAD1350    -0.3112
      5  C5B       45.8800   14.6030   75.9560 C.3   1350  NAD1350     0.1813
      6  C4B       46.5070   13.5970   76.8600 C.3   1350  NAD1350     0.1821
      7  O4B       45.8850   12.3370   76.4970 O.3   1350  NAD1350    -0.3135
      8  C3B       48.0120   13.4510   76.6080 C.3   1350  NAD1350     0.2184
      9  O3B       48.7560   13.4480   77.7990 O.3   1350  NAD1350    -0.2174
     10  C2B       48.1240   12.1690   75.8020 C.3   1350  NAD1350     0.2570
     11  O2B       49.3670   11.4930   75.9640 O.3   1350  NAD1350    -0.2130
     12  C1B       46.9380   11.3870   76.3220 C.3   1350  NAD1350     0.3186
     13  N9A       46.4940   10.3560   75.4200 N.pl3 1350  NAD1350    -0.1439
     14  C8A       46.1460   10.4790   74.1410 C.3   1350  NAD1350     0.3377
     15  N7A       45.7330    9.3450   73.5880 N.2   1350  NAD1350    -0.2095
     16  C5A       45.7670    8.4490   74.5960 C.2   1350  NAD1350     0.2526
     17  C6A       45.4340    7.0190   74.7590 C.2   1350  NAD1350     0.4393
     18  N6A       44.9940    6.3490   73.6600 N.pl3 1350  NAD1350     0.2180
     19  N1A       45.6360    6.4670   75.9650 N.2   1350  NAD1350     0.0021
     20  C2A       46.1080    7.1070   77.0260 C.3   1350  NAD1350     0.5254
     21  N3A       46.4080    8.4240   77.0120 N.2   1350  NAD1350    -0.0055
     22  C4A       46.2790    9.0500   75.7660 C.2   1350  NAD1350     0.3518
     23  O3        44.5190   17.4810   75.9100 O.3   1350  NAD1350    -0.2703
     24  PN        43.7580   18.4150   76.9570 P.3   1350  NAD1350     0.2189
     25  O1N       44.4100   18.2250   78.2680 O.3   1350  NAD1350    -0.4371
     26  O2N       43.5430   19.7890   76.3520 O.2   1350  NAD1350    -0.5170
     27  O5D       42.3230   17.7670   76.9250 O.3   1350  NAD1350    -0.3112
     28  C5D       42.0540   16.6840   77.8640 C.3   1350  NAD1350     0.1813
     29  C4D       40.5860   16.3510   77.7910 C.3   1350  NAD1350     0.1799
     30  O4D       39.7270   17.4910   77.9990 O.3   1350  NAD1350    -0.3324
     31  C3D       40.1810   15.8000   76.4560 C.3   1350  NAD1350     0.2158
     32  O3D       39.2170   14.7650   76.6730 O.3   1350  NAD1350    -0.2175
     33  C2D       39.5640   16.9670   75.6730 C.3   1350  NAD1350     0.2312
     34  O2D       38.6570   16.4670   74.7120 O.3   1350  NAD1350    -0.2158
     35  C1D       38.8780   17.6500   76.8920 C.3   1350  NAD1350     0.2299
     36  N1N       38.6400   19.0690   76.6740 N.pl3 1350  NAD1350    -0.2608
     37  C2N       39.6870   19.9770   76.4540 C.2   1350  NAD1350     0.0678
     38  C3N       39.3630   21.3070   76.5110 C.2   1350  NAD1350     0.0537
     39  C7N       40.4900   22.2220   76.2540 C.2   1350  NAD1350     0.2818
     40  O7N       40.0890   23.3670   76.1310 O.2   1350  NAD1350    -0.2670
     41  N7N       41.7610   21.7840   76.0320 N.am  1350  NAD1350    -0.0839
     42  C4N       37.9700   21.8790   76.8470 C.3   1350  NAD1350     0.0597
     43  C5N       37.2330   20.8230   77.5750 C.2   1350  NAD1350    -0.0051
     44  C6N       37.5800   19.5370   77.5310 C.2   1350  NAD1350     0.0630
@<TRIPOS>BOND
     1    15    14    1
     2    15    16    2
     3    18    17    1
     4    14    13    1
     5     3     1    2
     6    16    17    1
     7    16    22    1
     8    34    33    1
     9    17    19    2
    10    13    22    1
    11    13    12    1
    12     1    23    1
    13     1     2    1
    14     1     4    1
    15    33    31    1
    16    33    35    1
    17    22    21    2
    18    10    11    1
    19    10    12    1
    20    10     8    1
    21    23    24    1
    22     5     4    1
    23     5     6    1
    24    19    20    1
    25    41    39   am
    26    40    39    2
    27    39    38    1
    28    12     7    1
    29    26    24    2
    30    37    38    2
    31    37    36    1
    32    31    32    1
    33    31    29    1
    34     7     6    1
    35    38    42    1
    36     8     6    1
    37     8     9    1
    38    36    35    1
    39    36    44    1
    40    42    43    1
    41    35    30    1
    42    27    24    1
    43    27    28    1
    44    24    25    1
    45    21    20    1
    46    44    43    2
    47    29    28    1
    48    29    30    1
