@<TRIPOS>MOLECULE
1oc2_TDX_A_1.pdb
 34 36 0 0 0
SMALL
GASTEIGER

@<TRIPOS>ATOM
      1  O4        47.5630   29.5840   65.7320 O.2   1349  TDX1349    -0.2088
      2  C4        46.3210   29.6070   65.8540 C.1   1349  TDX1349     0.2134
      3  N3        45.6510   30.6840   65.5120 N.2   1349  TDX1349    -0.2455
      4  C2        44.3330   30.7870   65.6020 C.1   1349  TDX1349     0.2844
      5  O2        43.7470   31.8540   65.2130 O.2   1349  TDX1349    -0.1918
      6  C5        45.5780   28.5090   66.4580 C.2   1349  TDX1349     0.0891
      7  C5M       46.3000   27.2460   66.9210 C.3   1349  TDX1349     0.0462
      8  C6        44.2330   28.6640   66.5730 C.2   1349  TDX1349     0.0877
      9  N1        43.6260   29.7760   66.1080 N.am  1349  TDX1349    -0.1794
     10  C1B       42.1750   29.9080   66.3360 C.3   1349  TDX1349     0.2090
     11  C2B       41.2510   28.7600   65.9830 C.3   1349  TDX1349     0.0874
     12  C3B       40.1820   28.7900   67.0490 C.3   1349  TDX1349     0.1857
     13  O3B       39.1110   29.6460   66.6410 O.3   1349  TDX1349    -0.2203
     14  O4B       42.0520   30.0800   67.7600 O.3   1349  TDX1349    -0.3339
     15  C4B       40.8790   29.4200   68.2360 C.3   1349  TDX1349     0.1773
     16  C5B       41.2600   28.3530   69.2420 C.3   1349  TDX1349     0.1812
     17  O5B       41.9390   27.3030   68.5380 O.3   1349  TDX1349    -0.3112
     18  PA        42.5030   25.9840   69.2640 P.3   1349  TDX1349     0.2189
     19  O1A       43.5060   26.3340   70.2560 O.3   1349  TDX1349    -0.4371
     20  O2A       42.8280   24.9860   68.1880 O.2   1349  TDX1349    -0.5170
     21  O3A       41.1980   25.5240   70.0890 O.3   1349  TDX1349    -0.2703
     22  PB        39.7530   25.0490   69.6750 P.3   1349  TDX1349     0.2208
     23  O1B       39.6740   24.5210   68.3160 O.2   1349  TDX1349    -0.5170
     24  O2B       38.7610   26.1320   70.1220 O.3   1349  TDX1349    -0.4371
     25  O1'       39.6400   23.7640   70.6150 O.3   1349  TDX1349    -0.2857
     26  C1'       40.0540   23.8460   72.0190 C.3   1349  TDX1349     0.2742
     27  O5'       38.9170   24.0520   72.8380 O.3   1349  TDX1349    -0.3255
     28  C5'       37.9790   22.9880   72.8100 C.3   1349  TDX1349     0.1803
     29  C2'       40.7690   22.5520   72.4000 C.3   1349  TDX1349     0.2409
     30  O2'       41.8640   22.3830   71.5470 O.3   1349  TDX1349    -0.2149
     31  C3'       39.8010   21.3790   72.2880 C.3   1349  TDX1349     0.2198
     32  O3'       40.4500   20.2150   72.8070 O.3   1349  TDX1349    -0.2174
     33  C4'       38.6670   21.7000   73.1970 C.3   1349  TDX1349     0.2143
     34  O4'       37.6620   20.7320   73.0800 O.3   1349  TDX1349    -0.2176
@<TRIPOS>BOND
     1     5     4    2
     2     3     4    2
     3     3     2    2
     4     4     9   am
     5     1     2    2
     6     2     6    1
     7    11    10    1
     8    11    12    1
     9     9    10    1
    10     9     8    1
    11    10    14    1
    12     6     8    2
    13     6     7    1
    14    13    12    1
    15    12    15    1
    16    14    15    1
    17    20    18    2
    18    15    16    1
    19    23    22    2
    20    17    16    1
    21    17    18    1
    22    18    21    1
    23    18    19    1
    24    22    21    1
    25    22    24    1
    26    22    25    1
    27    25    26    1
    28    30    29    1
    29    26    29    1
    30    26    27    1
    31    31    29    1
    32    31    32    1
    33    31    33    1
    34    28    27    1
    35    28    33    1
    36    34    33    1
