@<TRIPOS>MOLECULE
1oc4_NAD_A_1.pdb
 44 48 0 0 0
SMALL
GASTEIGER

@<TRIPOS>ATOM
      1  PA         8.4520    3.9590   -0.0990 P.3   1330  NAD1330     0.2189
      2  O1A        8.7780    4.1240   -1.5390 O.2   1330  NAD1330    -0.5170
      3  O2A        7.0420    3.3490    0.0580 O.3   1330  NAD1330    -0.4371
      4  O5B        8.6080    5.3950    0.6330 O.3   1330  NAD1330    -0.3112
      5  C5B        9.6550    6.2870    0.3160 C.3   1330  NAD1330     0.1813
      6  C4B        9.1760    7.7050    0.0180 C.3   1330  NAD1330     0.1821
      7  O4B       10.2020    8.6880   -0.0800 O.3   1330  NAD1330    -0.3135
      8  C3B        8.4690    7.7350   -1.3220 C.3   1330  NAD1330     0.2184
      9  O3B        7.0900    7.7010   -1.0560 O.3   1330  NAD1330    -0.2174
     10  C2B        8.9030    9.0390   -1.9650 C.3   1330  NAD1330     0.2570
     11  O2B        7.7610    9.7390   -2.3720 O.3   1330  NAD1330    -0.2130
     12  C1B        9.6230    9.7530   -0.8270 C.3   1330  NAD1330     0.3186
     13  N9A       10.6160   10.8040   -1.1900 N.pl3 1330  NAD1330    -0.1439
     14  C8A       11.4380   10.8980   -2.2890 C.3   1330  NAD1330     0.3377
     15  N7A       12.1850   12.0300   -2.1610 N.2   1330  NAD1330    -0.2095
     16  C5A       11.8630   12.6600   -1.0020 C.2   1330  NAD1330     0.2526
     17  C6A       12.3180   13.8310   -0.3870 C.2   1330  NAD1330     0.4393
     18  N6A       13.5610   14.2530   -0.6360 N.pl3 1330  NAD1330     0.2180
     19  N1A       11.7630   14.2010    0.8230 N.2   1330  NAD1330     0.0021
     20  C2A       10.7910   13.4240    1.4200 C.3   1330  NAD1330     0.5254
     21  N3A       10.3540   12.2710    0.8070 N.2   1330  NAD1330    -0.0055
     22  C4A       10.8760   11.8940   -0.3870 C.2   1330  NAD1330     0.3518
     23  O3         9.5880    2.9970    0.5050 O.3   1330  NAD1330    -0.2703
     24  PN         9.7960    2.5940    2.0500 P.3   1330  NAD1330     0.2189
     25  O1N        9.2040    1.2380    2.1580 O.2   1330  NAD1330    -0.5170
     26  O2N        9.3090    3.6960    2.9240 O.3   1330  NAD1330    -0.4371
     27  O5D       11.3890    2.5070    2.2100 O.3   1330  NAD1330    -0.3112
     28  C5D       12.0940    3.6920    2.5000 C.3   1330  NAD1330     0.1813
     29  C4D       13.5930    3.4640    2.4340 C.3   1330  NAD1330     0.1799
     30  O4D       14.0150    2.6960    3.5460 O.3   1330  NAD1330    -0.3327
     31  C3D       13.9200    2.6660    1.1850 C.3   1330  NAD1330     0.2158
     32  O3D       14.9640    3.2910    0.4840 O.3   1330  NAD1330    -0.2175
     33  C2D       14.3400    1.3110    1.7080 C.3   1330  NAD1330     0.2309
     34  O2D       15.3320    0.7620    0.8770 O.3   1330  NAD1330    -0.2158
     35  C1D       14.8370    1.6390    3.1100 C.3   1330  NAD1330     0.2263
     36  N1N       14.7280    0.5100    4.0360 N.pl3 1330  NAD1330    -0.2787
     37  C2N       15.7310    0.3750    4.9420 C.3   1330  NAD1330     0.1244
     38  C3N       15.7160   -0.6490    5.8820 C.2   1330  NAD1330     0.0544
     39  C7N       16.7530   -0.6880    6.9620 C.2   1330  NAD1330     0.2818
     40  O7N       16.8100   -1.8280    7.7790 O.2   1330  NAD1330    -0.2670
     41  N7N       17.5920    0.3340    7.1380 N.am  1330  NAD1330    -0.0839
     42  C4N       14.6630   -1.5540    5.8800 C.2   1330  NAD1330     0.0033
     43  C5N       13.6420   -1.4040    4.9360 C.2   1330  NAD1330     0.0157
     44  C6N       13.6780   -0.3650    4.0030 C.2   1330  NAD1330     0.0633
@<TRIPOS>BOND
     1    11    10    1
     2    14    15    1
     3    14    13    1
     4    15    16    2
     5    10     8    1
     6    10    12    1
     7     2     1    2
     8     8     9    1
     9     8     6    1
    10    13    12    1
    11    13    22    1
    12    16    17    1
    13    16    22    1
    14    12     7    1
    15    18    17    1
    16    17    19    2
    17    22    21    2
    18     1     3    1
    19     1    23    1
    20     1     4    1
    21     7     6    1
    22     6     5    1
    23     5     4    1
    24    32    31    1
    25    23    24    1
    26    21    20    1
    27    19    20    1
    28    34    33    1
    29    31    33    1
    30    31    29    1
    31    33    35    1
    32    24    25    2
    33    24    27    1
    34    24    26    1
    35    27    28    1
    36    29    28    1
    37    29    30    1
    38    35    30    1
    39    35    36    1
    40    44    36    1
    41    44    43    2
    42    36    37    1
    43    43    42    1
    44    37    38    1
    45    42    38    2
    46    38    39    1
    47    39    41   am
    48    39    40    2
