@<TRIPOS>MOLECULE
1oc5_SGC_A_1.pdb
 11 11 0 0 0
SMALL
GASTEIGER

@<TRIPOS>ATOM
      1  C1        25.9970    4.3990   16.4190 C.3   508  SGC508      0.1776
      2  C2        26.6480    5.4860   15.6160 C.3   508  SGC508      0.2124
      3  O2        27.7440    4.9400   14.8770 O.3   508  SGC508     -0.2177
      4  C3        27.1390    6.6280   16.4880 C.3   508  SGC508      0.1977
      5  O3        27.6380    7.6430   15.6020 O.3   508  SGC508     -0.2193
      6  C4        26.0620    7.1270   17.4390 C.3   508  SGC508      0.1206
      7  C5        25.3550    5.9420   18.0940 C.3   508  SGC508      0.1614
      8  O5        24.9130    5.0160   17.1190 O.3   508  SGC508     -0.3498
      9  C6        24.1320    6.3230   18.9320 C.3   508  SGC508      0.2124
     10  O6        23.4640    5.1960   19.5110 O.3   508  SGC508     -0.2177
     11  S4        26.8210    8.1680   18.6760 S.3   508  SGC508     -0.0777
@<TRIPOS>BOND
     1     3     2    1
     2     5     4    1
     3     2     1    1
     4     2     4    1
     5     1     8    1
     6     4     6    1
     7     8     7    1
     8     6     7    1
     9     6    11    1
    10     7     9    1
    11     9    10    1
