@<TRIPOS>MOLECULE
1oc5_NAG_A_1.pdb
 14 14 0 0 0
SMALL
GASTEIGER

@<TRIPOS>ATOM
      1  C1        20.6530   36.1230   32.2040 C.3   500  NAG500      0.1665
      2  C2        21.3800   36.4100   33.4990 C.3   500  NAG500      0.1576
      3  C3        20.5130   37.2660   34.3790 C.3   500  NAG500      0.2069
      4  C4        19.9900   38.4770   33.6230 C.3   500  NAG500      0.2134
      5  C5        19.3900   38.0430   32.2910 C.3   500  NAG500      0.1809
      6  C6        18.8490   39.1640   31.4580 C.3   500  NAG500      0.2141
      7  C7        22.8380   34.8710   34.8030 C.2   500  NAG500      0.2420
      8  C8        22.8990   33.5580   35.5190 C.3   500  NAG500      0.0964
      9  N2        21.6860   35.1530   34.1890 N.am  500  NAG500     -0.2019
     10  O3        21.2840   37.7280   35.4820 O.3   500  NAG500     -0.2184
     11  O4        18.9980   39.1320   34.4140 O.3   500  NAG500     -0.2176
     12  O5        20.2870   37.2990   31.5090 O.3   500  NAG500     -0.3489
     13  O6        18.0820   38.6870   30.3750 O.3   500  NAG500     -0.2176
     14  O7        23.8010   35.6300   34.8050 O.2   500  NAG500     -0.2733
@<TRIPOS>BOND
     1    13     6    1
     2     6     5    1
     3    12     1    1
     4    12     5    1
     5     1     2    1
     6     5     4    1
     7     2     9    1
     8     2     3    1
     9     4     3    1
    10     4    11    1
    11     9     7   am
    12     3    10    1
    13     7    14    2
    14     7     8    1
