@<TRIPOS>MOLECULE
1oc5_BGC_A_1.pdb
 11 11 0 0 0
SMALL
GASTEIGER

@<TRIPOS>ATOM
      1  C2        26.1100   10.3780   20.0250 C.3   509  BGC509      0.2141
      2  C3        25.4880   11.7550   20.0020 C.3   509  BGC509      0.2173
      3  C4        25.8590   12.5490   18.7490 C.3   509  BGC509      0.2142
      4  C5        25.5500   11.7020   17.5130 C.3   509  BGC509      0.1810
      5  C6        25.9750   12.4240   16.2470 C.3   509  BGC509      0.2141
      6  C1        25.7910    9.6520   18.7320 C.3   509  BGC509      0.1777
      7  O2        25.5850    9.6170   21.1030 O.3   509  BGC509     -0.2176
      8  O3        25.8020   12.5270   21.1790 O.3   509  BGC509     -0.2175
      9  O4        25.0380   13.7060   18.7670 O.3   509  BGC509     -0.2176
     10  O5        26.1910   10.4560   17.6380 O.3   509  BGC509     -0.3481
     11  O6        25.5290   11.6880   15.1330 O.3   509  BGC509     -0.2176
@<TRIPOS>BOND
     1    11     5    1
     2     5     4    1
     3     4    10    1
     4     4     3    1
     5    10     6    1
     6     6     1    1
     7     3     9    1
     8     3     2    1
     9     2     1    1
    10     2     8    1
    11     1     7    1
