@<TRIPOS>MOLECULE
1oc7_SGC_A_1.pdb
 11 11 0 0 0
SMALL
GASTEIGER

@<TRIPOS>ATOM
      1  C1        25.7700   15.4440   18.5720 C.3   602  SGC602      0.1776
      2  C2        24.8620   16.5850   18.2220 C.3   602  SGC602      0.2124
      3  O2        24.2720   16.3320   16.9770 O.3   602  SGC602     -0.2177
      4  C3        25.7250   17.8580   18.1300 C.3   602  SGC602      0.1977
      5  O3        24.8680   18.9620   17.9380 O.3   602  SGC602     -0.2193
      6  C4        26.6250   18.1120   19.3650 C.3   602  SGC602      0.1206
      7  C5        27.3760   16.8440   19.6720 C.3   602  SGC602      0.1614
      8  O5        26.4520   15.7470   19.7960 O.3   602  SGC602     -0.3498
      9  C6        28.2340   16.9080   20.9500 C.3   602  SGC602      0.2124
     10  O6        28.9700   15.6460   21.0430 O.3   602  SGC602     -0.2177
     11  S4        27.8950   19.3970   19.1210 S.3   602  SGC602     -0.0777
@<TRIPOS>BOND
     1     3     2    1
     2     5     4    1
     3     4     2    1
     4     4     6    1
     5     2     1    1
     6     1     8    1
     7    11     6    1
     8     6     7    1
     9     7     8    1
    10     7     9    1
    11     9    10    1
