@<TRIPOS>MOLECULE
1oc7_MA3_A_1.pdb
 13 13 0 0 0
SMALL
GASTEIGER

@<TRIPOS>ATOM
      1  C1        24.0810   -0.9390   16.8620 C.3   605  MA3605      0.2694
      2  C2        23.5780    0.2030   17.7370 C.3   605  MA3605      0.2389
      3  C3        23.8120    1.5600   17.0690 C.3   605  MA3605      0.2003
      4  C4        25.2080    1.6670   16.4430 C.3   605  MA3605      0.1208
      5  C5        25.5060    0.4370   15.5270 C.3   605  MA3605      0.1639
      6  C6        26.9420    0.3650   15.0120 C.3   605  MA3605      0.2125
      7  C7        23.3400   -2.1270   14.8490 C.3   605  MA3605      0.1769
      8  O1        23.2200   -0.9640   15.7110 O.3   605  MA3605     -0.3259
      9  O2        22.2100    0.0360   18.0030 O.3   605  MA3605     -0.2149
     10  O3        23.6130    2.6160   18.0310 O.3   605  MA3605     -0.2192
     11  S4        25.3860    3.1400   15.4040 S.3   605  MA3605     -0.0776
     12  O5        25.3100   -0.8450   16.1630 O.3   605  MA3605     -0.3274
     13  O6        27.8590    0.5260   16.1070 O.3   605  MA3605     -0.2177
@<TRIPOS>BOND
     1     7     8    1
     2     6     5    1
     3     6    13    1
     4    11     4    1
     5     5    12    1
     6     5     4    1
     7     8     1    1
     8    12     1    1
     9     4     3    1
    10     1     2    1
    11     3     2    1
    12     3    10    1
    13     2     9    1
