@<TRIPOS>MOLECULE
1oc7_BGC_A_1.pdb
 11 11 0 0 0
SMALL
GASTEIGER

@<TRIPOS>ATOM
      1  C2        28.1190   21.8940   20.1060 C.3   601  BGC601      0.2141
      2  C3        27.4700   23.2390   20.3610 C.3   601  BGC601      0.2173
      3  C4        26.6350   23.6550   19.1580 C.3   601  BGC601      0.2142
      4  C5        25.5610   22.5610   18.8710 C.3   601  BGC601      0.1810
      5  C6        24.7050   22.7470   17.6240 C.3   601  BGC601      0.2141
      6  C1        27.0360   20.8610   19.7340 C.3   601  BGC601      0.1777
      7  O2        28.8000   21.5260   21.3160 O.3   601  BGC601     -0.2176
      8  O3        28.5500   24.1240   20.6570 O.3   601  BGC601     -0.2175
      9  O4        26.0750   24.9150   19.4220 O.3   601  BGC601     -0.2176
     10  O5        26.2170   21.2940   18.6510 O.3   601  BGC601     -0.3481
     11  O6        25.4860   22.8790   16.5110 O.3   601  BGC601     -0.2176
@<TRIPOS>BOND
     1    11     5    1
     2     5     4    1
     3    10     4    1
     4    10     6    1
     5     4     3    1
     6     3     9    1
     7     3     2    1
     8     6     1    1
     9     1     2    1
    10     1     7    1
    11     2     8    1
