@<TRIPOS>MOLECULE
1ocb_GDA_A_1.pdb
 11 11 0 0 0
SMALL
GASTEIGER

@<TRIPOS>ATOM
      1  C1        -3.3900  -10.3920    6.1050 C.3   455  GDA455      0.1776
      2  C2        -4.7380   -9.8560    6.5420 C.3   455  GDA455      0.2130
      3  C3        -4.8460   -8.3560    6.2320 C.3   455  GDA455      0.2045
      4  C4        -3.6210   -7.5970    6.7810 C.3   455  GDA455      0.1543
      5  C5        -2.3140   -8.2460    6.3340 C.3   455  GDA455      0.1682
      6  C6        -1.0630   -7.6320    7.0240 C.3   455  GDA455      0.2130
      7  N4        -3.6610   -6.1700    6.3630 N.3   455  GDA455     -0.1275
      8  O2        -5.7750  -10.6140    5.9200 O.3   455  GDA455     -0.2177
      9  O3        -6.0790   -7.8560    6.7570 O.3   455  GDA455     -0.2187
     10  O5        -2.3650   -9.6370    6.6900 O.3   455  GDA455     -0.3492
     11  O6         0.1090   -8.2940    6.5350 O.3   455  GDA455     -0.2177
@<TRIPOS>BOND
     1     8     2    1
     2     1     2    1
     3     1    10    1
     4     3     2    1
     5     3     9    1
     6     3     4    1
     7     5    10    1
     8     5     4    1
     9     5     6    1
    10     7     4    1
    11    11     6    1
