@<TRIPOS>MOLECULE
1ocb_BGC_A_1.pdb
 11 11 0 0 0
SMALL
GASTEIGER

@<TRIPOS>ATOM
      1  C2        -0.0980  -19.0590    3.7420 C.3   453  BGC453      0.2141
      2  C3        -0.0750  -17.5280    3.8560 C.3   453  BGC453      0.2173
      3  C4         0.0840  -17.0840    5.3280 C.3   453  BGC453      0.2142
      4  C5         1.2320  -17.8260    5.9870 C.3   453  BGC453      0.1810
      5  C6         1.3460  -17.5550    7.4800 C.3   453  BGC453      0.2141
      6  C1         1.0740  -19.6400    4.4950 C.3   453  BGC453      0.1777
      7  O2         0.0560  -19.3840    2.3770 O.3   453  BGC453     -0.2176
      8  O3        -1.2100  -16.9670    3.1860 O.3   453  BGC453     -0.2175
      9  O4         0.3600  -15.6770    5.4050 O.3   453  BGC453     -0.2176
     10  O5         1.0010  -19.2440    5.8380 O.3   453  BGC453     -0.3481
     11  O6         2.7650  -17.6170    7.7220 O.3   453  BGC453     -0.2176
@<TRIPOS>BOND
     1     7     1    1
     2     8     2    1
     3     1     2    1
     4     1     6    1
     5     2     3    1
     6     6    10    1
     7     3     9    1
     8     3     4    1
     9    10     4    1
    10     4     5    1
    11     5    11    1
