@<TRIPOS>MOLECULE
1ocb_FLG_B_1.pdb
 28 31 0 0 0
SMALL
GASTEIGER

@<TRIPOS>ATOM
      1  S1       -40.0910   19.7940  -34.3300 S.3   460  FLG460     -0.0280
      2  C21      -38.4990   20.4930  -34.8230 C.2   460  FLG460      0.1408
      3  N1       -37.5580   20.6460  -33.8830 N.2   460  FLG460     -0.2363
      4  C17      -36.3090   21.1330  -34.1640 C.ar  460  FLG460      0.0822
      5  C18      -35.2600   20.8700  -33.2860 C.ar  460  FLG460      0.0257
      6  C19      -33.9690   21.3470  -33.5600 C.ar  460  FLG460      0.0813
      7  C20      -32.8180   21.0790  -32.6500 C.2   460  FLG460      0.3878
      8  O4       -31.7240   21.7100  -32.8390 O.co2 460  FLG460     -0.2406
      9  O5       -32.9650   20.2370  -31.7420 O.co2 460  FLG460     -0.2406
     10  C16      -36.0740   21.8950  -35.3150 C.ar  460  FLG460      0.0191
     11  C15      -34.7890   22.3710  -35.5860 C.ar  460  FLG460      0.0017
     12  C14      -33.7420   22.0950  -34.7160 C.ar  460  FLG460      0.0064
     13  C10      -32.3990   22.6470  -35.0880 C.2   460  FLG460      0.0025
     14  C9       -31.4530   21.8820  -35.7700 C.2   460  FLG460      0.0302
     15  C4       -30.2360   22.4700  -36.1060 C.2   460  FLG460      0.1245
     16  O2       -30.0110   23.6790  -35.8060 O.2   460  FLG460     -0.4740
     17  C5       -29.2740   21.7350  -36.7900 C.3   460  FLG460      0.1328
     18  C8       -31.6900   20.5510  -36.0940 C.2   460  FLG460      0.0056
     19  C7       -30.7120   19.8240  -36.7560 C.2   460  FLG460      0.0380
     20  C6       -29.5110   20.3940  -37.1210 C.2   460  FLG460      0.1807
     21  O3       -28.6950   19.6740  -37.7780 O.2   460  FLG460     -0.2909
     22  C11      -32.0650   23.9830  -34.8100 C.2   460  FLG460      0.0218
     23  C3       -30.8140   24.4520  -35.2020 C.3   460  FLG460      0.2130
     24  C2       -30.4630   25.7810  -34.9030 C.2   460  FLG460      0.0632
     25  C12      -32.9380   24.8470  -34.1330 C.2   460  FLG460      0.0028
     26  C13      -32.5970   26.1510  -33.8570 C.2   460  FLG460      0.0416
     27  C1       -31.3550   26.6360  -34.2300 C.2   460  FLG460      0.1953
     28  O1       -31.0920   27.9100  -33.9470 O.2   460  FLG460     -0.2868
@<TRIPOS>BOND
     1    21    20    2
     2    20    17    1
     3    20    19    1
     4    17    15    1
     5    19    18    2
     6    15    16    1
     7    15    14    2
     8    18    14    1
     9    16    23    1
    10    14    13    1
    11    11    10   ar
    12    11    12   ar
    13    10     4   ar
    14    23    24    1
    15    23    22    1
    16    13    22    2
    17    13    12    1
    18    24    27    2
    19     2     1    1
    20     2     3    2
    21    22    25    1
    22    12     6   ar
    23    27    28    1
    24    27    26    1
    25     4     3    1
    26     4     5   ar
    27    25    26    2
    28     6     5   ar
    29     6     7    1
    30     8     7   ar
    31     7     9   ar
