@<TRIPOS>MOLECULE
1ocb_GTM_A_1.pdb
 13 13 0 0 0
SMALL
GASTEIGER

@<TRIPOS>ATOM
      1  C1         3.9160  -24.2410    6.5530 C.3   452  GTM452      0.2694
      2  C2         3.4540  -23.0920    7.4300 C.3   452  GTM452      0.2389
      3  C3         2.1790  -22.4420    6.8700 C.3   452  GTM452      0.2003
      4  C4         2.3470  -22.0090    5.4190 C.3   452  GTM452      0.1208
      5  C5         2.8510  -23.1840    4.6090 C.3   452  GTM452      0.1639
      6  C6         3.2240  -22.7010    3.2280 C.3   452  GTM452      0.2125
      7  C7         5.9100  -25.5380    6.0630 C.3   452  GTM452      0.1769
      8  O1         5.1800  -24.7590    6.9950 O.3   452  GTM452     -0.3259
      9  O2         3.2730  -23.6370    8.7410 O.3   452  GTM452     -0.2149
     10  O3         1.8210  -21.3130    7.6420 O.3   452  GTM452     -0.2192
     11  S4         0.7830  -21.4360    4.6610 S.3   452  GTM452     -0.0776
     12  O5         4.0050  -23.7930    5.2150 O.3   452  GTM452     -0.3274
     13  O6         3.6810  -23.8350    2.5640 O.3   452  GTM452     -0.2177
@<TRIPOS>BOND
     1    13     6    1
     2     6     5    1
     3     5    12    1
     4     5     4    1
     5    11     4    1
     6    12     1    1
     7     4     3    1
     8     7     8    1
     9     1     8    1
    10     1     2    1
    11     3     2    1
    12     3    10    1
    13     2     9    1
