@<TRIPOS>MOLECULE
1oce_MF2_A_1.pdb
 19 19 0 0 0
SMALL
GASTEIGER

@<TRIPOS>ATOM
      1  C2         1.0810   63.5480   71.6600 C.3   700  MF2700      0.1020
      2  C3        -0.4360   63.5700   72.0150 C.3   700  MF2700      0.1312
      3  O4        -0.7460   62.3950   72.8320 O.3   700  MF2700     -0.3559
      4  C7        -0.8700   59.9740   73.0600 C.3   700  MF2700      0.0335
      5  C8        -0.8080   64.8560   72.8120 C.3   700  MF2700      0.0335
      6  C9         2.8230   62.3130   70.4520 C.3   700  MF2700      0.0722
      7  C10        3.0100   62.9030   69.0160 C.3   700  MF2700      0.0173
      8  C11        3.3540   64.4390   69.0300 C.3   700  MF2700      0.0014
      9  C12        4.5520   64.7960   68.0840 C.3   700  MF2700      0.0000
     10  C13        4.0910   65.5750   66.8030 C.3   700  MF2700      0.0001
     11  C14        3.3770   64.6530   65.7490 C.3   700  MF2700      0.0018
     12  C15        4.0140   64.7760   64.3370 C.3   700  MF2700      0.0234
     13  C16        4.2940   63.3850   63.7160 C.3   700  MF2700      0.1156
     14  N1         1.3990   62.2860   70.9230 N.3   700  MF2700     -0.2686
     15  C5        -0.4520   61.1540   72.1430 C.3   700  MF2700      0.1312
     16  C6         1.0740   61.1100   71.7890 C.3   700  MF2700      0.1020
     17  N17        5.4480   63.4180   62.8120 N.am  700  MF2700     -0.1978
     18  C18        5.2840   63.2340   61.4100 C.2   700  MF2700      0.3201
     19  O19        4.2120   62.8730   60.9540 O.2   700  MF2700     -0.2633
@<TRIPOS>BOND
     1    19    18    2
     2    18    17   am
     3    17    13    1
     4    13    12    1
     5    12    11    1
     6    11    10    1
     7    10     9    1
     8     9     8    1
     9     7     8    1
    10     7     6    1
    11     6    14    1
    12    14     1    1
    13    14    16    1
    14     1     2    1
    15    16    15    1
    16     2     5    1
    17     2     3    1
    18    15     3    1
    19    15     4    1
