@<TRIPOS>MOLECULE
1ocj_BGC_A_1.pdb
 11 11 0 0 0
SMALL
GASTEIGER

@<TRIPOS>ATOM
      1  C2         1.7600   -8.5910   13.0220 C.3   501  BGC501      0.2141
      2  C3         0.6900   -7.5240   13.1480 C.3   501  BGC501      0.2173
      3  C4         0.9780   -6.5030   14.2320 C.3   501  BGC501      0.2142
      4  C5         2.3850   -5.9560   14.0290 C.3   501  BGC501      0.1810
      5  C6         2.7440   -4.9780   15.1410 C.3   501  BGC501      0.2141
      6  C1         3.1270   -7.9480   12.9410 C.3   501  BGC501      0.1777
      7  O2         1.5470   -9.3250   11.8390 O.3   501  BGC501     -0.2176
      8  O3        -0.5870   -8.1330   13.3390 O.3   501  BGC501     -0.2175
      9  O4         0.0410   -5.4540   14.1770 O.3   501  BGC501     -0.2176
     10  O5         3.3310   -7.0230   13.9970 O.3   501  BGC501     -0.3481
     11  O6         2.9560   -5.7450   16.3400 O.3   501  BGC501     -0.2176
@<TRIPOS>BOND
     1     7     1    1
     2     6     1    1
     3     6    10    1
     4     1     2    1
     5     2     8    1
     6     2     3    1
     7    10     4    1
     8     4     3    1
     9     4     5    1
    10     9     3    1
    11     5    11    1
