@<TRIPOS>MOLECULE
1ocj_SGC_A_1.pdb
 11 11 0 0 0
SMALL
GASTEIGER

@<TRIPOS>ATOM
      1  C1        18.8060   -8.4310    8.1740 C.3   504  SGC504      0.1776
      2  C2        17.9650   -7.9060    9.2630 C.3   504  SGC504      0.2124
      3  O2        18.6580   -7.6830   10.4550 O.3   504  SGC504     -0.2177
      4  C3        16.6660   -8.6140    9.3980 C.3   504  SGC504      0.1977
      5  O3        15.8250   -7.9050   10.2710 O.3   504  SGC504     -0.2193
      6  C4        16.0070   -9.0510    8.0830 C.3   504  SGC504      0.1206
      7  C5        16.9550   -9.4470    6.9700 C.3   504  SGC504      0.1614
      8  O5        18.1740   -8.7190    6.9590 O.3   504  SGC504     -0.3498
      9  C6        16.3320   -9.4380    5.5970 C.3   504  SGC504      0.2124
     10  O6        17.3140   -9.9570    4.6880 O.3   504  SGC504     -0.2177
     11  S4        14.7880  -10.3280    8.3530 S.3   504  SGC504     -0.0777
@<TRIPOS>BOND
     1    10     9    1
     2     9     7    1
     3     8     7    1
     4     8     1    1
     5     7     6    1
     6     6    11    1
     7     6     4    1
     8     1     2    1
     9     2     4    1
    10     2     3    1
    11     4     5    1
