@<TRIPOS>MOLECULE
1ocj_SSG_A_1.pdb
 11 11 0 0 0
SMALL
GASTEIGER

@<TRIPOS>ATOM
      1  C1         8.3780   -8.2980   11.0480 C.3   502  SSG502      0.1776
      2  C2         8.3520   -8.0090   12.5030 C.3   502  SSG502      0.2124
      3  O2         9.5460   -8.3800   13.1260 O.3   502  SSG502     -0.2177
      4  C3         7.1040   -8.4740   13.1610 C.3   502  SSG502      0.1977
      5  O3         7.0410   -7.9510   14.4310 O.3   502  SSG502     -0.2193
      6  C4         5.8320   -8.3950   12.3490 C.3   502  SSG502      0.1206
      7  C5         5.9880   -8.7710   10.9080 C.3   502  SSG502      0.1614
      8  O5         7.1690   -8.3070   10.3080 O.3   502  SSG502     -0.3498
      9  C6         4.7970   -8.5870    9.9960 C.3   502  SSG502      0.2124
     10  O6         4.3610   -7.2560   10.1030 O.3   502  SSG502     -0.2177
     11  S4         4.4300   -9.1470   13.1540 S.3   502  SSG502     -0.0777
@<TRIPOS>BOND
     1     9    10    1
     2     9     7    1
     3     8     7    1
     4     8     1    1
     5     7     6    1
     6     1     2    1
     7     6    11    1
     8     6     4    1
     9     2     3    1
    10     2     4    1
    11     4     5    1
