@<TRIPOS>MOLECULE
1ocj_MA3_A_1.pdb
 13 13 0 0 0
SMALL
GASTEIGER

@<TRIPOS>ATOM
      1  C1        23.7980   -8.8430    5.4550 C.3   505  MA3505      0.2694
      2  C2        22.4830   -9.1730    4.8250 C.3   505  MA3505      0.2389
      3  C3        21.2900   -8.5940    5.5560 C.3   505  MA3505      0.2003
      4  C4        21.4100   -8.6410    7.0710 C.3   505  MA3505      0.1208
      5  C5        22.8170   -8.4660    7.6530 C.3   505  MA3505      0.1639
      6  C6        23.0020   -8.7960    9.1370 C.3   505  MA3505      0.2125
      7  C7        25.0840   -6.7990    5.6000 C.3   505  MA3505      0.1769
      8  O1        23.8130   -7.3840    5.2450 O.3   505  MA3505     -0.3259
      9  O2        22.4580   -8.9740    3.4230 O.3   505  MA3505     -0.2149
     10  O3        20.0720   -9.1610    5.0740 O.3   505  MA3505     -0.2192
     11  S4        20.3030   -7.5580    7.9490 S.3   505  MA3505     -0.0776
     12  O5        23.8640   -8.9770    6.8250 O.3   505  MA3505     -0.3274
     13  O6        24.0970   -8.0930    9.7340 O.3   505  MA3505     -0.2177
@<TRIPOS>BOND
     1     9     2    1
     2     2     1    1
     3     2     3    1
     4    10     3    1
     5     8     1    1
     6     8     7    1
     7     1    12    1
     8     3     4    1
     9    12     5    1
    10     4     5    1
    11     4    11    1
    12     5     6    1
    13     6    13    1
