@<TRIPOS>MOLECULE
1ocn_IFM_A_1.pdb
 10 10 0 0 0
SMALL
GASTEIGER

@<TRIPOS>ATOM
      1  O4         8.5540   -8.4180   10.5740 O.3   452  IFM452     -0.2199
      2  C4         9.7330   -7.6360   10.3530 C.3   452  IFM452      0.1922
      3  C3        10.8080   -8.3620   11.1220 C.3   452  IFM452      0.2067
      4  O3        10.7660   -7.8270   12.4310 O.3   452  IFM452     -0.2182
      5  C2        12.1590   -8.1750   10.4970 C.3   452  IFM452      0.1605
      6  N         12.1420   -8.8210    9.1590 N.2   452  IFM452     -0.2706
      7  C1        10.9960   -8.4870    8.3170 C.2   452  IFM452      0.0717
      8  C5         9.9600   -7.5030    8.8430 C.3   452  IFM452      0.1069
      9  C6        10.3060   -6.0870    8.3660 C.3   452  IFM452      0.1906
     10  O6        11.3360   -5.5570    9.1320 O.3   452  IFM452     -0.2199
@<TRIPOS>BOND
     1     7     8    1
     2     7     6    2
     3     9     8    1
     4     9    10    1
     5     8     2    1
     6     6     5    1
     7     2     1    1
     8     2     3    1
     9     5     3    1
    10     3     4    1
