@<TRIPOS>MOLECULE
1ocn_BGC_A_1.pdb
 11 11 0 0 0
SMALL
GASTEIGER

@<TRIPOS>ATOM
      1  C2         6.2150   -8.7130   10.5050 C.3   453  BGC453      0.2141
      2  C3         4.9030   -7.9790   10.5060 C.3   453  BGC453      0.2173
      3  C4         4.8260   -6.9260   11.5800 C.3   453  BGC453      0.2142
      4  C5         6.1040   -6.0780   11.6390 C.3   453  BGC453      0.1810
      5  C6         6.2030   -5.2140   12.8810 C.3   453  BGC453      0.2141
      6  C1         7.3710   -7.7060   10.5060 C.3   453  BGC453      0.1777
      7  O2         6.3160   -9.5480    9.3540 O.3   453  BGC453     -0.2176
      8  O3         3.8600   -8.9320   10.6440 O.3   453  BGC453     -0.2175
      9  O4         3.7040   -6.1170   11.3310 O.3   453  BGC453     -0.2176
     10  O5         7.2640   -6.9180   11.6680 O.3   453  BGC453     -0.3481
     11  O6         6.3080   -6.0140   14.0310 O.3   453  BGC453     -0.2176
@<TRIPOS>BOND
     1     7     1    1
     2     1     2    1
     3     1     6    1
     4     2     8    1
     5     2     3    1
     6     6    10    1
     7     9     3    1
     8     3     4    1
     9     4    10    1
    10     4     5    1
    11     5    11    1
