@<TRIPOS>MOLECULE
1ocq_BGC_A_1.pdb
 11 11 0 0 0
SMALL
GASTEIGER

@<TRIPOS>ATOM
      1  C2        61.8730   47.8910   36.4770 C.3   501  BGC501      0.2141
      2  C3        61.2330   48.8380   37.5040 C.3   501  BGC501      0.2173
      3  C4        59.7600   48.5880   37.6170 C.3   501  BGC501      0.2142
      4  C5        59.4940   47.1080   37.9400 C.3   501  BGC501      0.1810
      5  C6        58.0500   46.7240   38.0380 C.3   501  BGC501      0.2141
      6  C1        61.4380   46.4560   36.8300 C.3   501  BGC501      0.1777
      7  O2        63.2630   48.0150   36.4470 O.3   501  BGC501     -0.2176
      8  O3        61.4440   50.2040   37.0870 O.3   501  BGC501     -0.2175
      9  O4        59.1810   49.3900   38.6550 O.3   501  BGC501     -0.2176
     10  O5        60.0490   46.3250   36.8800 O.3   501  BGC501     -0.3481
     11  O6        57.4030   46.9390   36.7690 O.3   501  BGC501     -0.2176
@<TRIPOS>BOND
     1     7     1    1
     2     1     6    1
     3     1     2    1
     4    11     5    1
     5     6    10    1
     6    10     4    1
     7     8     2    1
     8     2     3    1
     9     3     4    1
    10     3     9    1
    11     4     5    1
