@<TRIPOS>MOLECULE
1ocq_IFM_A_1.pdb
 10 10 0 0 0
SMALL
GASTEIGER

@<TRIPOS>ATOM
      1  O4        61.9270   45.6490   35.7660 O.3   500  IFM500     -0.2202
      2  C4        61.8470   44.2540   35.9900 C.3   500  IFM500      0.1874
      3  C3        61.2830   43.6180   34.7100 C.3   500  IFM500      0.1995
      4  O3        59.9770   44.0350   34.4270 O.3   500  IFM500     -0.2189
      5  C2        61.2400   42.1160   34.8740 C.3   500  IFM500      0.1241
      6  N         62.5770   41.5650   35.2360 N.3   500  IFM500     -0.2151
      7  C1        63.1310   42.1720   36.4590 C.3   500  IFM500      0.0940
      8  C5        63.2090   43.6850   36.2980 C.3   500  IFM500      0.0834
      9  C6        63.9000   44.3040   37.5100 C.3   500  IFM500      0.1861
     10  O6        63.1220   44.0620   38.6930 O.3   500  IFM500     -0.2203
@<TRIPOS>BOND
     1     4     3    1
     2     3     5    1
     3     3     2    1
     4     5     6    1
     5     6     7    1
     6     1     2    1
     7     2     8    1
     8     8     7    1
     9     8     9    1
    10     9    10    1
