@<TRIPOS>MOLECULE
1ocu_PIB_A_1.pdb
 22 22 0 0 0
SMALL
GASTEIGER

@<TRIPOS>ATOM
      1  C1        54.3690   78.4800   40.3800 C.3   1163  PIB1163     0.1873
      2  C2        54.6450   77.0090   39.9720 C.3   1163  PIB1163     0.2120
      3  C3        54.3060   76.0900   41.1530 C.3   1163  PIB1163     0.1918
      4  C4        52.7930   76.2860   41.6160 C.3   1163  PIB1163     0.2148
      5  C5        52.5850   77.7660   42.0690 C.3   1163  PIB1163     0.2173
      6  C6        52.8860   78.6920   40.8280 C.3   1163  PIB1163     0.2147
      7  O1        54.6870   79.3050   39.2550 O.3   1163  PIB1163    -0.3111
      8  O2        53.8360   76.6810   38.8550 O.3   1163  PIB1163    -0.2177
      9  O3        54.6070   74.7720   40.6810 O.3   1163  PIB1163    -0.2673
     10  O4        52.5100   75.4370   42.7300 O.3   1163  PIB1163    -0.2176
     11  O5        51.2410   77.9590   42.4770 O.3   1163  PIB1163    -0.2175
     12  O6        52.6990   80.0540   41.1970 O.3   1163  PIB1163    -0.2176
     13  P1        55.9990   80.1860   39.1310 P.3   1163  PIB1163     0.2141
     14  O11       56.2190   80.4820   37.5840 O.2   1163  PIB1163    -0.5172
     15  O12       57.2390   79.4360   39.7390 O.3   1163  PIB1163    -0.4373
     16  O13       55.7250   81.5750   39.9360 O.3   1163  PIB1163    -0.3141
     17  P3        55.1130   73.5710   41.6010 P.3   1163  PIB1163     0.5327
     18  O31       53.9790   73.1930   42.6220 O.3   1163  PIB1163    -0.1145
     19  O32       56.4070   74.0650   42.3660 O.3   1163  PIB1163    -0.1145
     20  O33       55.3630   72.3390   40.6540 O.2   1163  PIB1163    -0.2224
     21  C7        55.8450   81.6760   41.3520 C.3   1163  PIB1163     0.1492
     22  C8        56.1430   83.1430   41.6370 C.3   1163  PIB1163     0.0351
@<TRIPOS>BOND
     1    14    13    2
     2     8     2    1
     3    13     7    1
     4    13    15    1
     5    13    16    1
     6     7     1    1
     7    16    21    1
     8     2     1    1
     9     2     3    1
    10     1     6    1
    11    20    17    2
    12     9     3    1
    13     9    17    1
    14     6    12    1
    15     6     5    1
    16     3     4    1
    17    21    22    1
    18    17    19    1
    19    17    18    1
    20     4     5    1
    21     4    10    1
    22     5    11    1
