@<TRIPOS>MOLECULE
1od2_ACO_A_1.pdb
 48 50 0 0 0
SMALL
GASTEIGER

@<TRIPOS>ATOM
      1  N1A        7.2840   -5.0510  -15.9490 N.2   3203  ACO3203     0.0021
      2  C2A        6.4920   -5.4740  -16.9280 C.3   3203  ACO3203     0.5254
      3  N3A        6.8170   -6.4130  -17.8650 N.2   3203  ACO3203    -0.0055
      4  C4A        8.1020   -6.9250  -17.7160 C.2   3203  ACO3203     0.3518
      5  C5A        8.9830   -6.5420  -16.7330 C.2   3203  ACO3203     0.2526
      6  C6A        8.5300   -5.5290  -15.7810 C.2   3203  ACO3203     0.4393
      7  N6A        9.3100   -5.0850  -14.7830 N.pl3 3203  ACO3203     0.2180
      8  N7A       10.1850   -7.2520  -16.8690 N.2   3203  ACO3203    -0.2095
      9  C8A        9.9860   -8.0130  -17.9050 C.3   3203  ACO3203     0.3377
     10  N9A        8.7340   -7.8670  -18.4720 N.pl3 3203  ACO3203    -0.1439
     11  C1B        8.1810   -8.5310  -19.5950 C.3   3203  ACO3203     0.3185
     12  C2B        9.1270   -8.6400  -20.8110 C.3   3203  ACO3203     0.2543
     13  O2B        9.0790   -7.4260  -21.6210 O.3   3203  ACO3203    -0.2131
     14  C3B        8.6480   -9.9500  -21.4770 C.3   3203  ACO3203     0.1928
     15  O3B        7.6040   -9.6540  -22.3880 O.3   3203  ACO3203    -0.2673
     16  P3B        7.4750  -10.3130  -23.8530 P.3   3203  ACO3203     0.5327
     17  O7A        8.7350   -9.8390  -24.5790 O.2   3203  ACO3203    -0.2224
     18  O8A        6.2410   -9.7230  -24.4240 O.3   3203  ACO3203    -0.1145
     19  O9A        7.4280  -11.7980  -23.6320 O.3   3203  ACO3203    -0.1145
     20  C4B        8.1240  -10.7970  -20.3650 C.3   3203  ACO3203     0.1795
     21  O4B        7.8720   -9.8600  -19.2850 O.3   3203  ACO3203    -0.3136
     22  C5B        9.0930  -11.8920  -19.9330 C.3   3203  ACO3203     0.1812
     23  O5B       10.4690  -11.4130  -19.9290 O.3   3203  ACO3203    -0.3112
     24  P1A       11.7100  -12.3910  -19.5560 P.3   3203  ACO3203     0.2189
     25  O1A       12.7440  -12.2490  -20.6220 O.2   3203  ACO3203    -0.5170
     26  O2A       11.1910  -13.8270  -19.2390 O.3   3203  ACO3203    -0.4371
     27  O3A       12.2810  -11.6840  -18.2510 O.3   3203  ACO3203    -0.2703
     28  P2A       13.4860  -12.2850  -17.4750 P.3   3203  ACO3203     0.2188
     29  O4A       14.4410  -11.1410  -17.4020 O.3   3203  ACO3203    -0.4371
     30  O5A       13.9630  -13.5620  -18.1640 O.2   3203  ACO3203    -0.5170
     31  O6A       12.8600  -12.7200  -16.1010 O.3   3203  ACO3203    -0.3138
     32  CBP       13.0200  -10.8330  -14.3070 C.3   3203  ACO3203     0.0645
     33  CCP       12.1880  -11.8410  -15.0900 C.3   3203  ACO3203     0.1519
     34  CDP       12.0150  -10.1420  -13.3080 C.3   3203  ACO3203     0.0056
     35  CEP       14.1560  -11.5580  -13.5290 C.3   3203  ACO3203     0.0056
     36  CAP       13.5720   -9.7020  -15.2650 C.3   3203  ACO3203     0.2312
     37  OAP       12.5050   -9.0870  -15.9810 O.3   3203  ACO3203    -0.2131
     38  C9P       14.3810   -8.5770  -14.5340 C.2   3203  ACO3203     0.2719
     39  O9P       15.1910   -8.7890  -13.6240 O.2   3203  ACO3203    -0.2706
     40  N8P       14.1030   -7.3000  -14.9670 N.am  3203  ACO3203    -0.2028
     41  C7P       14.7090   -6.0790  -14.4210 C.3   3203  ACO3203     0.1248
     42  C6P       13.9220   -5.5550  -13.2010 C.3   3203  ACO3203     0.1102
     43  C5P       14.7730   -4.7930  -12.2290 C.2   3203  ACO3203     0.2432
     44  O5P       16.0090   -5.0240  -12.1100 O.2   3203  ACO3203    -0.2733
     45  N4P       14.2040   -3.8620  -11.4870 N.am  3203  ACO3203    -0.2044
     46  C3P       14.7140   -2.9490  -10.4640 C.3   3203  ACO3203     0.1276
     47  C2P       15.0690   -3.8590   -9.2720 C.3   3203  ACO3203     0.0920
     48  S1P       15.7460   -2.7500   -7.9250 S.3   3203  ACO3203    -0.0802
@<TRIPOS>BOND
     1    17    16    2
     2    18    16    1
     3    16    19    1
     4    16    15    1
     5    15    14    1
     6    13    12    1
     7    14    12    1
     8    14    20    1
     9    12    11    1
    10    25    24    2
    11    20    22    1
    12    20    21    1
    13    22    23    1
    14    23    24    1
    15    11    21    1
    16    11    10    1
    17    24    26    1
    18    24    27    1
    19    10     9    1
    20    10     4    1
    21    27    28    1
    22    30    28    2
    23     9     8    1
    24     3     4    2
    25     3     2    1
    26     4     5    1
    27    28    29    1
    28    28    31    1
    29     2     1    1
    30     8     5    2
    31     5     6    1
    32    31    33    1
    33    37    36    1
    34     1     6    2
    35     6     7    1
    36    36    38    1
    37    36    32    1
    38    33    32    1
    39    40    38   am
    40    40    41    1
    41    38    39    2
    42    41    42    1
    43    32    35    1
    44    32    34    1
    45    42    43    1
    46    43    44    2
    47    43    45   am
    48    45    46    1
    49    46    47    1
    50    47    48    1
