@<TRIPOS>MOLECULE
1od2_ADE_B_1.pdb
 10 11 0 0 0
SMALL
GASTEIGER

@<TRIPOS>ATOM
      1  N9        43.7450   -1.8360   37.3190 N.2   3190  ADE3190    -0.1914
      2  C8        43.6950   -1.9960   35.9680 C.3   3190  ADE3190     0.2618
      3  N7        42.4710   -1.7400   35.4260 N.2   3190  ADE3190    -0.2267
      4  C5        41.6920   -1.3910   36.5320 C.2   3190  ADE3190     0.2303
      5  C6        40.3100   -0.9980   36.7030 C.2   3190  ADE3190     0.4393
      6  N6        39.4690   -0.9040   35.6640 N.pl3 3190  ADE3190     0.2185
      7  N1        39.8740   -0.7170   38.0050 N.2   3190  ADE3190    -0.0265
      8  C2        40.7390   -0.8130   39.0480 C.3   3190  ADE3190     0.4008
      9  N3        42.0600   -1.1710   38.9980 N.2   3190  ADE3190    -0.1640
     10  C4        42.4690   -1.4460   37.7060 C.1   3190  ADE3190     0.0579
@<TRIPOS>BOND
     1     3     2    1
     2     3     4    2
     3     6     5    1
     4     2     1    1
     5     4     5    1
     6     4    10    1
     7     5     7    2
     8     1    10    2
     9    10     9    2
    10     7     8    1
    11     9     8    1
