@<TRIPOS>MOLECULE
1od3_BGC_A_1.pdb
 11 11 0 0 0
SMALL
GASTEIGER

@<TRIPOS>ATOM
      1  C2        -6.4780   22.6760   18.4420 C.3   1151  BGC1151     0.2141
      2  C3        -6.7310   23.1460   17.0340 C.3   1151  BGC1151     0.2173
      3  C4        -8.1560   22.9340   16.5890 C.3   1151  BGC1151     0.2142
      4  C5        -9.0810   23.5440   17.6160 C.3   1151  BGC1151     0.1810
      5  C6       -10.5190   23.2740   17.2970 C.3   1151  BGC1151     0.2141
      6  C1        -7.4080   23.3910   19.3570 C.3   1151  BGC1151     0.1777
      7  O2        -5.1410   23.0680   18.7590 O.3   1151  BGC1151    -0.2176
      8  O3        -5.8380   22.4420   16.1980 O.3   1151  BGC1151    -0.2175
      9  O4        -8.2980   23.6370   15.3670 O.3   1151  BGC1151    -0.2176
     10  O5        -8.7230   23.0430   18.9380 O.3   1151  BGC1151    -0.3481
     11  O6       -11.3530   23.7840   18.3390 O.3   1151  BGC1151    -0.2176
@<TRIPOS>BOND
     1     9     3    1
     2     8     2    1
     3     3     2    1
     4     3     4    1
     5     2     1    1
     6     5     4    1
     7     5    11    1
     8     4    10    1
     9     1     7    1
    10     1     6    1
    11    10     6    1
