@<TRIPOS>MOLECULE
1od4_ADE_C_1.pdb
 10 11 0 0 0
SMALL
GASTEIGER

@<TRIPOS>ATOM
      1  N9        47.6400  -38.3200   71.3970 N.2   3196  ADE3196    -0.1914
      2  C8        48.6470  -37.4600   71.0540 C.3   3196  ADE3196     0.2618
      3  N7        49.3730  -37.0100   72.1160 N.2   3196  ADE3196    -0.2267
      4  C5        48.7830  -37.6330   73.2020 C.2   3196  ADE3196     0.2303
      5  C6        49.0470  -37.6090   74.6050 C.2   3196  ADE3196     0.4393
      6  N6        50.0440  -36.8730   75.1180 N.pl3 3196  ADE3196     0.2185
      7  N1        48.2150  -38.3940   75.4270 N.2   3196  ADE3196    -0.0265
      8  C2        47.2020  -39.1410   74.8830 C.3   3196  ADE3196     0.4008
      9  N3        46.8710  -39.2310   73.5590 N.2   3196  ADE3196    -0.1640
     10  C4        47.7060  -38.4490   72.7770 C.1   3196  ADE3196     0.0579
@<TRIPOS>BOND
     1     2     1    1
     2     2     3    1
     3     1    10    2
     4     3     4    2
     5    10     4    1
     6    10     9    2
     7     4     5    1
     8     9     8    1
     9     5     6    1
    10     5     7    2
    11     8     7    1
