@<TRIPOS>MOLECULE
1od6_PNS_A_1.pdb
 22 21 0 0 0
SMALL
GASTEIGER

@<TRIPOS>ATOM
      1  O23       67.4600   23.2590  -35.1490 O.3   1161  PNS1161    -0.1145
      2  P24       65.9730   23.1650  -34.6560 P.3   1161  PNS1161     0.5326
      3  O25       65.8520   23.4760  -33.1580 O.3   1161  PNS1161    -0.1145
      4  O26       65.1080   24.1240  -35.5160 O.2   1161  PNS1161    -0.2224
      5  O27       65.6720   21.5970  -34.9830 O.3   1161  PNS1161    -0.2702
      6  C28       64.3980   21.0100  -34.6990 C.3   1161  PNS1161     0.1565
      7  C29       64.3650   19.4950  -35.1280 C.3   1161  PNS1161     0.0647
      8  C30       65.2480   19.2940  -36.4150 C.3   1161  PNS1161     0.0056
      9  C31       64.9480   18.6070  -33.9600 C.3   1161  PNS1161     0.0056
     10  C32       62.8160   19.1660  -35.4190 C.3   1161  PNS1161     0.2312
     11  O33       62.3030   20.0290  -36.4640 O.3   1161  PNS1161    -0.2131
     12  C34       62.5660   17.6610  -35.8950 C.2   1161  PNS1161     0.2719
     13  O35       62.6670   16.7100  -35.0470 O.2   1161  PNS1161    -0.2706
     14  N36       62.2560   17.4840  -37.2280 N.am  1161  PNS1161    -0.2028
     15  C37       61.9940   16.1680  -37.8580 C.3   1161  PNS1161     0.1248
     16  C38       60.4610   16.0420  -38.0990 C.3   1161  PNS1161     0.1102
     17  C39       59.7610   15.5570  -36.8290 C.2   1161  PNS1161     0.2432
     18  O40       60.1220   14.5200  -36.2400 O.2   1161  PNS1161    -0.2733
     19  N41       58.7430   16.3030  -36.3920 N.am  1161  PNS1161    -0.2044
     20  C42       57.8880   16.0120  -35.1550 C.3   1161  PNS1161     0.1276
     21  C43       58.4360   16.7760  -34.0420 C.3   1161  PNS1161     0.0920
     22  S44       57.4130   16.4050  -32.6650 S.3   1161  PNS1161    -0.0802
@<TRIPOS>BOND
     1    16    15    1
     2    16    17    1
     3    15    14    1
     4    14    12   am
     5    17    19   am
     6    17    18    2
     7    11    10    1
     8     8     7    1
     9    19    20    1
    10    12    10    1
    11    12    13    2
    12     4     2    2
    13    10     7    1
    14    20    21    1
    15     1     2    1
    16     7     6    1
    17     7     9    1
    18     5     6    1
    19     5     2    1
    20     2     3    1
    21    21    22    1
