@<TRIPOS>MOLECULE
1od7_SUW_A_1.pdb
 33 35 0 0 0
SMALL
GASTEIGER

@<TRIPOS>ATOM
      1  CX1       61.3490   25.3810   16.2320 C.2   201  SUW201      0.4179
      2  O1A       60.5660   24.7320   15.4870 O.co2 201  SUW201     -0.2401
      3  O1B       61.4790   25.1780   17.4750 O.co2 201  SUW201     -0.2401
      4  CX2       62.1920   26.4720   15.5950 C.3   201  SUW201      0.3155
      5  OX2       63.1790   25.7380   14.9270 O.3   201  SUW201     -0.1830
      6  CX3       61.5040   27.3660   14.5600 C.3   201  SUW201      0.1056
      7  CX4       60.7140   28.4800   15.2770 C.3   201  SUW201      0.1798
      8  OX4       60.2630   29.4470   14.3440 O.3   201  SUW201     -0.2210
      9  CX5       61.5340   29.2200   16.3510 C.3   201  SUW201      0.1554
     10  NX5       60.6210   30.1650   16.9740 N.am  201  SUW201     -0.2020
     11  C10       60.9430   31.4610   17.0570 C.2   201  SUW201      0.2420
     12  O10       61.9400   31.9670   16.5020 O.2   201  SUW201     -0.2733
     13  C11       60.0440   32.3500   17.8800 C.3   201  SUW201      0.0964
     14  CX6       62.1050   28.1700   17.3280 C.3   201  SUW201      0.1733
     15  OX6       62.9130   27.1900   16.6000 O.3   201  SUW201     -0.3220
     16  CX7       62.9410   28.7060   18.4550 C.3   201  SUW201      0.2126
     17  OX7       63.9770   29.4790   17.8920 O.3   201  SUW201     -0.2177
     18  CX8       63.6230   27.5890   19.2540 C.3   201  SUW201      0.2061
     19  OX8       62.7340   26.5230   19.6150 O.3   201  SUW201     -0.2184
     20  CX9       64.3060   28.2370   20.4970 C.3   201  SUW201      0.1509
     21  NX6       65.1580   27.2870   21.2120 N.am  201  SUW201     -0.1989
     22  C12       66.4410   27.0510   20.8630 C.2   201  SUW201      0.2649
     23  O12       67.0480   27.9310   20.2580 O.2   201  SUW201     -0.2684
     24  C25       66.4200   24.7370   21.9330 C.ar  201  SUW201      0.0046
     25  C26       67.1360   25.7450   21.2080 C.ar  201  SUW201      0.0550
     26  C27       68.4870   25.4860   20.8310 C.ar  201  SUW201      0.0046
     27  C28       69.1180   24.2550   21.1630 C.ar  201  SUW201      0.0001
     28  C2B       68.4120   23.2510   21.8810 C.ar  201  SUW201      0.0000
     29  C21       69.0370   22.0150   22.2160 C.ar  201  SUW201      0.0000
     30  C22       68.3110   21.0280   22.9360 C.ar  201  SUW201      0.0000
     31  C23       66.9560   21.2690   23.3270 C.ar  201  SUW201      0.0000
     32  C24       66.3220   22.4990   22.9970 C.ar  201  SUW201      0.0000
     33  C2A       67.0340   23.4990   22.2760 C.ar  201  SUW201      0.0001
@<TRIPOS>BOND
     1     8     7    1
     2     6     7    1
     3     6     4    1
     4     5     4    1
     5     7     9    1
     6     2     1   ar
     7     4     1    1
     8     4    15    1
     9     1     3   ar
    10     9    10    1
    11     9    14    1
    12    12    11    2
    13    15    14    1
    14    10    11   am
    15    11    13    1
    16    14    16    1
    17    17    16    1
    18    16    18    1
    19    18    19    1
    20    18    20    1
    21    23    22    2
    22    20    21    1
    23    26    27   ar
    24    26    25   ar
    25    22    25    1
    26    22    21   am
    27    27    28   ar
    28    25    24   ar
    29    28    29   ar
    30    28    33   ar
    31    24    33   ar
    32    29    30   ar
    33    33    32   ar
    34    30    31   ar
    35    32    31   ar
