@<TRIPOS>MOLECULE
1od8_XYP_A_1.pdb
 10 10 0 0 0
SMALL
GASTEIGER

@<TRIPOS>ATOM
      1  O4A        9.3920   23.6070    4.0490 O.3   1307  XYP1307    -0.1869
      2  C1B        8.4630   22.8320    4.7320 C.3   1307  XYP1307     0.3024
      3  C2B        9.1130   21.4850    4.9070 C.3   1307  XYP1307     0.2434
      4  C3B        8.2570   20.5850    5.7880 C.3   1307  XYP1307     0.2199
      5  C4B        7.8240   21.2990    7.0630 C.3   1307  XYP1307     0.2143
      6  C5B        7.2710   22.6820    6.7110 C.3   1307  XYP1307     0.1804
      7  O2B        9.3510   20.8030    3.6660 O.3   1307  XYP1307    -0.2148
      8  O3B        8.8990   19.3350    6.1280 O.3   1307  XYP1307    -0.2174
      9  O4B        6.8420   20.5430    7.7500 O.3   1307  XYP1307    -0.2176
     10  O5B        8.2230   23.4270    5.9370 O.3   1307  XYP1307    -0.3237
@<TRIPOS>BOND
     1     7     3    1
     2     1     2    1
     3     2     3    1
     4     2    10    1
     5     3     4    1
     6     4     8    1
     7     4     5    1
     8    10     6    1
     9     6     5    1
    10     5     9    1
