@<TRIPOS>MOLECULE
1od9_BND_A_1.pdb
 30 31 0 0 0
SMALL
GASTEIGER

@<TRIPOS>ATOM
      1  CY1       66.1170   39.9990   35.7980 C.3   201  BND201      0.1772
      2  CX1       63.3870   39.1500   34.8150 C.2   201  BND201      0.4152
      3  O1A       62.4770   39.7010   35.4760 O.co2 201  BND201     -0.2402
      4  O1B       63.5610   39.3320   33.5720 O.co2 201  BND201     -0.2402
      5  CX2       64.3570   38.2180   35.5870 C.3   201  BND201      0.2863
      6  OX2       65.1310   39.0290   36.4240 O.3   201  BND201     -0.3233
      7  CX3       63.6290   37.2100   36.4930 C.3   201  BND201      0.1028
      8  CX4       62.9430   36.1010   35.6440 C.3   201  BND201      0.1797
      9  OX4       62.4990   35.0600   36.4860 O.3   201  BND201     -0.2210
     10  CX5       63.8570   35.4670   34.5780 C.3   201  BND201      0.1554
     11  NX5       63.0070   34.5790   33.7800 N.am  201  BND201     -0.2020
     12  C10       63.3270   33.2810   33.6490 C.2   201  BND201      0.2420
     13  O10       64.3460   32.7620   34.1570 O.2   201  BND201     -0.2733
     14  C11       62.3930   32.4040   32.8450 C.3   201  BND201      0.0964
     15  CX6       64.4870   36.6010   33.7410 C.3   201  BND201      0.1732
     16  OX6       65.2020   37.5300   34.6250 O.3   201  BND201     -0.3239
     17  CX7       65.4150   36.1710   32.6160 C.3   201  BND201      0.2126
     18  OX7       66.4840   35.4340   33.1700 O.3   201  BND201     -0.2177
     19  CX8       66.0380   37.3760   31.8880 C.3   201  BND201      0.2061
     20  OX8       65.0720   38.3090   31.4540 O.3   201  BND201     -0.2184
     21  CX9       66.8720   36.8520   30.7010 C.3   201  BND201      0.1509
     22  NX6       67.5830   37.9430   30.0340 N.am  201  BND201     -0.1989
     23  C12       68.8120   38.3180   30.3840 C.2   201  BND201      0.2649
     24  O12       69.5250   37.5520   31.0040 O.2   201  BND201     -0.2684
     25  C1G       69.4110   39.6560   30.0720 C.ar  201  BND201      0.0550
     26  CD1       68.7800   40.5420   29.1990 C.ar  201  BND201      0.0046
     27  CE1       69.3390   41.7770   28.9010 C.ar  201  BND201      0.0001
     28  CD2       70.6200   40.0300   30.6470 C.ar  201  BND201      0.0046
     29  CE2       71.2020   41.2750   30.3620 C.ar  201  BND201      0.0001
     30  C1Z       70.5530   42.1440   29.4870 C.ar  201  BND201      0.0000
@<TRIPOS>BOND
     1    27    26   ar
     2    27    30   ar
     3    26    25   ar
     4    30    29   ar
     5    22    23   am
     6    22    21    1
     7    25    23    1
     8    25    28   ar
     9    29    28   ar
    10    23    24    2
    11    21    19    1
    12    20    19    1
    13    19    17    1
    14    17    18    1
    15    17    15    1
    16    14    12    1
    17     4     2   ar
    18    12    11   am
    19    12    13    2
    20    15    10    1
    21    15    16    1
    22    11    10    1
    23    10     8    1
    24    16     5    1
    25     2     3   ar
    26     2     5    1
    27     5     6    1
    28     5     7    1
    29     8     9    1
    30     8     7    1
    31     1     6    1
