@<TRIPOS>MOLECULE
1oda_BDU_A_1.pdb
 35 37 0 0 0
SMALL
GASTEIGER

@<TRIPOS>ATOM
      1  CX1       62.6200   39.5810   34.0730 C.2   201  BDU201      0.4179
      2  O1A       61.8520   40.1550   34.8800 O.co2 201  BDU201     -0.2401
      3  O1B       62.6240   39.7900   32.8250 O.co2 201  BDU201     -0.2401
      4  CX2       63.5430   38.5110   34.6350 C.3   201  BDU201      0.3155
      5  OX2       64.5370   39.2450   35.3150 O.3   201  BDU201     -0.1830
      6  CX3       62.8830   37.5730   35.6300 C.3   201  BDU201      0.1056
      7  CX4       61.9670   36.6300   34.8340 C.3   201  BDU201      0.1798
      8  OX4       61.3760   35.6830   35.6940 O.3   201  BDU201     -0.2210
      9  CX5       62.7220   35.8850   33.7010 C.3   201  BDU201      0.1554
     10  NX5       61.7500   35.0390   33.0280 N.am  201  BDU201     -0.2020
     11  C10       61.9430   33.7110   32.9710 C.2   201  BDU201      0.2420
     12  O10       62.9840   33.1380   33.3740 O.2   201  BDU201     -0.2733
     13  C11       60.8370   32.8690   32.3740 C.3   201  BDU201      0.0964
     14  CX6       63.3450   36.9580   32.7850 C.3   201  BDU201      0.1733
     15  OX6       64.2420   37.8310   33.5720 O.3   201  BDU201     -0.3220
     16  CX7       64.0530   36.5010   31.5330 C.3   201  BDU201      0.2126
     17  OX7       65.1080   35.6430   31.8860 O.3   201  BDU201     -0.2177
     18  CX8       64.6900   37.6660   30.7830 C.3   201  BDU201      0.2061
     19  OX8       63.7540   38.6750   30.3870 O.3   201  BDU201     -0.2184
     20  CX9       65.4660   37.0670   29.5820 C.3   201  BDU201      0.1509
     21  NX6       66.2400   38.0740   28.8490 N.am  201  BDU201     -0.1989
     22  C12       67.4360   38.5620   29.2330 C.2   201  BDU201      0.2649
     23  O12       68.1590   37.9390   29.9950 O.2   201  BDU201     -0.2684
     24  C1G       67.9490   39.8750   28.7680 C.ar  201  BDU201      0.0550
     25  CD1       67.2390   40.5970   27.8160 C.ar  201  BDU201      0.0046
     26  CE1       67.6810   41.8250   27.3760 C.ar  201  BDU201      0.0001
     27  CD2       69.1300   40.4150   29.2750 C.ar  201  BDU201      0.0046
     28  CE2       69.5880   41.6560   28.8380 C.ar  201  BDU201      0.0001
     29  C1Z       68.8530   42.3530   27.8850 C.ar  201  BDU201      0.0000
     30  C2G       69.3490   43.6530   27.3450 C.ar  201  BDU201      0.0000
     31  CY1       68.9320   44.0930   26.0850 C.ar  201  BDU201      0.0000
     32  CY2       70.2100   44.4510   28.0920 C.ar  201  BDU201      0.0000
     33  CG1       69.3640   45.3130   25.5760 C.ar  201  BDU201      0.0000
     34  CG2       70.6490   45.6790   27.5950 C.ar  201  BDU201      0.0000
     35  C2Z       70.2250   46.1110   26.3330 C.ar  201  BDU201      0.0000
@<TRIPOS>BOND
     1    33    31   ar
     2    33    35   ar
     3    31    30   ar
     4    35    34   ar
     5    30    29    1
     6    30    32   ar
     7    26    25   ar
     8    26    29   ar
     9    34    32   ar
    10    25    24   ar
    11    29    28   ar
    12    24    22    1
    13    24    27   ar
    14    28    27   ar
    15    21    22   am
    16    21    20    1
    17    22    23    2
    18    20    18    1
    19    19    18    1
    20    18    16    1
    21    16    17    1
    22    16    14    1
    23    13    11    1
    24    14    15    1
    25    14     9    1
    26     3     1   ar
    27    11    10   am
    28    11    12    2
    29    10     9    1
    30    15     4    1
    31     9     7    1
    32     1     4    1
    33     1     2   ar
    34     4     5    1
    35     4     6    1
    36     7     6    1
    37     7     8    1
