@<TRIPOS>MOLECULE
1odc_A8B_A_1.pdb
 34 38 0 0 0
SMALL
GASTEIGER

@<TRIPOS>ATOM
      1  N7         6.1350   69.1900   64.5910 N.2   1538  A8B1538    -0.4102
      2  C1         5.8610   69.4540   65.9360 C.2   1538  A8B1538     0.1176
      3  C6         6.8890   70.0410   66.7410 C.2   1538  A8B1538     0.0282
      4  C5         6.6450   70.3250   68.0800 C.2   1538  A8B1538     0.0020
      5  C4         5.3540   70.0230   68.6400 C.2   1538  A8B1538    -0.0037
      6  C3         4.3460   69.4460   67.8610 C.2   1538  A8B1538    -0.0137
      7  C2         4.5450   69.1300   66.4630 C.3   1538  A8B1538     0.1112
      8  C10        3.5430   68.5380   65.5290 C.2   1538  A8B1538     0.0515
      9  C9         3.9180   68.2560   64.1370 C.2   1538  A8B1538     0.0147
     10  C14        2.9820   67.6030   63.1060 C.3   1538  A8B1538     0.0296
     11  C15        3.6540   67.0760   61.7860 C.3   1538  A8B1538     0.0052
     12  C16        4.5880   68.1550   61.2350 C.3   1538  A8B1538     0.0078
     13  C17        5.7470   68.4020   62.2640 C.3   1538  A8B1538     0.0587
     14  C8         5.2550   68.6230   63.6890 C.2   1538  A8B1538     0.1055
     15  N11        2.2730   68.2480   65.9690 N.pl3 1538  A8B1538    -0.2414
     16  C25        1.7740   66.9400   66.3990 C.3   1538  A8B1538     0.1118
     17  C24        1.8000   66.7650   67.9190 C.3   1538  A8B1538     0.0233
     18  C21        2.8900   65.7680   68.2940 C.3   1538  A8B1538     0.0018
     19  C20        2.4280   64.7000   69.2800 C.3   1538  A8B1538     0.0001
     20  C19        2.7540   63.2800   68.7240 C.3   1538  A8B1538     0.0001
     21  C22        3.0270   62.2120   69.8040 C.3   1538  A8B1538     0.0021
     22  C29        1.8880   62.1120   70.8540 C.3   1538  A8B1538     0.0263
     23  C30        0.5670   61.6210   70.2880 C.3   1538  A8B1538     0.1251
     24  N24       -0.2940   61.1060   71.3790 N.2   1538  A8B1538    -0.2740
     25  C35       -1.6100   60.7890   71.1460 C.2   1538  A8B1538     0.0645
     26  C34       -2.4410   60.2570   72.2180 C.3   1538  A8B1538     0.1018
     27  C39       -1.9870   60.0040   73.5690 C.2   1538  A8B1538    -0.0146
     28  C40       -2.8650   59.4740   74.5140 C.2   1538  A8B1538    -0.0038
     29  C41       -4.2460   59.1660   74.1780 C.2   1538  A8B1538     0.0009
     30  C42       -4.7310   59.3980   72.8870 C.2   1538  A8B1538     0.0154
     31  C33       -3.8510   59.9360   71.8980 C.2   1538  A8B1538     0.0683
     32  N32       -4.3240   60.1620   70.5740 N.2   1538  A8B1538    -0.2474
     33  C26       -3.5320   60.6640   69.5780 C.2   1538  A8B1538     0.0997
     34  C27       -2.1930   60.9810   69.8200 C.2   1538  A8B1538     0.0356
@<TRIPOS>BOND
     1    12    11    1
     2    12    13    1
     3    11    10    1
     4    13    14    1
     5    10     9    1
     6    14     9    1
     7    14     1    2
     8     9     8    2
     9     1     2    2
    10     8    15    1
    11     8     7    1
    12     2     7    1
    13     2     3    1
    14    15    16    1
    15    16    17    1
    16     7     6    1
    17     3     4    2
    18     6     5    2
    19    17    18    1
    20     4     5    1
    21    18    19    1
    22    20    19    1
    23    20    21    1
    24    33    34    2
    25    33    32    1
    26    21    22    1
    27    34    25    1
    28    23    22    1
    29    23    24    1
    30    32    31    2
    31    25    24    2
    32    25    26    1
    33    31    26    1
    34    31    30    1
    35    26    27    1
    36    30    29    2
    37    27    28    2
    38    29    28    1
