@<TRIPOS>MOLECULE
1odi_ADN_A_1.pdb
 19 21 0 0 0
SMALL
GASTEIGER

@<TRIPOS>ATOM
      1  O5'       -0.6350  -80.2750 -146.6140 O.3   1237  ADN1237    -0.2176
      2  C5'        0.5970  -80.9160 -146.3410 C.3   1237  ADN1237     0.2143
      3  C4'        1.6660  -79.9270 -146.8450 C.3   1237  ADN1237     0.1851
      4  O4'        1.6620  -78.6220 -146.1490 O.3   1237  ADN1237    -0.3134
      5  C3'        3.0750  -80.4490 -146.6260 C.3   1237  ADN1237     0.2186
      6  O3'        3.8090  -80.1230 -147.8230 O.3   1237  ADN1237    -0.2174
      7  C2'        3.6340  -79.7220 -145.3790 C.3   1237  ADN1237     0.2570
      8  O2'        4.9000  -79.1020 -145.5840 O.3   1237  ADN1237    -0.2130
      9  C1'        2.4670  -78.7730 -144.9650 C.3   1237  ADN1237     0.3186
     10  N9         1.6410  -79.2150 -143.7730 N.pl3 1237  ADN1237    -0.1439
     11  C8         0.5610  -78.4890 -143.2370 C.3   1237  ADN1237     0.3377
     12  N7        -0.0350  -79.0410 -142.2120 N.2   1237  ADN1237    -0.2095
     13  C5         0.6750  -80.2260 -142.0200 C.2   1237  ADN1237     0.2526
     14  C6         0.5430  -81.3170 -141.0640 C.2   1237  ADN1237     0.4393
     15  N6        -0.3950  -81.3370 -140.1120 N.pl3 1237  ADN1237     0.2180
     16  N1         1.4360  -82.3630 -141.1640 N.2   1237  ADN1237     0.0021
     17  C2         2.3940  -82.3520 -142.1330 C.3   1237  ADN1237     0.5254
     18  N3         2.6100  -81.3940 -143.0770 N.2   1237  ADN1237    -0.0055
     19  C4         1.7160  -80.3590 -142.9690 C.2   1237  ADN1237     0.3518
@<TRIPOS>BOND
     1     6     5    1
     2     3     5    1
     3     3     2    1
     4     3     4    1
     5     5     7    1
     6     1     2    1
     7     4     9    1
     8     8     7    1
     9     7     9    1
    10     9    10    1
    11    10    11    1
    12    10    19    1
    13    11    12    1
    14    18    19    2
    15    18    17    1
    16    19    13    1
    17    12    13    2
    18    17    16    1
    19    13    14    1
    20    16    14    2
    21    14    15    1
