@<TRIPOS>MOLECULE
1odj_GMP_A_1.pdb
 20 22 0 0 0
SMALL
GASTEIGER

@<TRIPOS>ATOM
      1  O5'       -0.9440  -80.5800 -147.7660 O.3   1237  GMP1237    -0.2176
      2  C5'        0.2920  -81.2070 -147.4800 C.3   1237  GMP1237     0.2142
      3  C4'        1.3310  -80.2020 -147.9780 C.3   1237  GMP1237     0.1828
      4  O4'        1.2970  -78.8900 -147.3070 O.3   1237  GMP1237    -0.3325
      5  C3'        2.7630  -80.6770 -147.7670 C.3   1237  GMP1237     0.2159
      6  O3'        3.4690  -80.3250 -148.9910 O.3   1237  GMP1237    -0.2175
      7  C2'        3.3170  -79.9050 -146.5450 C.3   1237  GMP1237     0.2310
      8  O2'        4.5840  -79.2700 -146.7520 O.3   1237  GMP1237    -0.2158
      9  C1'        2.1360  -78.9680 -146.1380 C.3   1237  GMP1237     0.2293
     10  N9         1.3810  -79.3580 -144.8990 N.pl3 1237  GMP1237    -0.2354
     11  C8         0.3730  -78.6000 -144.3460 C.3   1237  GMP1237     0.2246
     12  N7        -0.1430  -79.1270 -143.2740 N.2   1237  GMP1237    -0.2322
     13  C5         0.5570  -80.3140 -143.0910 C.2   1237  GMP1237     0.2182
     14  C6         0.4250  -81.3130 -142.0760 C.1   1237  GMP1237     0.2372
     15  O6        -0.3620  -81.3440 -141.1160 O.2   1237  GMP1237    -0.2069
     16  N1         1.3250  -82.3540 -142.2610 N.2   1237  GMP1237    -0.2485
     17  C2         2.2380  -82.4320 -143.2770 C.1   1237  GMP1237     0.2531
     18  N2         3.0130  -83.5290 -143.2710 N.pl3 1237  GMP1237    -0.0226
     19  N3         2.3790  -81.5090 -144.2340 N.2   1237  GMP1237    -0.3074
     20  C4         1.5090  -80.4810 -144.0790 C.2   1237  GMP1237     0.2300
@<TRIPOS>BOND
     1     6     5    1
     2     3     5    1
     3     3     2    1
     4     3     4    1
     5     5     7    1
     6     1     2    1
     7     4     9    1
     8     8     7    1
     9     7     9    1
    10     9    10    1
    11    10    11    1
    12    10    20    1
    13    11    12    1
    14    19    20    2
    15    19    17    2
    16    20    13    1
    17    17    18    1
    18    17    16    2
    19    12    13    2
    20    13    14    1
    21    16    14    2
    22    14    15    2
