@<TRIPOS>MOLECULE
1odm_ASV_A_1.pdb
 23 22 0 0 0
SMALL
GASTEIGER

@<TRIPOS>ATOM
      1  C1        17.2330   36.1320    5.7040 C.2   1332  ASV1332     0.3819
      2  C2        15.8030   36.3740    6.1740 C.3   1332  ASV1332     0.1943
      3  C3        15.2240   37.6200    5.4870 C.3   1332  ASV1332     0.0311
      4  C4        13.7880   37.9270    6.0150 C.3   1332  ASV1332     0.0117
      5  C7        13.3290   39.2340    5.3060 C.3   1332  ASV1332     0.0869
      6  C10       11.9260   39.5390    5.7110 C.2   1332  ASV1332     0.2418
      7  N11       10.9900   39.5010    4.7880 N.am  1332  ASV1332    -0.1968
      8  C12        9.5400   39.6740    4.9330 C.3   1332  ASV1332     0.1843
      9  C13        8.8560   38.2970    4.7380 C.2   1332  ASV1332     0.2626
     10  N14       15.8450   36.5270    7.6930 N.3   1332  ASV1332    -0.1208
     11  O15       11.6530   39.8190    6.9090 O.2   1332  ASV1332    -0.2733
     12  C16        9.1300   40.7150    3.8510 C.3   1332  ASV1332     0.0997
     13  S17        9.4380   39.9040    2.2560 S.3   1332  ASV1332    -0.0797
     14  O18        9.3780   37.2010    4.8680 O.2   1332  ASV1332    -0.2714
     15  O19       18.1810   36.2130    6.5470 O.co2 1332  ASV1332    -0.2441
     16  O20       17.3630   35.8960    4.4860 O.co2 1332  ASV1332    -0.2441
     17  N29        7.5550   38.3100    4.3890 N.am  1332  ASV1332    -0.1941
     18  C30        6.6850   37.1260    4.2900 C.3   1332  ASV1332     0.1978
     19  C31        5.3930   37.3410    5.1050 C.2   1332  ASV1332     0.3842
     20  C32        6.3350   36.7270    2.8020 C.3   1332  ASV1332     0.0333
     21  C33        7.5190   36.7400    1.8000 C.3   1332  ASV1332     0.0024
     22  O42        5.2160   38.2230    5.9640 O.co2 1332  ASV1332    -0.2437
     23  O43        4.4940   36.4950    4.8190 O.co2 1332  ASV1332    -0.2437
@<TRIPOS>BOND
     1    21    20    1
     2    13    12    1
     3    20    18    1
     4    12     8    1
     5    18    17    1
     6    18    19    1
     7    17     9   am
     8    16     1   ar
     9     9    14    2
    10     9     8    1
    11     7     8    1
    12     7     6   am
    13    23    19   ar
    14    19    22   ar
    15     5     6    1
    16     5     4    1
    17     3     4    1
    18     3     2    1
    19     1     2    1
    20     1    15   ar
    21     6    11    2
    22     2    10    1
