@<TRIPOS>MOLECULE
1odn_APV_A_1.pdb
 24 25 0 0 0
SMALL
GASTEIGER

@<TRIPOS>ATOM
      1  C1        17.3730   36.3290    5.5220 C.2   1324  APV1324     0.3819
      2  C2        15.8930   36.4540    5.8920 C.3   1324  APV1324     0.1943
      3  C3        15.2580   37.6720    5.2270 C.3   1324  APV1324     0.0311
      4  C4        13.7620   37.7750    5.6020 C.3   1324  APV1324     0.0117
      5  C7        13.0530   38.9900    4.9880 C.3   1324  APV1324     0.0869
      6  C10       11.6720   39.1410    5.5760 C.2   1324  APV1324     0.2418
      7  N11       10.6610   39.2780    4.6870 N.am  1324  APV1324    -0.1951
      8  C12        9.3400   39.7050    5.0820 C.3   1324  APV1324     0.1995
      9  C13        8.4940   38.7820    5.9940 C.2   1324  APV1324     0.2491
     10  N14       15.7280   36.3600    7.3400 N.3   1324  APV1324    -0.1208
     11  O15       11.4980   39.1350    6.7960 O.2   1324  APV1324    -0.2733
     12  C16        8.1890   39.4820    4.0640 C.3   1324  APV1324     0.1530
     13  S17        8.3640   38.3950    2.6470 S.3   1324  APV1324    -0.1149
     14  O18        8.5820   38.3430    7.1170 O.2   1324  APV1324    -0.2729
     15  O19       18.2980   36.4910    6.2570 O.co2 1324  APV1324    -0.2441
     16  O20       17.5230   36.0150    4.2420 O.co2 1324  APV1324    -0.2441
     17  N29        7.4830   38.6270    5.0390 N.am  1324  APV1324    -0.2594
     18  C30        6.7250   37.4670    4.5440 C.3   1324  APV1324     0.1923
     19  C31        5.4110   37.3450    5.1660 C.2   1324  APV1324     0.3834
     20  C32        6.7150   37.5920    2.9720 C.3   1324  APV1324     0.1114
     21  C33        5.5370   38.4250    2.4330 C.3   1324  APV1324     0.1951
     22  O42        4.5060   36.6120    4.8070 O.co2 1324  APV1324    -0.2438
     23  O32        5.8340   39.6510    1.7940 O.3   1324  APV1324    -0.2194
     24  O43        5.3500   38.0870    6.3200 O.co2 1324  APV1324    -0.2438
@<TRIPOS>BOND
     1    23    21    1
     2    21    20    1
     3    13    20    1
     4    13    12    1
     5    20    18    1
     6    12    17    1
     7    12     8    1
     8    16     1   ar
     9    18    17    1
    10    18    19    1
    11     7     8    1
    12     7     6   am
    13    22    19   ar
    14     5     6    1
    15     5     4    1
    16    17     9   am
    17     8     9    1
    18    19    24   ar
    19     3     4    1
    20     3     2    1
    21     1     2    1
    22     1    15   ar
    23     6    11    2
    24     2    10    1
    25     9    14    2
