@<TRIPOS>MOLECULE
1odo_PIM_A_1.pdb
 11 12 0 0 0
SMALL
GASTEIGER

@<TRIPOS>ATOM
      1  N1        -8.2940   -6.6840   -3.9970 N.2   1408  PIM1408    -0.2267
      2  C2        -7.8400   -7.1980   -2.7930 C.2   1408  PIM1408     0.1943
      3  N3        -7.2140   -8.2390   -3.0250 N.2   1408  PIM1408    -0.2436
      4  C4        -7.1990   -8.4920   -4.3220 C.3   1408  PIM1408     0.1726
      5  C5        -7.8720   -7.5270   -4.9560 C.2   1408  PIM1408     0.0853
      6  C6        -8.1550   -7.3230   -6.4200 C.ar  1408  PIM1408     0.0156
      7  C7        -8.3350   -5.9840   -6.8980 C.ar  1408  PIM1408     0.0012
      8  C8        -8.6070   -5.7810   -8.3040 C.ar  1408  PIM1408     0.0000
      9  C9        -8.6840   -6.9120   -9.1540 C.ar  1408  PIM1408     0.0000
     10  C10       -8.5020   -8.2350   -8.6700 C.ar  1408  PIM1408     0.0000
     11  C11       -8.2360   -8.4010   -7.2780 C.ar  1408  PIM1408     0.0012
@<TRIPOS>BOND
     1     9    10   ar
     2     9     8   ar
     3    10    11   ar
     4     8     7   ar
     5    11     6   ar
     6     7     6   ar
     7     6     5    1
     8     5     4    1
     9     5     1    2
    10     4     3    1
    11     1     2    1
    12     3     2    2
