@<TRIPOS>MOLECULE
1odo_HEM_A_1.pdb
 43 50 0 0 0
SMALL
GASTEIGER

@<TRIPOS>ATOM
      1 FE         -6.1730   -9.6550   -1.5610 Fe    1407  HEM1407     0.0000
      2  CHA       -6.2270  -12.1150   -3.9030 C.2   1407  HEM1407     0.0000
      3  CHB       -3.1560   -8.5920   -2.7440 C.2   1407  HEM1407     0.0000
      4  CHC       -6.1280   -7.1490    0.7770 C.2   1407  HEM1407     0.0000
      5  CHD       -9.1910  -10.6550   -0.4080 C.2   1407  HEM1407     0.0000
      6  NA        -4.9110  -10.2550   -3.0430 N.ar  1407  HEM1407     0.0000
      7  C1A       -5.1160  -11.3070   -3.9040 C.ar  1407  HEM1407     0.0000
      8  C2A       -3.9760  -11.4100   -4.8090 C.ar  1407  HEM1407     0.0000
      9  C3A       -3.1230  -10.4260   -4.4910 C.ar  1407  HEM1407     0.0000
     10  C4A       -3.6940   -9.6820   -3.3770 C.ar  1407  HEM1407     0.0000
     11  CMA       -1.7740  -10.0970   -5.1550 C.3   1407  HEM1407     0.0000
     12  CAA       -3.8360  -12.4770   -5.9160 C.3   1407  HEM1407     0.0000
     13  CBA       -3.2680  -13.7880   -5.3420 C.3   1407  HEM1407     0.0000
     14  CGA       -3.0980  -14.9270   -6.3460 C.2   1407  HEM1407     0.0000
     15  O1A       -3.9920  -15.0030   -7.2610 O.co2 1407  HEM1407     0.0000
     16  O2A       -2.1410  -15.6870   -6.2110 O.co2 1407  HEM1407     0.0000
     17  NB        -4.9020   -8.1550   -1.0700 N.2   1407  HEM1407     0.0000
     18  C1B       -3.6900   -7.8870   -1.6980 C.2   1407  HEM1407     0.0000
     19  C2B       -3.0620   -6.7310   -1.0830 C.2   1407  HEM1407     0.0000
     20  C3B       -3.8960   -6.3180   -0.0860 C.2   1407  HEM1407     0.0000
     21  C4B       -5.0360   -7.2070   -0.0780 C.2   1407  HEM1407     0.0000
     22  CMB       -1.7100   -6.1290   -1.5190 C.3   1407  HEM1407     0.0000
     23  CAB       -3.7300   -5.1350    0.8880 C.3   1407  HEM1407     0.0000
     24  CBB       -2.5460   -5.2730    1.8590 C.3   1407  HEM1407     0.0000
     25  NC        -7.4170   -9.0450   -0.1020 N.ar  1407  HEM1407     0.0000
     26  C1C       -7.2270   -7.9960    0.7630 C.ar  1407  HEM1407     0.0000
     27  C2C       -8.3670   -7.8820    1.6860 C.ar  1407  HEM1407     0.0000
     28  C3C       -9.2330   -8.8650    1.3510 C.ar  1407  HEM1407     0.0000
     29  C4C       -8.6400   -9.5840    0.2420 C.ar  1407  HEM1407     0.0000
     30  CMC       -8.4670   -6.7930    2.7990 C.3   1407  HEM1407     0.0000
     31  CAC      -10.6150   -9.2490    1.9430 C.3   1407  HEM1407     0.0000
     32  CBC      -10.7160   -9.3410    3.4700 C.3   1407  HEM1407     0.0000
     33  ND        -7.4420  -11.0850   -2.0490 N.2   1407  HEM1407     0.0000
     34  C1D       -8.6720  -11.3600   -1.4580 C.2   1407  HEM1407     0.0000
     35  C2D       -9.3070  -12.4760   -2.1200 C.2   1407  HEM1407     0.0000
     36  C3D       -8.4800  -12.8840   -3.1110 C.2   1407  HEM1407     0.0000
     37  C4D       -7.3160  -12.0290   -3.0590 C.2   1407  HEM1407     0.0000
     38  CMD      -10.6870  -13.0480   -1.7390 C.3   1407  HEM1407     0.0000
     39  CAD       -8.7560  -14.0190   -4.1100 C.3   1407  HEM1407     0.0000
     40  CBD       -8.7360  -15.4590   -3.5860 C.3   1407  HEM1407     0.0000
     41  CGD       -9.1010  -16.3530   -4.7520 C.2   1407  HEM1407     0.0000
     42  O1D      -10.2030  -16.9150   -4.7480 O.co2 1407  HEM1407     0.0000
     43  O2D       -8.2630  -16.4270   -5.6800 O.co2 1407  HEM1407     0.0000
@<TRIPOS>BOND
     1    15    14   ar
     2    14    16   ar
     3    14    13    1
     4    12    13    1
     5    12     8    1
     6    43    41   ar
     7    11     9    1
     8     8     9   ar
     9     8     7   ar
    10    41    42   ar
    11    41    40    1
    12     9    10   ar
    13    39    40    1
    14    39    36    1
    15     7     2    2
    16     7     6   ar
    17     2    37    1
    18    10     6   ar
    19    10     3    2
    20    36    37    1
    21    36    35    2
    22    37    33    2
    23     6     1    1
    24     3    18    1
    25    35    38    1
    26    35    34    1
    27    33     1    1
    28    33    34    1
    29    18    19    1
    30    18    17    2
    31     1    17    1
    32     1    25    1
    33    22    19    1
    34    34     5    2
    35    19    20    2
    36    17    21    1
    37     5    29    1
    38    25    29   ar
    39    25    26   ar
    40    20    21    1
    41    20    23    1
    42    21     4    2
    43    29    28   ar
    44    26     4    1
    45    26    27   ar
    46    23    24    1
    47    28    27   ar
    48    28    31    1
    49    27    30    1
    50    31    32    1
