@<TRIPOS>MOLECULE
1odu_FUL_A_1.pdb
 11 11 0 0 0
SMALL
GASTEIGER

@<TRIPOS>ATOM
      1  C1       -18.3360   19.9150   60.7580 C.3   1448  FUL1448     0.3023
      2  C2       -17.6790   20.0810   62.1210 C.3   1448  FUL1448     0.2434
      3  O2       -16.4230   20.7000   61.9830 O.3   1448  FUL1448    -0.2148
      4  C3       -18.5830   20.9150   63.0150 C.3   1448  FUL1448     0.2198
      5  O3       -18.0130   20.9820   64.2930 O.3   1448  FUL1448    -0.2174
      6  C4       -19.9630   20.2780   63.1030 C.3   1448  FUL1448     0.2118
      7  O4       -19.8690   19.0580   63.8070 O.3   1448  FUL1448    -0.2177
      8  C5       -20.5190   20.0630   61.6930 C.3   1448  FUL1448     0.1509
      9  C6       -21.8580   19.3350   61.6990 C.3   1448  FUL1448     0.0350
     10  O5       -19.6100   19.3220   60.9040 O.3   1448  FUL1448    -0.3264
     11  O1       -17.5330   19.0630   59.9780 O.3   1448  FUL1448    -0.1869
@<TRIPOS>BOND
     1    11     1    1
     2     1    10    1
     3     1     2    1
     4    10     8    1
     5     8     9    1
     6     8     6    1
     7     3     2    1
     8     2     4    1
     9     4     6    1
    10     4     5    1
    11     6     7    1
