@<TRIPOS>MOLECULE
1odw_0E8_A_1.pdb
 39 40 0 0 0
SMALL
GASTEIGER

@<TRIPOS>ATOM
      1  O1         3.7540   -0.4600   12.0380 O.2   201  0E8201     -0.2246
      2  C          3.6900    0.7250   12.3900 C.2   201  0E8201      0.4209
      3  O2         2.5330    1.5590   12.1720 O.3   201  0E8201     -0.4408
      4  CT         1.3020    0.9850   11.6770 C.3   201  0E8201      0.1379
      5  C1         0.2170    2.0840   11.6520 C.3   201  0E8201      0.0437
      6  C2         1.3680    0.2730   10.3480 C.3   201  0E8201      0.0437
      7  C3         0.8180   -0.0750   12.7120 C.3   201  0E8201      0.0437
      8  C4         6.0450    0.8030   14.7730 C.3   201  0E8201      0.1895
      9  O          7.1850    0.0250   14.9380 O.3   201  0E8201     -0.2197
     10  CA         5.9250    1.0190   13.2460 C.3   201  0E8201      0.1347
     11  N          4.6250    1.4910   12.9120 N.am  201  0E8201     -0.1675
     12  CB         7.0130    2.0030   12.8360 C.3   201  0E8201      0.0508
     13  CG         7.1960    1.8620   11.3190 C.ar  201  0E8201     -0.0204
     14  CD1        6.3950    2.6890   10.5110 C.ar  201  0E8201     -0.0042
     15  CD2        8.1190    0.9330   10.8250 C.ar  201  0E8201     -0.0042
     16  CE1        6.5260    2.5200    9.1130 C.ar  201  0E8201     -0.0003
     17  CE2        8.2350    0.8270    9.4160 C.ar  201  0E8201     -0.0003
     18  CZ         7.4310    1.5850    8.5850 C.ar  201  0E8201     -0.0000
     19  N1         5.0070   -0.1100   16.7710 N.3   201  0E8201     -0.2126
     20  C21        4.7860    0.2340   15.3630 C.3   201  0E8201      0.1234
     21  C31        5.3390   -1.5560   16.7800 C.3   201  0E8201      0.1234
     22  C5         4.0800   -2.4180   17.1230 C.3   201  0E8201      0.1895
     23  O3         3.0220   -1.8460   16.3930 O.3   201  0E8201     -0.2197
     24  CA1        4.3360   -3.8870   16.7660 C.3   201  0E8201      0.1347
     25  N2         5.7100   -4.2830   17.0770 N.am  201  0E8201     -0.1675
     26  CB1        3.2550   -4.7770   17.4420 C.3   201  0E8201      0.0508
     27  CG1        3.2540   -6.1910   16.8820 C.ar  201  0E8201     -0.0204
     28 CD11        3.4950   -7.2850   17.6930 C.ar  201  0E8201     -0.0042
     29 CD21        2.9780   -6.4110   15.5280 C.ar  201  0E8201     -0.0042
     30 CE11        3.5390   -8.5950   17.1510 C.ar  201  0E8201     -0.0003
     31 CE21        3.0260   -7.6930   14.9580 C.ar  201  0E8201     -0.0003
     32  CZ1        3.3250   -8.7810   15.7900 C.ar  201  0E8201     -0.0000
     33  O11        6.6370   -4.1410   15.0120 O.2   201  0E8201     -0.2246
     34  C6         6.7060   -4.3570   16.1980 C.2   201  0E8201      0.4209
     35  O21        7.8730   -4.6800   16.8670 O.3   201  0E8201     -0.4408
     36  CT1        9.1610   -4.6250   16.2110 C.3   201  0E8201      0.1379
     37  C11        9.4940   -3.2350   15.6810 C.3   201  0E8201      0.0437
     38  C22        9.1640   -5.6240   15.0470 C.3   201  0E8201      0.0437
     39  C32       10.1570   -5.0680   17.2630 C.3   201  0E8201      0.0437
@<TRIPOS>BOND
     1    18    16   ar
     2    18    17   ar
     3    16    14   ar
     4    17    15   ar
     5     6     4    1
     6    14    13   ar
     7    15    13   ar
     8    13    12    1
     9     5     4    1
    10     4     3    1
    11     4     7    1
    12     1     2    2
    13     3     2    1
    14     2    11   am
    15    12    10    1
    16    11    10    1
    17    10     8    1
    18     8     9    1
    19     8    20    1
    20    31    29   ar
    21    31    32   ar
    22    33    34    2
    23    38    36    1
    24    20    19    1
    25    29    27   ar
    26    37    36    1
    27    32    30   ar
    28    34    35    1
    29    34    25   am
    30    36    35    1
    31    36    39    1
    32    23    22    1
    33    24    25    1
    34    24    22    1
    35    24    26    1
    36    19    21    1
    37    21    22    1
    38    27    26    1
    39    27    28   ar
    40    30    28   ar
