@<TRIPOS>MOLECULE
1odx_0E8_A_1.pdb
 39 40 0 0 0
SMALL
GASTEIGER

@<TRIPOS>ATOM
      1  O1       -10.0490   15.1230   30.7630 O.2   201  0E8201     -0.2246
      2  C        -11.1010   15.5910   31.1880 C.2   201  0E8201      0.4209
      3  O2       -11.2010   15.8870   32.5630 O.3   201  0E8201     -0.4408
      4  CT       -10.0740   15.5220   33.4180 C.3   201  0E8201      0.1379
      5  C1        -9.7130   14.0510   33.3560 C.3   201  0E8201      0.0437
      6  C2       -10.4850   15.9510   34.8080 C.3   201  0E8201      0.0437
      7  C3        -8.8030   16.3130   33.0860 C.3   201  0E8201      0.0437
      8  C4       -12.5320   17.0370   28.3160 C.3   201  0E8201      0.1895
      9  O        -12.2810   16.6350   26.9600 O.3   201  0E8201     -0.2197
     10  CA       -12.5490   15.7610   29.1670 C.3   201  0E8201      0.1347
     11  N        -12.2460   15.8890   30.6020 N.am  201  0E8201     -0.1675
     12  CB       -13.9560   15.1000   28.9700 C.3   201  0E8201      0.0508
     13  CG       -13.7390   13.6930   29.5020 C.ar  201  0E8201     -0.0204
     14  CD1      -12.9970   12.7660   28.7290 C.ar  201  0E8201     -0.0042
     15  CD2      -14.1720   13.3820   30.7950 C.ar  201  0E8201     -0.0042
     16  CE1      -12.7630   11.5060   29.2800 C.ar  201  0E8201     -0.0003
     17  CE2      -13.9190   12.1220   31.3290 C.ar  201  0E8201     -0.0003
     18  CZ       -13.2090   11.2140   30.5720 C.ar  201  0E8201     -0.0000
     19  N1       -11.0750   19.1190   27.8020 N.3   201  0E8201     -0.2126
     20  C21      -11.4330   18.0540   28.7620 C.3   201  0E8201      0.1234
     21  C31       -9.9450   18.7390   26.9160 C.3   201  0E8201      0.1234
     22  C5        -8.6090   19.3190   27.2780 C.3   201  0E8201      0.1895
     23  O3        -8.3400   19.0510   28.6460 O.3   201  0E8201     -0.2197
     24  CA1       -7.4140   18.7030   26.4960 C.3   201  0E8201      0.1347
     25  N2        -7.7080   18.5320   25.0900 N.am  201  0E8201     -0.1675
     26  CB1       -6.1950   19.5970   26.6430 C.3   201  0E8201      0.0508
     27  CG1       -4.9580   19.0230   25.9760 C.ar  201  0E8201     -0.0204
     28 CD11       -4.6920   17.6420   25.9880 C.ar  201  0E8201     -0.0042
     29 CD21       -4.0200   19.8940   25.4040 C.ar  201  0E8201     -0.0042
     30 CE11       -3.5590   17.0930   25.3860 C.ar  201  0E8201     -0.0003
     31 CE21       -2.8430   19.3630   24.8440 C.ar  201  0E8201     -0.0003
     32  CZ1       -2.6190   17.9830   24.8430 C.ar  201  0E8201     -0.0000
     33  O11       -7.9510   16.2310   25.1650 O.2   201  0E8201     -0.2246
     34  C6        -7.9480   17.3340   24.5960 C.2   201  0E8201      0.4209
     35  O21       -8.1860   17.4770   23.2190 O.3   201  0E8201     -0.4408
     36  CT1       -8.6140   16.3690   22.3910 C.3   201  0E8201      0.1379
     37  C11       -9.9860   15.8050   22.7650 C.3   201  0E8201      0.0437
     38  C22       -7.6210   15.2080   22.3850 C.3   201  0E8201      0.0437
     39  C32       -8.7230   16.9460   20.9900 C.3   201  0E8201      0.0437
@<TRIPOS>BOND
     1    39    36    1
     2    38    36    1
     3    36    37    1
     4    36    35    1
     5    35    34    1
     6    34    25   am
     7    34    33    2
     8    32    31   ar
     9    32    30   ar
    10    31    29   ar
    11    25    24    1
    12    30    28   ar
    13    29    27   ar
    14    27    28   ar
    15    27    26    1
    16    24    26    1
    17    24    22    1
    18    21    22    1
    19    21    19    1
    20     9     8    1
    21    22    23    1
    22    19    20    1
    23     8    20    1
    24     8    10    1
    25    14    16   ar
    26    14    13   ar
    27    12    10    1
    28    12    13    1
    29    10    11    1
    30    16    18   ar
    31    13    15   ar
    32    18    17   ar
    33    11     2   am
    34     1     2    2
    35    15    17   ar
    36     2     3    1
    37     3     4    1
    38     7     4    1
    39     5     4    1
    40     4     6    1
