@<TRIPOS>MOLECULE
1odz_MAN_A_1.pdb
 12 12 0 0 0
SMALL
GASTEIGER

@<TRIPOS>ATOM
      1  C1        15.2890   34.7020   -7.5310 C.2   1425  MAN1425     0.3505
      2  C2        16.6110   34.0170   -7.8380 C.3   1425  MAN1425     0.2823
      3  C3        17.7060   34.9880   -7.3220 C.3   1425  MAN1425     0.2270
      4  C4        17.4590   36.4280   -7.8190 C.3   1425  MAN1425     0.2276
      5  C5        15.9970   36.8490   -7.6150 C.3   1425  MAN1425     0.2344
      6  C6        15.7120   38.2400   -8.1490 C.3   1425  MAN1425     0.2281
      7  O1        14.8110   34.6090   -6.2150 O.2   1425  MAN1425    -0.2472
      8  O2        16.7630   33.8390   -9.2200 O.3   1425  MAN1425    -0.2082
      9  O3        18.9550   34.5270   -7.7400 O.3   1425  MAN1425    -0.2169
     10  O4        18.1650   37.4120   -7.0830 O.3   1425  MAN1425    -0.2163
     11  O5        15.0820   35.9300   -8.1810 O.3   1425  MAN1425    -0.4450
     12  O6        15.9290   38.2950   -9.5390 O.3   1425  MAN1425    -0.2163
@<TRIPOS>BOND
     1    12     6    1
     2     8     2    1
     3    11     5    1
     4    11     1    1
     5     6     5    1
     6     2     1    1
     7     2     3    1
     8     4     5    1
     9     4     3    1
    10     4    10    1
    11     9     3    1
    12     1     7    2
