@<TRIPOS>MOLECULE
1odz_BMA_A_1.pdb
 11 11 0 0 0
SMALL
GASTEIGER

@<TRIPOS>ATOM
      1  C1        19.5910   37.3420   -7.0630 C.3   1426  BMA1426     0.1777
      2  C2        20.1260   38.7750   -7.0140 C.3   1426  BMA1426     0.2141
      3  C3        21.6630   38.7230   -6.9690 C.3   1426  BMA1426     0.2173
      4  C4        22.1290   37.9070   -5.7780 C.3   1426  BMA1426     0.2142
      5  C5        21.3910   36.5590   -5.7260 C.3   1426  BMA1426     0.1810
      6  C6        21.6430   35.7770   -4.4500 C.3   1426  BMA1426     0.2141
      7  O2        19.6050   39.4320   -5.8780 O.3   1426  BMA1426    -0.2176
      8  O3        22.2060   40.0330   -6.8800 O.3   1426  BMA1426    -0.2175
      9  O4        23.5120   37.6090   -5.8890 O.3   1426  BMA1426    -0.2176
     10  O5        20.0000   36.7300   -5.8690 O.3   1426  BMA1426    -0.3481
     11  O6        21.2190   36.4600   -3.3060 O.3   1426  BMA1426    -0.2176
@<TRIPOS>BOND
     1     1     2    1
     2     1    10    1
     3     2     3    1
     4     2     7    1
     5     3     8    1
     6     3     4    1
     7     9     4    1
     8    10     5    1
     9     4     5    1
    10     5     6    1
    11     6    11    1
