@<TRIPOS>MOLECULE
1oe0_TTP_A_1.pdb
 29 30 0 0 0
SMALL
GASTEIGER

@<TRIPOS>ATOM
      1  PA        35.4330   18.7970   12.6060 P.3   300  TTP300      0.2189
      2  O1A       35.1570   17.7200   13.5870 O.3   300  TTP300     -0.4371
      3  O2A       34.4440   19.8820   12.4700 O.2   300  TTP300     -0.5170
      4  O3A       36.8360   19.4510   12.9450 O.3   300  TTP300     -0.2700
      5  PB        37.5780   20.6840   12.2520 P.3   300  TTP300      0.2277
      6  O1B       38.9530   20.6350   12.7530 O.3   300  TTP300     -0.4368
      7  O2B       37.4070   20.5740   10.7740 O.2   300  TTP300     -0.5168
      8  O3B       36.8410   21.9350   12.8820 O.3   300  TTP300     -0.2258
      9  PG        37.2590   23.4690   13.3800 P.3   300  TTP300      0.5373
     10  O1G       37.7950   24.1860   12.2140 O.2   300  TTP300     -0.2221
     11  O2G       36.0730   24.0870   14.0300 O.3   300  TTP300     -0.1143
     12  O3G       38.3970   23.2400   14.4560 O.3   300  TTP300     -0.1143
     13  O5'       35.6030   18.2100   11.1390 O.3   300  TTP300     -0.3112
     14  C5'       36.8320   17.4690   10.8220 C.3   300  TTP300      0.1812
     15  C4'       36.6230   16.5850    9.5580 C.3   300  TTP300      0.1773
     16  O4'       36.0330   15.3700    9.9890 O.3   300  TTP300     -0.3339
     17  C3'       35.6490   17.1700    8.5370 C.3   300  TTP300      0.1857
     18  O3'       36.1330   16.9090    7.2170 O.3   300  TTP300     -0.2203
     19  C2'       34.3000   16.4920    8.8610 C.3   300  TTP300      0.0874
     20  C1'       34.7830   15.1510    9.3970 C.3   300  TTP300      0.2090
     21  N1        33.9190   14.5340   10.5080 N.am  300  TTP300     -0.1794
     22  C2        33.1000   13.4460   10.0080 C.1   300  TTP300      0.2844
     23  O2        33.1160   13.0790    8.8110 O.2   300  TTP300     -0.1918
     24  N3        32.3070   12.7900   10.9270 N.2   300  TTP300     -0.2455
     25  C4        32.2580   13.1510   12.2180 C.1   300  TTP300      0.2134
     26  O4        31.4400   12.4240   12.9980 O.2   300  TTP300     -0.2088
     27  C5        33.0670   14.2540   12.7400 C.2   300  TTP300      0.0891
     28  C5M       33.0130   14.6630   14.1930 C.3   300  TTP300      0.0462
     29  C6        33.8480   14.8910   11.8340 C.2   300  TTP300      0.0877
@<TRIPOS>BOND
     1    18    17    1
     2    17    19    1
     3    17    15    1
     4    23    22    2
     5    19    20    1
     6    20    16    1
     7    20    21    1
     8    15    16    1
     9    15    14    1
    10    22    21   am
    11    22    24    2
    12    21    29    1
    13     7     5    2
    14    14    13    1
    15    24    25    2
    16    13     1    1
    17    29    27    2
    18    10     9    2
    19    25    27    1
    20    25    26    2
    21     5     6    1
    22     5     8    1
    23     5     4    1
    24     3     1    2
    25     1     4    1
    26     1     2    1
    27    27    28    1
    28     8     9    1
    29     9    11    1
    30     9    12    1
