@<TRIPOS>MOLECULE
1oe4_3DR_F_1.pdb
 11 11 0 0 0
SMALL
GASTEIGER

@<TRIPOS>ATOM
      1  O5'       22.4660   30.4840   40.6830 O.3   299  3DR299     -0.2926
      2  P         21.8170   31.4750   39.6040 P.3   299  3DR299      0.3942
      3  OP1       21.5920   30.8060   38.3090 O.3   299  3DR299     -0.1425
      4  OP2       20.6930   32.1540   40.2800 O.3   299  3DR299     -0.1425
      5  C2'       26.8050   28.8100   39.8340 C.3   299  3DR299      0.0676
      6  C5'       23.1620   29.2970   40.3180 C.3   299  3DR299      0.1828
      7  C4'       24.5650   29.5870   39.8190 C.3   299  3DR299      0.1754
      8  O4'       25.3010   30.3050   40.8460 O.3   299  3DR299     -0.3510
      9  C1'       26.5640   29.6910   41.0450 C.3   299  3DR299      0.1450
     10  C3'       25.3900   28.3400   39.5410 C.3   299  3DR299      0.1839
     11  O3'       25.2390   27.9000   38.1990 O.3   299  3DR299     -0.2204
@<TRIPOS>BOND
     1    11    10    1
     2     3     2    1
     3    10     7    1
     4    10     5    1
     5     2     4    1
     6     2     1    1
     7     7     6    1
     8     7     8    1
     9     5     9    1
    10     6     1    1
    11     8     9    1
