@<TRIPOS>MOLECULE
1oe5_3DR_F_1.pdb
 11 11 0 0 0
SMALL
GASTEIGER

@<TRIPOS>ATOM
      1  O5'       21.8500   30.5080   40.5270 O.3   399  3DR399     -0.2823
      2  P         21.2300   31.5960   39.5100 P.3   399  3DR399      0.4718
      3  OP1       21.2040   31.0560   38.1320 O.2   399  3DR399     -0.2429
      4  OP2       20.1550   32.3910   40.1880 O.3   399  3DR399     -0.1310
      5  C2'       26.2250   28.9270   39.6980 C.3   399  3DR399      0.0676
      6  C5'       22.5750   29.3280   40.1530 C.3   399  3DR399      0.1839
      7  C4'       24.0480   29.5850   39.8510 C.3   399  3DR399      0.1754
      8  O4'       24.7240   29.9420   41.1130 O.3   399  3DR399     -0.3510
      9  C1'       25.9450   29.2480   41.1700 C.3   399  3DR399      0.1450
     10  C3'       24.8470   28.3860   39.3300 C.3   399  3DR399      0.1839
     11  O3'       24.6760   27.9080   37.9030 O.3   399  3DR399     -0.2204
@<TRIPOS>BOND
     1    11    10    1
     2     3     2    2
     3    10     5    1
     4    10     7    1
     5     2     4    1
     6     2     1    1
     7     5     9    1
     8     7     6    1
     9     7     8    1
    10     6     1    1
    11     8     9    1
