@<TRIPOS>MOLECULE
1oe6_HMU_A_1.pdb
 10 10 0 0 0
SMALL
GASTEIGER

@<TRIPOS>ATOM
      1  N1         4.3480   20.9780   42.9670 N.2   1282  HMU1282    -0.1473
      2  C2         4.2560   22.3410   42.5220 C.1   1282  HMU1282     0.3110
      3  O2         5.1670   23.2740   42.9470 O.2   1282  HMU1282    -0.1878
      4  N3         3.1430   22.5280   41.6260 N.2   1282  HMU1282    -0.2425
      5  C4         2.2500   21.4960   41.2140 C.1   1282  HMU1282     0.2164
      6  O3         1.1610   18.8090   39.9440 O.3   1282  HMU1282    -0.2143
      7  O4         1.3110   21.6510   40.3790 O.2   1282  HMU1282    -0.2087
      8  C5         2.4210   20.0860   41.7010 C.2   1282  HMU1282     0.1261
      9  CM5        1.5230   18.8690   41.2870 C.3   1282  HMU1282     0.2227
     10  C6         3.4970   19.9200   42.6260 C.2   1282  HMU1282     0.1244
@<TRIPOS>BOND
     1     6     9    1
     2     7     5    2
     3     5     4    2
     4     5     8    1
     5     9     8    1
     6     4     2    2
     7     8    10    2
     8     2     3    2
     9     2     1    2
    10    10     1    1
