@<TRIPOS>MOLECULE
1oe6_3DR_F_1.pdb
 11 11 0 0 0
SMALL
GASTEIGER

@<TRIPOS>ATOM
      1  O5'       21.8030   30.4930   40.1920 O.3   299  3DR299     -0.2926
      2  P         21.7920   31.8040   39.1970 P.3   299  3DR299      0.3942
      3  OP1       21.8860   31.3620   37.7890 O.3   299  3DR299     -0.1425
      4  OP2       20.6150   32.5340   39.7650 O.3   299  3DR299     -0.1425
      5  C2'       26.5100   29.3500   39.8120 C.3   299  3DR299      0.0676
      6  C5'       22.8840   29.4180   40.4060 C.3   299  3DR299      0.1828
      7  C4'       24.2500   29.7790   39.8230 C.3   299  3DR299      0.1754
      8  O4'       24.9060   30.4940   40.9490 O.3   299  3DR299     -0.3510
      9  C1'       26.1200   29.8220   41.2240 C.3   299  3DR299      0.1450
     10  C3'       25.1980   28.6500   39.3630 C.3   299  3DR299      0.1839
     11  O3'       25.2040   28.1650   37.8840 O.3   299  3DR299     -0.2204
@<TRIPOS>BOND
     1     3     2    1
     2    11    10    1
     3     2     4    1
     4     2     1    1
     5    10     5    1
     6    10     7    1
     7     5     9    1
     8     7     6    1
     9     7     8    1
    10     1     6    1
    11     8     9    1
