@<TRIPOS>MOLECULE
1oe7_GSH_A_1.pdb
 20 19 0 0 0
SMALL
GASTEIGER

@<TRIPOS>ATOM
      1  N1        14.8630   -4.0250   22.4510 N.3   301  GSH301     -0.1208
      2  CA1       14.3820   -2.6530   22.7040 C.3   301  GSH301      0.1948
      3  C1        14.5290   -1.8350   21.3620 C.2   301  GSH301      0.3819
      4  O11       13.8360   -0.8410   21.2000 O.co2 301  GSH301     -0.2441
      5  O12       15.4300   -2.2800   20.5380 O.co2 301  GSH301     -0.2441
      6  CB1       15.3560   -2.0310   23.7310 C.3   301  GSH301      0.0402
      7  CG1       14.9450   -0.6290   24.2850 C.3   301  GSH301      0.0889
      8  CD1       16.0630   -0.3190   25.3160 C.2   301  GSH301      0.2418
      9  OE1       16.7630   -1.2510   25.8620 O.2   301  GSH301     -0.2733
     10  N2        16.2560    0.9790   25.5300 N.am  301  GSH301     -0.1968
     11  CA2       17.2210    1.4140   26.5010 C.3   301  GSH301      0.1843
     12  C2        16.5470    2.4560   27.4640 C.2   301  GSH301      0.2627
     13  O2        15.5230    3.0980   27.1510 O.2   301  GSH301     -0.2714
     14  CB2       18.3580    2.1160   25.7350 C.3   301  GSH301      0.0997
     15  SG2       18.4730    1.9460   23.9020 S.3   301  GSH301     -0.0797
     16  N3        17.0560    2.6520   28.7280 N.am  301  GSH301     -0.1917
     17  CA3       16.5370    3.6630   29.6770 C.3   301  GSH301      0.2285
     18  C3        15.4590    3.3710   30.6740 C.2   301  GSH301      0.3865
     19  O31       15.3110    3.9700   31.8100 O.co2 301  GSH301     -0.2437
     20  O32       14.7130    2.4660   30.2070 O.co2 301  GSH301     -0.2437
@<TRIPOS>BOND
     1     5     3   ar
     2     4     3   ar
     3     3     2    1
     4     1     2    1
     5     2     6    1
     6     6     7    1
     7    15    14    1
     8     7     8    1
     9     8    10   am
    10     8     9    2
    11    10    11    1
    12    14    11    1
    13    11    12    1
    14    13    12    2
    15    12    16   am
    16    16    17    1
    17    17    18    1
    18    20    18   ar
    19    18    19   ar
