@<TRIPOS>MOLECULE
1oe8_GSH_A_1.pdb
 20 19 0 0 0
SMALL
GASTEIGER

@<TRIPOS>ATOM
      1  N1        15.0660   -4.0860   22.2650 N.3   301  GSH301     -0.1208
      2  CA1       14.6520   -2.6740   22.7050 C.3   301  GSH301      0.1948
      3  C1        14.7280   -1.8090   21.3790 C.2   301  GSH301      0.3819
      4  O11       14.0200   -0.8370   21.1870 O.co2 301  GSH301     -0.2441
      5  O12       15.5450   -2.3440   20.5710 O.co2 301  GSH301     -0.2441
      6  CB1       15.7730   -2.1280   23.6290 C.3   301  GSH301      0.0402
      7  CG1       15.3630   -0.7590   24.2500 C.3   301  GSH301      0.0889
      8  CD1       16.3750   -0.3640   25.3180 C.2   301  GSH301      0.2418
      9  OE1       17.1410   -1.1950   25.9190 O.2   301  GSH301     -0.2733
     10  N2        16.4990    0.9440   25.5880 N.am  301  GSH301     -0.1968
     11  CA2       17.4370    1.2270   26.6510 C.3   301  GSH301      0.1843
     12  C2        16.6940    2.3350   27.5300 C.2   301  GSH301      0.2627
     13  O2        15.7380    2.9700   27.1000 O.2   301  GSH301     -0.2714
     14  CB2       18.6290    2.0520   26.0840 C.3   301  GSH301      0.0997
     15  SG2       19.4780    1.0670   24.8360 S.3   301  GSH301     -0.0797
     16  N3        17.2050    2.5640   28.7640 N.am  301  GSH301     -0.1917
     17  CA3       16.5300    3.5880   29.5800 C.3   301  GSH301      0.2285
     18  C3        15.6780    2.9400   30.6650 C.2   301  GSH301      0.3865
     19  O31       15.2190    3.7020   31.5620 O.co2 301  GSH301     -0.2437
     20  O32       15.5390    1.6870   30.6260 O.co2 301  GSH301     -0.2437
@<TRIPOS>BOND
     1     5     3   ar
     2     4     3   ar
     3     3     2    1
     4     1     2    1
     5     2     6    1
     6     6     7    1
     7     7     8    1
     8    15    14    1
     9     8    10   am
    10     8     9    2
    11    10    11    1
    12    14    11    1
    13    11    12    1
    14    13    12    2
    15    12    16   am
    16    16    17    1
    17    17    18    1
    18    20    18   ar
    19    18    19   ar
