@<TRIPOS>MOLECULE
1oec_AA2_A_1.pdb
 32 35 0 0 0
SMALL
GASTEIGER

@<TRIPOS>ATOM
      1  N1       -16.0430   67.5960    0.0070 N.2   789  AA2789     -0.1674
      2  C2       -14.9060   68.1570    0.4980 C.1   789  AA2789      0.1697
      3  N3       -13.7880   67.3750    0.6480 N.2   789  AA2789     -0.3353
      4  C4       -13.7920   66.0370    0.3070 C.2   789  AA2789      0.1561
      5  C5       -14.9950   65.4570   -0.2180 C.2   789  AA2789      0.1080
      6  C6       -16.1120   66.2900   -0.3460 C.2   789  AA2789      0.1257
      7  C7       -12.5270   65.2620    0.5220 C.ar  789  AA2789      0.0314
      8  C8       -11.2840   65.9070    0.4160 C.ar  789  AA2789      0.0023
      9  C9       -10.0920   65.1810    0.6270 C.ar  789  AA2789     -0.0028
     10  C10      -10.1160   63.8030    0.9490 C.ar  789  AA2789     -0.0065
     11  C11      -11.3740   63.1680    1.0520 C.ar  789  AA2789     -0.0028
     12  C12      -12.5600   63.8880    0.8430 C.ar  789  AA2789      0.0023
     13  C13      -13.9180   70.2780    1.3080 C.ar  789  AA2789      0.0826
     14  C14      -14.1230   71.6730    1.4500 C.ar  789  AA2789      0.0170
     15  C15      -13.1050   72.5090    1.9450 C.ar  789  AA2789     -0.0029
     16  C16      -11.8630   71.9680    2.3090 C.ar  789  AA2789     -0.0207
     17  C17      -11.6660   70.5920    2.1700 C.ar  789  AA2789     -0.0029
     18  C18      -12.6780   69.7510    1.6760 C.ar  789  AA2789      0.0170
     19  N19      -14.9440   69.5030    0.8180 N.pl3 789  AA2789     -0.1358
     20 CL20      -15.1300   63.7750   -0.6960 Cl    789  AA2789     -0.0779
     21  C21       -8.7620   63.0560    1.1670 C.3   789  AA2789      0.0958
     22  C22       -7.5550   63.9920    1.5000 C.3   789  AA2789      0.0236
     23  C23       -8.9500   62.0240    2.3120 C.3   789  AA2789      0.0236
     24  N24       -8.4650   62.3150   -0.0830 N.3   789  AA2789     -0.1299
     25  C25      -10.7290   72.8590    2.8540 C.3   789  AA2789      0.0437
     26  C26       -9.6030   72.9590    1.7790 C.3   789  AA2789      0.0769
     27  N27       -8.4440   73.8000    2.2160 N.3   789  AA2789     -0.2681
     28  C28       -8.8180   74.9450    3.1020 C.3   789  AA2789      0.1046
     29  C29       -7.5570   75.7580    3.5140 C.3   789  AA2789      0.1595
     30  O30       -6.8660   76.2460    2.3490 O.3   789  AA2789     -0.3508
     31  C31       -6.4440   75.1740    1.4830 C.3   789  AA2789      0.1595
     32  C32       -7.6620   74.3090    1.0340 C.3   789  AA2789      0.1046
@<TRIPOS>BOND
     1    20     5    1
     2     6     5    2
     3     6     1    1
     4     5     4    1
     5    24    21    1
     6     1     2    2
     7     4     7    1
     8     4     3    2
     9     8     7   ar
    10     8     9   ar
    11     2     3    2
    12     2    19    1
    13     7    12   ar
    14     9    10   ar
    15    19    13    1
    16    12    11   ar
    17    10    11   ar
    18    10    21    1
    19    32    31    1
    20    32    27    1
    21    21    22    1
    22    21    23    1
    23    13    14   ar
    24    13    18   ar
    25    14    15   ar
    26    31    30    1
    27    18    17   ar
    28    26    27    1
    29    26    25    1
    30    15    16   ar
    31    17    16   ar
    32    27    28    1
    33    16    25    1
    34    30    29    1
    35    28    29    1
