@<TRIPOS>MOLECULE
1of0_EBS_A_1.pdb
 32 35 0 0 0
SMALL
GASTEIGER

@<TRIPOS>ATOM
      1  C1        -0.3210   33.1190   39.6930 C.ar  1518  EBS1518     0.0427
      2  C2         0.2470   33.7330   40.8380 C.ar  1518  EBS1518     0.0553
      3  C3         0.4210   32.0750   38.9770 C.ar  1518  EBS1518     0.0264
      4  C4         1.5990   33.3320   41.3190 C.ar  1518  EBS1518     0.0164
      5  C5         1.7290   31.6870   39.4550 C.ar  1518  EBS1518     0.1129
      6  C6         2.3160   32.3140   40.6200 C.ar  1518  EBS1518     0.0202
      7  N7        -0.6420   34.7280   41.4170 N.pl3 1518  EBS1518    -0.2850
      8  C8        -1.8510   34.8010   40.6500 C.3   1518  EBS1518     0.2197
      9  S9        -1.9330   33.7330   39.2830 S.3   1518  EBS1518    -0.0739
     10  C10       -6.7780   34.2430   43.2900 C.ar  1518  EBS1518     0.0427
     11  C11       -6.2310   35.4330   43.8810 C.ar  1518  EBS1518     0.0553
     12  C12       -7.7830   33.4750   43.9800 C.ar  1518  EBS1518     0.0264
     13  C13       -6.7010   35.8710   45.2030 C.ar  1518  EBS1518     0.0164
     14  C14       -8.2340   33.9350   45.3010 C.ar  1518  EBS1518     0.1129
     15  C15       -7.6930   35.1230   45.9040 C.ar  1518  EBS1518     0.0202
     16  N16       -5.1640   36.1560   43.0280 N.pl3 1518  EBS1518    -0.2850
     17  C17       -5.0740   35.2500   41.7320 C.3   1518  EBS1518     0.2197
     18  S18       -6.1350   33.8290   41.7100 S.3   1518  EBS1518    -0.0739
     19  N19       -4.2460   35.5380   40.6980 N.3   1518  EBS1518    -0.0979
     20  N20       -2.8200   35.6300   40.9840 N.3   1518  EBS1518    -0.0979
     21  C21       -3.6760   36.1520   43.7000 C.3   1518  EBS1518     0.0929
     22  C22       -3.4610   36.6960   45.1350 C.3   1518  EBS1518     0.0232
     23  S23       -9.4520   33.0550   46.2040 S.3   1518  EBS1518     0.0421
     24  C24       -0.3460   35.5690   42.6580 C.3   1518  EBS1518     0.0929
     25  C25       -0.4440   34.7430   43.9520 C.3   1518  EBS1518     0.0232
     26  S26        2.6220   30.4100   38.6090 S.3   1518  EBS1518     0.0421
     27  O39       -9.7940   33.9130   47.9000 O.3   1518  EBS1518    -0.0650
     28  O45        1.9460   28.7550   38.9050 O.3   1518  EBS1518    -0.0650
     29  O46        4.0150   29.6770   37.5700 O.3   1518  EBS1518    -0.0650
     30  O47        3.8210   31.8500   38.3740 O.3   1518  EBS1518    -0.0650
     31  O48      -10.4570   32.8540   44.5190 O.3   1518  EBS1518    -0.0650
     32  O49      -11.0210   32.2050   46.6140 O.3   1518  EBS1518    -0.0650
@<TRIPOS>BOND
     1    29    26    1
     2    30    26    1
     3    26    28    1
     4    26     5    1
     5     3     5   ar
     6     3     1   ar
     7     9     1    1
     8     9     8    1
     9     5     6   ar
    10     1     2   ar
    11     6     4   ar
    12     8    20    1
    13     8     7    1
    14    19    20    1
    15    19    17    1
    16     2     4   ar
    17     2     7    1
    18     7    24    1
    19    18    17    1
    20    18    10    1
    21    17    16    1
    22    24    25    1
    23    16    21    1
    24    16    11    1
    25    10    11   ar
    26    10    12   ar
    27    21    22    1
    28    11    13   ar
    29    12    14   ar
    30    31    23    1
    31    13    15   ar
    32    14    15   ar
    33    14    23    1
    34    23    32    1
    35    23    27    1
