@<TRIPOS>MOLECULE
1of1_SCT_A_1.pdb
 18 20 0 0 0
SMALL
GASTEIGER

@<TRIPOS>ATOM
      1  O16       49.7180   35.6760    0.6630 O.3   400  SCT400     -0.2203
      2  O18       50.4150   32.6860   -2.5090 O.3   400  SCT400     -0.2230
      3  O9        45.4000   32.0820   -1.2170 O.2   400  SCT400     -0.1919
      4  O7        43.1150   34.5020    1.7400 O.2   400  SCT400     -0.2088
      5  N8        46.5610   33.5580    0.0130 N.am  400  SCT400     -0.2069
      6  N5        44.2620   33.2800    0.2470 N.2   400  SCT400     -0.2456
      7  C1        50.3020   33.4280   -0.1460 C.3   400  SCT400      0.0651
      8  C10       50.0330   33.7640   -1.6300 C.3   400  SCT400      0.1562
      9  C14       48.5050   34.0580   -1.7010 C.3   400  SCT400      0.0523
     10  C17       47.8420   33.1480   -0.6370 C.3   400  SCT400      0.0764
     11  C13       49.0010   32.7070    0.3640 C.3   400  SCT400      0.0245
     12  C12       50.7220   34.6430    0.7200 C.3   400  SCT400      0.1846
     13  C11       45.4210   32.9540   -0.3450 C.1   400  SCT400      0.2825
     14  C15       48.2540   31.6380   -0.4010 C.3   400  SCT400      0.0212
     15  C6        44.1850   34.2100    1.1930 C.1   400  SCT400      0.2134
     16  C4        45.4420   34.9180    1.5980 C.2   400  SCT400      0.0890
     17  C2        46.5740   34.5180    0.9540 C.2   400  SCT400      0.0852
     18  C3        45.4240   35.9980    2.6630 C.3   400  SCT400      0.0462
@<TRIPOS>BOND
     1     2     8    1
     2     9     8    1
     3     9    10    1
     4     8     7    1
     5     3    13    2
     6    10    14    1
     7    10     5    1
     8    10    11    1
     9    14    11    1
    10    13     5   am
    11    13     6    2
    12     7    11    1
    13     7    12    1
    14     5    17    1
    15     6    15    2
    16     1    12    1
    17    17    16    2
    18    15    16    1
    19    15     4    2
    20    16    18    1
