@<TRIPOS>MOLECULE
1of4_BMA_A_1.pdb
 11 11 0 0 0
SMALL
GASTEIGER

@<TRIPOS>ATOM
      1  C1        20.5410   20.0780   -0.9730 C.3   1175  BMA1175     0.1777
      2  C2        19.4700   19.0390   -1.2260 C.3   1175  BMA1175     0.2141
      3  C3        18.1890   19.7030   -1.6560 C.3   1175  BMA1175     0.2173
      4  C4        17.8370   20.8110   -0.6470 C.3   1175  BMA1175     0.2142
      5  C5        18.9870   21.7720   -0.3840 C.3   1175  BMA1175     0.1810
      6  C6        18.6410   22.7500    0.7420 C.3   1175  BMA1175     0.2141
      7  O2        19.2520   18.2200   -0.0910 O.3   1175  BMA1175    -0.2176
      8  O3        17.1790   18.7230   -1.8070 O.3   1175  BMA1175    -0.2175
      9  O4        16.8480   21.5830   -1.2340 O.3   1175  BMA1175    -0.2176
     10  O5        20.1730   21.0950   -0.0210 O.3   1175  BMA1175    -0.3481
     11  O6        19.6830   23.6860    0.9390 O.3   1175  BMA1175    -0.2176
@<TRIPOS>BOND
     1     8     3    1
     2     3     2    1
     3     3     4    1
     4     9     4    1
     5     2     1    1
     6     2     7    1
     7     1    10    1
     8     4     5    1
     9     5    10    1
    10     5     6    1
    11     6    11    1
