@<TRIPOS>MOLECULE
1of6_DTY_A_1.pdb
 13 13 0 0 0
SMALL
GASTEIGER

@<TRIPOS>ATOM
      1  N         30.6770   -3.3700   50.5160 N.3   1370  DTY1370    -0.1205
      2  CA        31.3780   -3.1310   49.2550 C.3   1370  DTY1370     0.1986
      3  C         31.9670   -4.4050   48.6940 C.2   1370  DTY1370     0.3822
      4  O         32.0170   -5.4920   49.3380 O.co2 1370  DTY1370    -0.2440
      5  CB        32.4890   -2.1160   49.5260 C.3   1370  DTY1370     0.0566
      6  CG        32.0300   -0.7150   49.8830 C.2   1370  DTY1370    -0.0239
      7  CD1       32.2930   -0.2240   51.1250 C.2   1370  DTY1370    -0.0222
      8  CD2       31.3170    0.0570   48.9730 C.2   1370  DTY1370    -0.0016
      9  CE1       31.8570    1.0320   51.4460 C.3   1370  DTY1370     0.0948
     10  CE2       30.9070    1.3420   49.2730 C.2   1370  DTY1370     0.0375
     11  CZ        31.2050    1.8270   50.5410 C.2   1370  DTY1370     0.1775
     12  OH        30.8150    2.9790   50.9180 O.2   1370  DTY1370    -0.2910
     13  OXT       32.3720   -4.3160   47.5370 O.co2 1370  DTY1370    -0.2440
@<TRIPOS>BOND
     1    13     3   ar
     2     3     2    1
     3     3     4   ar
     4     8    10    2
     5     8     6    1
     6     2     5    1
     7     2     1    1
     8    10    11    1
     9     5     6    1
    10     6     7    2
    11    11    12    2
    12    11     9    1
    13     7     9    1
