@<TRIPOS>MOLECULE
1of8_G3P_A_1.pdb
 10 9 0 0 0
SMALL
GASTEIGER

@<TRIPOS>ATOM
      1  O1       155.8810   33.2460   24.3540 O.3   1371  G3P1371    -0.2175
      2  C1       154.9230   32.8910   23.3620 C.3   1371  G3P1371     0.2174
      3  C2       153.7040   33.7930   23.4860 C.3   1371  G3P1371     0.2147
      4  O2       152.5540   33.2080   22.8780 O.3   1371  G3P1371    -0.2176
      5  C3       154.0870   35.1240   22.8500 C.3   1371  G3P1371     0.1892
      6  O1P      153.3890   36.1380   23.5440 O.3   1371  G3P1371    -0.2674
      7  O4P      152.4830   38.4500   23.8920 O.3   1371  G3P1371    -0.1145
      8  O2P      152.7370   37.6180   21.6090 O.2   1371  G3P1371    -0.2224
      9  O3P      154.8050   38.1390   22.9530 O.3   1371  G3P1371    -0.1145
     10  P        153.3740   37.6250   22.9630 P.3   1371  G3P1371     0.5327
@<TRIPOS>BOND
     1     8    10    2
     2     5     3    1
     3     5     6    1
     4     4     3    1
     5     9    10    1
     6    10     6    1
     7    10     7    1
     8     2     3    1
     9     2     1    1
