@<TRIPOS>MOLECULE
1of8_PEP_A_1.pdb
 10 9 0 0 0
SMALL
GASTEIGER

@<TRIPOS>ATOM
      1  C1       155.2560   27.4520   23.8070 C.2   1370  PEP1370     0.4216
      2  O1       155.2940   27.8770   24.9600 O.co2 1370  PEP1370    -0.2371
      3  O2'      155.0360   26.2320   23.5460 O.co2 1370  PEP1370    -0.2371
      4  C2       155.4880   28.5160   22.8020 C.2   1370  PEP1370     0.2283
      5  C3       156.0970   29.7030   22.8720 C.2   1370  PEP1370     0.0477
      6  O2       154.9430   28.0100   21.5730 O.2   1370  PEP1370    -0.3930
      7  P        155.2360   28.4940   20.0670 P.3   1370  PEP1370     0.5889
      8  O1P      154.5460   29.8220   19.8910 O.3   1370  PEP1370    -0.1039
      9  O2P      156.7320   28.5470   19.8870 O.3   1370  PEP1370    -0.1039
     10  O3P      154.5550   27.4110   19.2670 O.2   1370  PEP1370    -0.2114
@<TRIPOS>BOND
     1    10     7    2
     2     9     7    1
     3     8     7    1
     4     7     6    1
     5     6     4    1
     6     4     5    2
     7     4     1    1
     8     3     1   ar
     9     1     2   ar
