@<TRIPOS>MOLECULE
1ofa_PEP_A_1.pdb
 10 9 0 0 0
SMALL
GASTEIGER

@<TRIPOS>ATOM
      1  C1       104.8230   16.5850   60.0360 C.2   508  PEP508      0.4216
      2  O1       103.6600   16.1880   60.1550 O.co2 508  PEP508     -0.2371
      3  O2'      105.1250   17.7370   60.3100 O.co2 508  PEP508     -0.2371
      4  C2       105.9340   15.6680   59.5420 C.2   508  PEP508      0.2283
      5  C3       105.6280   14.4150   59.1020 C.2   508  PEP508      0.0477
      6  O2       107.2480   16.2490   59.6410 O.2   508  PEP508     -0.3930
      7  P        108.4020   15.6160   58.9290 P.3   508  PEP508      0.5889
      8  O1P      108.8520   14.4370   59.5400 O.3   508  PEP508     -0.1039
      9  O2P      108.1940   15.5750   57.4460 O.2   508  PEP508     -0.2114
     10  O3P      109.3890   16.6790   59.1930 O.3   508  PEP508     -0.1039
@<TRIPOS>BOND
     1     9     7    2
     2     7    10    1
     3     7     8    1
     4     7     6    1
     5     5     4    2
     6     4     6    1
     7     4     1    1
     8     1     2   ar
     9     1     3   ar
