@<TRIPOS>MOLECULE
1ofc_GLC_X_1.pdb
 12 12 0 0 0
SMALL
GASTEIGER

@<TRIPOS>ATOM
      1  C1        32.2230   30.4360   18.2300 C.3   1978  GLC1978     0.3024
      2  C2        32.7800   29.4830   19.2820 C.3   1978  GLC1978     0.2434
      3  C3        31.7220   28.5730   19.8850 C.3   1978  GLC1978     0.2199
      4  C4        30.5700   29.4060   20.3940 C.3   1978  GLC1978     0.2144
      5  C5        30.1190   30.4690   19.3590 C.3   1978  GLC1978     0.1836
      6  C6        29.1710   31.5230   19.9340 C.3   1978  GLC1978     0.2142
      7  O1        31.6560   29.7240   17.1370 O.3   1978  GLC1978    -0.1869
      8  O2        33.7080   28.7130   18.6040 O.3   1978  GLC1978    -0.2148
      9  O3        32.2810   27.9330   21.0050 O.3   1978  GLC1978    -0.2174
     10  O4        29.5190   28.5130   20.7080 O.3   1978  GLC1978    -0.2176
     11  O5        31.2140   31.2020   18.8470 O.3   1978  GLC1978    -0.3236
     12  O6        28.4280   31.0010   20.9990 O.3   1978  GLC1978    -0.2176
@<TRIPOS>BOND
     1     7     1    1
     2     1    11    1
     3     1     2    1
     4     8     2    1
     5    11     5    1
     6     2     3    1
     7     5     6    1
     8     5     4    1
     9     3     4    1
    10     3     9    1
    11     6    12    1
    12     4    10    1
