@<TRIPOS>MOLECULE
1ofd_AKG_A_1.pdb
 10 9 0 0 0
SMALL
GASTEIGER

@<TRIPOS>ATOM
      1  C1        56.3910  113.7290   16.2820 C.2   3510  AKG3510     0.3946
      2  O1        56.5520  113.3480   17.5390 O.co2 3510  AKG3510    -0.2428
      3  O2        55.2090  114.1130   15.8760 O.co2 3510  AKG3510    -0.2428
      4  C2        57.5600  113.7090   15.2790 C.3   3510  AKG3510     0.2545
      5  O5        58.3290  112.6180   15.2190 O.3   3510  AKG3510    -0.2109
      6  C3        57.7680  114.9180   14.3940 C.3   3510  AKG3510     0.0565
      7  C4        58.9710  114.6630   13.5090 C.3   3510  AKG3510     0.1173
      8  C5        58.7730  115.2930   12.1580 C.2   3510  AKG3510     0.3650
      9  O3        59.6240  114.9850   11.2160 O.co2 3510  AKG3510    -0.2457
     10  O4        57.7730  116.1270   11.8490 O.co2 3510  AKG3510    -0.2457
@<TRIPOS>BOND
     1     9     8   ar
     2    10     8   ar
     3     8     7    1
     4     7     6    1
     5     6     4    1
     6     5     4    1
     7     4     1    1
     8     3     1   ar
     9     1     2   ar
