@<TRIPOS>MOLECULE
1ofd_FMN_A_1.pdb
 31 33 0 0 0
SMALL
GASTEIGER

@<TRIPOS>ATOM
      1  N1        59.3820  117.1540   20.0930 N.2   3508  FMN3508    -0.2887
      2  C2        60.4800  117.5250   19.3730 C.1   3508  FMN3508     0.3669
      3  O2        61.5320  117.7040   19.9630 O.2   3508  FMN3508    -0.1744
      4  N3        60.3900  117.7080   18.0100 N.2   3508  FMN3508    -0.2300
      5  C4        59.2170  117.4780   17.3140 C.1   3508  FMN3508     0.2513
      6  O4        59.0790  118.1430   16.2650 O.2   3508  FMN3508    -0.2057
      7  C4A       58.0930  117.1140   18.0580 C.2   3508  FMN3508     0.2706
      8  N5        56.8790  116.9090   17.4560 N.2   3508  FMN3508    -0.3841
      9  C5A       55.7300  116.8700   18.2390 C.2   3508  FMN3508     0.1452
     10  C6        54.4800  116.7760   17.6210 C.2   3508  FMN3508     0.0252
     11  C7        53.3340  116.5530   18.3860 C.2   3508  FMN3508    -0.0375
     12  C7M       51.9860  116.7420   17.7390 C.3   3508  FMN3508     0.0268
     13  C8        53.4360  116.4170   19.7720 C.3   3508  FMN3508     0.0417
     14  C8M       52.2460  116.6550   20.6570 C.3   3508  FMN3508     0.0091
     15  C9        54.6860  116.4830   20.3840 C.2   3508  FMN3508    -0.0049
     16  C9A       55.8350  116.7060   19.6320 C.2   3508  FMN3508     0.0795
     17  N10       57.0940  116.6050   20.2220 N.pl3 3508  FMN3508    -0.2545
     18  C10       58.1840  116.9510   19.4540 C.2   3508  FMN3508     0.2449
     19  C1'       57.2530  116.6360   21.7310 C.3   3508  FMN3508     0.1336
     20  C2'       57.0270  118.0330   22.3510 C.3   3508  FMN3508     0.2048
     21  O2'       58.1160  118.8630   22.0200 O.3   3508  FMN3508    -0.2185
     22  C3'       56.9480  118.0060   23.8880 C.3   3508  FMN3508     0.2165
     23  O3'       58.1870  117.5440   24.3920 O.3   3508  FMN3508    -0.2175
     24  C4'       55.7730  117.1990   24.4610 C.3   3508  FMN3508     0.2147
     25  O4'       54.5810  117.5240   23.7490 O.3   3508  FMN3508    -0.2176
     26  C5'       55.5880  117.4950   25.9580 C.3   3508  FMN3508     0.1892
     27  O5'       54.6260  116.6830   26.5780 O.3   3508  FMN3508    -0.2674
     28  P         53.0380  117.0250   26.6570 P.3   3508  FMN3508     0.5327
     29  O1P       52.4440  116.8510   25.2610 O.2   3508  FMN3508    -0.2224
     30  O2P       52.4980  116.0910   27.6440 O.3   3508  FMN3508    -0.1145
     31  O3P       52.8500  118.4810   27.0800 O.3   3508  FMN3508    -0.1145
@<TRIPOS>BOND
     1     6     5    2
     2     5     4    2
     3     5     7    1
     4     8     7    2
     5     8     9    2
     6    10     9    1
     7    10    11    2
     8    12    11    1
     9     4     2    2
    10     7    18    1
    11     9    16    1
    12    11    13    1
    13     2     3    2
    14     2     1    2
    15    18     1    2
    16    18    17    1
    17    16    17    1
    18    16    15    2
    19    13    15    1
    20    13    14    1
    21    17    19    1
    22    19    20    1
    23    21    20    1
    24    20    22    1
    25    25    24    1
    26    22    23    1
    27    22    24    1
    28    24    26    1
    29    29    28    2
    30    26    27    1
    31    27    28    1
    32    28    31    1
    33    28    30    1
