@<TRIPOS>MOLECULE
1ofe_FMN_A_1.pdb
 31 33 0 0 0
SMALL
GASTEIGER

@<TRIPOS>ATOM
      1  N1         1.1560   37.9990   20.6170 N.2   2508  FMN2508    -0.2887
      2  C2         2.2700   38.4830   19.9450 C.1   2508  FMN2508     0.3669
      3  O2         3.3470   38.6610   20.5470 O.2   2508  FMN2508    -0.1744
      4  N3         2.1980   38.8130   18.5840 N.2   2508  FMN2508    -0.2300
      5  C4         1.1090   38.4700   17.8140 C.1   2508  FMN2508     0.2513
      6  O4         1.0300   39.0740   16.7280 O.2   2508  FMN2508    -0.2057
      7  C4A       -0.0530   38.1510   18.5420 C.2   2508  FMN2508     0.2706
      8  N5        -1.2320   37.9470   17.8950 N.2   2508  FMN2508    -0.3841
      9  C5A       -2.4190   37.9010   18.6290 C.2   2508  FMN2508     0.1452
     10  C6        -3.6320   37.8550   17.9170 C.2   2508  FMN2508     0.0252
     11  C7        -4.8310   37.6370   18.5770 C.2   2508  FMN2508    -0.0375
     12  C7M       -6.1150   37.9850   17.8590 C.3   2508  FMN2508     0.0268
     13  C8        -4.7890   37.4610   19.9720 C.3   2508  FMN2508     0.0417
     14  C8M       -6.0690   37.5750   20.7430 C.3   2508  FMN2508     0.0091
     15  C9        -3.5690   37.5070   20.6710 C.2   2508  FMN2508    -0.0049
     16  C9A       -2.3680   37.7290   20.0120 C.2   2508  FMN2508     0.0795
     17  N10       -1.1320   37.3950   20.5610 N.pl3 2508  FMN2508    -0.2545
     18  C10       -0.0040   37.8230   19.8940 C.2   2508  FMN2508     0.2449
     19  C1'       -0.9320   37.3380   22.0560 C.3   2508  FMN2508     0.1336
     20  C2'       -1.2730   38.6760   22.7000 C.3   2508  FMN2508     0.2048
     21  O2'       -0.3020   39.6020   22.3000 O.3   2508  FMN2508    -0.2185
     22  C3'       -1.2610   38.6560   24.2290 C.3   2508  FMN2508     0.2165
     23  O3'       -0.0270   38.1310   24.6130 O.3   2508  FMN2508    -0.2175
     24  C4'       -2.3800   37.8010   24.8120 C.3   2508  FMN2508     0.2147
     25  O4'       -3.5420   37.9030   23.9990 O.3   2508  FMN2508    -0.2176
     26  C5'       -2.7760   38.2290   26.2260 C.3   2508  FMN2508     0.1892
     27  O5'       -3.6520   37.2340   26.7810 O.3   2508  FMN2508    -0.2674
     28  P         -5.2570   37.5710   26.8000 P.3   2508  FMN2508     0.5327
     29  O1P       -5.7370   37.3680   25.3180 O.2   2508  FMN2508    -0.2224
     30  O2P       -5.9770   36.6540   27.6980 O.3   2508  FMN2508    -0.1145
     31  O3P       -5.4520   39.0520   27.1560 O.3   2508  FMN2508    -0.1145
@<TRIPOS>BOND
     1     6     5    2
     2     5     7    1
     3     5     4    2
     4    12    11    1
     5     8     7    2
     6     8     9    2
     7    10    11    2
     8    10     9    1
     9     7    18    1
    10    11    13    1
    11     4     2    2
    12     9    16    1
    13    18    17    1
    14    18     1    2
    15     2     3    2
    16     2     1    2
    17    13    15    1
    18    13    14    1
    19    16    17    1
    20    16    15    2
    21    17    19    1
    22    19    20    1
    23    21    20    1
    24    20    22    1
    25    25    24    1
    26    22    23    1
    27    22    24    1
    28    24    26    1
    29    29    28    2
    30    26    27    1
    31    27    28    1
    32    28    31    1
    33    28    30    1
