@<TRIPOS>MOLECULE
1ofe_AKG_A_1.pdb
 10 9 0 0 0
SMALL
GASTEIGER

@<TRIPOS>ATOM
      1  C1        -1.7580   34.9210   16.4400 C.2   2510  AKG2510     0.3946
      2  O1        -1.5170   34.3510   17.6480 O.co2 2510  AKG2510    -0.2428
      3  O2        -2.9580   35.2560   15.9280 O.co2 2510  AKG2510    -0.2428
      4  C2        -0.4870   35.1640   15.5620 C.3   2510  AKG2510     0.2545
      5  O5         0.4840   34.2200   15.7140 O.3   2510  AKG2510    -0.2109
      6  C3        -0.3150   36.3370   14.6060 C.3   2510  AKG2510     0.0565
      7  C4         0.6930   35.7040   13.6360 C.3   2510  AKG2510     0.1173
      8  C5         0.8010   36.4710   12.3520 C.2   2510  AKG2510     0.3650
      9  O3         1.7560   36.2160   11.4910 O.co2 2510  AKG2510    -0.2457
     10  O4         0.0150   37.4430   11.9650 O.co2 2510  AKG2510    -0.2457
@<TRIPOS>BOND
     1     9     8   ar
     2    10     8   ar
     3     8     7    1
     4     7     6    1
     5     6     4    1
     6     4     5    1
     7     4     1    1
     8     3     1   ar
     9     1     2   ar
