@<TRIPOS>MOLECULE
1ofe_ONL_A_1.pdb
 10 9 0 0 0
SMALL
GASTEIGER

@<TRIPOS>ATOM
      1  N         25.7530   25.3720   29.2760 N.3   2511  ONL2511    -0.1208
      2  CA        27.1600   25.7270   29.4130 C.3   2511  ONL2511     0.1948
      3  C         27.3770   26.3500   30.7550 C.2   2511  ONL2511     0.3819
      4  O         28.5140   26.6710   31.0920 O.co2 2511  ONL2511    -0.2441
      5  OXT       26.4130   26.6150   31.6460 O.co2 2511  ONL2511    -0.2441
      6  CB        27.6430   26.6700   28.2930 C.3   2511  ONL2511     0.0384
      7  CG        26.9350   28.0310   28.2920 C.3   2511  ONL2511     0.0666
      8  CD        27.1340   28.7320   26.9390 C.2   2511  ONL2511     0.1511
      9  OD        27.0530   28.3560   25.7510 O.2   2511  ONL2511    -0.2960
     10  CE        27.4440   30.2070   27.1490 C.3   2511  ONL2511     0.0722
@<TRIPOS>BOND
     1     9     8    2
     2     8    10    1
     3     8     7    1
     4     7     6    1
     5     6     2    1
     6     1     2    1
     7     2     3    1
     8     3     4   ar
     9     3     5   ar
