@<TRIPOS>MOLECULE
1ofg_NDP_A_1.pdb
 48 52 0 0 0
SMALL
GASTEIGER

@<TRIPOS>ATOM
      1  PA        42.4680   25.8670   -6.5290 P.3   500  NDP500      0.2189
      2  O1A       41.3270   26.7870   -6.2640 O.3   500  NDP500     -0.4371
      3  O2A       42.2630   24.4140   -6.3630 O.2   500  NDP500     -0.5170
      4  O5B       43.0420   26.1930   -7.8700 O.3   500  NDP500     -0.3112
      5  C5B       43.9610   25.3650   -8.5790 C.3   500  NDP500      0.1813
      6  C4B       43.7310   25.5030  -10.0770 C.3   500  NDP500      0.1820
      7  O4B       44.7900   24.8060  -10.7620 O.3   500  NDP500     -0.3136
      8  C3B       42.4460   24.8990  -10.6400 C.3   500  NDP500      0.2157
      9  O3B       41.4150   25.8500  -10.6350 O.3   500  NDP500     -0.2175
     10  C2B       42.8250   24.5680  -12.0750 C.3   500  NDP500      0.2314
     11  O2B       42.6810   25.6940  -12.9450 O.3   500  NDP500     -0.2630
     12  C1B       44.2820   24.1850  -11.9190 C.3   500  NDP500      0.3158
     13  N9A       44.4710   22.7410  -11.8700 N.pl3 500  NDP500     -0.1439
     14  C8A       45.1590   22.1460  -12.8960 C.3   500  NDP500      0.3377
     15  N7A       45.2850   20.8390  -12.7930 N.2   500  NDP500     -0.2095
     16  C5A       44.6340   20.5440  -11.6130 C.2   500  NDP500      0.2526
     17  C6A       44.3920   19.3250  -10.9250 C.2   500  NDP500      0.4393
     18  N6A       44.7900   18.1120  -11.3260 N.pl3 500  NDP500      0.2180
     19  N1A       43.6940   19.4030   -9.7710 N.2   500  NDP500      0.0021
     20  C2A       43.2630   20.6010   -9.3410 C.3   500  NDP500      0.5254
     21  N3A       43.4220   21.8010   -9.9000 N.2   500  NDP500     -0.0055
     22  C4A       44.1230   21.7090  -11.0380 C.2   500  NDP500      0.3518
     23  O3        43.7100   25.9440   -5.6660 O.3   500  NDP500     -0.2703
     24  PN        44.1460   27.2460   -4.7570 P.3   500  NDP500      0.2189
     25  O1N       43.4570   27.0430   -3.4630 O.3   500  NDP500     -0.4371
     26  O2N       43.9200   28.5530   -5.4430 O.2   500  NDP500     -0.5170
     27  O5D       45.5960   27.0020   -4.5850 O.3   500  NDP500     -0.3112
     28  C5D       46.4790   27.0400   -5.6630 C.3   500  NDP500      0.1813
     29  C4D       47.9060   27.2120   -5.1940 C.3   500  NDP500      0.1799
     30  O4D       48.1380   28.4910   -4.6020 O.3   500  NDP500     -0.3327
     31  C3D       48.4510   26.1900   -4.2000 C.3   500  NDP500      0.2158
     32  O3D       49.8000   25.9490   -4.4740 O.3   500  NDP500     -0.2175
     33  C2D       48.3680   26.9090   -2.8680 C.3   500  NDP500      0.2309
     34  O2D       49.2270   26.3920   -1.8770 O.3   500  NDP500     -0.2158
     35  C1D       48.7050   28.3260   -3.3090 C.3   500  NDP500      0.2263
     36  N1N       47.9370   29.2400   -2.5110 N.pl3 500  NDP500     -0.2787
     37  C2N       48.7310   30.1930   -1.9900 C.3   500  NDP500      0.1244
     38  C3N       48.2360   31.1440   -1.1290 C.2   500  NDP500      0.0544
     39  C7N       49.0930   32.2480   -0.5390 C.2   500  NDP500      0.2818
     40  O7N       48.5670   33.0110    0.2700 O.2   500  NDP500     -0.2670
     41  N7N       50.3160   32.4340   -1.0430 N.am  500  NDP500     -0.0839
     42  C4N       46.8960   31.1040   -0.7600 C.2   500  NDP500      0.0033
     43  C5N       46.0590   30.1200   -1.3180 C.2   500  NDP500      0.0157
     44  C6N       46.6290   29.1970   -2.1860 C.2   500  NDP500      0.0633
     45  P2B       41.7640   25.6700  -14.1400 P.3   500  NDP500      0.5328
     46  O1X       41.6230   27.0640  -14.6310 O.3   500  NDP500     -0.1145
     47  O2X       40.4230   25.0840  -13.8070 O.3   500  NDP500     -0.1145
     48  O3X       42.3400   24.7800  -15.1780 O.2   500  NDP500     -0.2224
@<TRIPOS>BOND
     1    48    45    2
     2    46    45    1
     3    45    47    1
     4    45    11    1
     5    11    10    1
     6    14    15    1
     7    14    13    1
     8    15    16    2
     9    10    12    1
    10    10     8    1
    11    12    13    1
    12    12     7    1
    13    13    22    1
    14    16    22    1
    15    16    17    1
    16    18    17    1
    17    22    21    2
    18    17    19    2
    19     7     6    1
    20     8     9    1
    21     8     6    1
    22     6     5    1
    23    21    20    1
    24    19    20    1
    25     5     4    1
    26     4     1    1
    27     1     3    2
    28     1     2    1
    29     1    23    1
    30    23    24    1
    31    28    29    1
    32    28    27    1
    33    26    24    2
    34    29    30    1
    35    29    31    1
    36    24    27    1
    37    24    25    1
    38    30    35    1
    39    32    31    1
    40    31    33    1
    41    35    33    1
    42    35    36    1
    43    33    34    1
    44    36    44    1
    45    36    37    1
    46    44    43    2
    47    37    38    1
    48    43    42    1
    49    38    42    2
    50    38    39    1
    51    41    39   am
    52    39    40    2
