@<TRIPOS>MOLECULE
1ofh_ADP_A_1.pdb
 27 29 0 0 0
SMALL
GASTEIGER

@<TRIPOS>ATOM
      1  PB        83.6250  134.7810   86.1160 P.3   450  ADP450      0.5373
      2  O1B       83.3920  136.3430   85.6370 O.3   450  ADP450     -0.1143
      3  O2B       84.8150  134.6850   87.2720 O.3   450  ADP450     -0.1143
      4  O3B       84.0400  134.0090   84.7900 O.2   450  ADP450     -0.2221
      5  PA        81.7530  134.8210   88.1000 P.3   450  ADP450      0.2231
      6  O1A       82.7240  134.1000   89.1450 O.3   450  ADP450     -0.4370
      7  O2A       82.0170  136.4800   88.1640 O.2   450  ADP450     -0.5169
      8  O3A       82.1460  134.1550   86.6330 O.3   450  ADP450     -0.2261
      9  O5'       80.2710  134.3270   88.6490 O.3   450  ADP450     -0.3111
     10  C5'       79.1270  134.8180   87.9430 C.3   450  ADP450      0.1813
     11  C4'       77.8860  134.2220   88.6650 C.3   450  ADP450      0.1821
     12  O4'       77.5940  132.9670   88.0440 O.3   450  ADP450     -0.3135
     13  C3'       78.1610  133.9730   90.1680 C.3   450  ADP450      0.2184
     14  O3'       77.1120  134.4950   91.0170 O.3   450  ADP450     -0.2174
     15  C2'       78.2870  132.4440   90.3000 C.3   450  ADP450      0.2570
     16  O2'       77.6190  131.9040   91.4410 O.3   450  ADP450     -0.2130
     17  C1'       77.6960  131.9000   88.9890 C.3   450  ADP450      0.3186
     18  N9        78.5230  130.8370   88.4110 N.pl3 450  ADP450     -0.1439
     19  C8        79.4370  130.9470   87.3180 C.3   450  ADP450      0.3377
     20  N7        79.9990  129.8200   87.0540 N.2   450  ADP450     -0.2095
     21  C5        79.4780  128.8910   87.9720 C.2   450  ADP450      0.2526
     22  C6        79.7490  127.4600   88.1380 C.2   450  ADP450      0.4393
     23  N6        80.6540  126.7870   87.3090 N.pl3 450  ADP450      0.2180
     24  N1        79.1130  126.8340   89.0900 N.2   450  ADP450      0.0021
     25  C2        78.1710  127.4920   89.9690 C.3   450  ADP450      0.5254
     26  N3        77.9160  128.7670   89.8310 N.2   450  ADP450     -0.0055
     27  C4        78.5880  129.4880   88.8010 C.2   450  ADP450      0.3518
@<TRIPOS>BOND
     1     4     1    2
     2     2     1    1
     3     1     8    1
     4     1     3    1
     5     8     5    1
     6    20    19    1
     7    20    21    2
     8    23    22    1
     9    19    18    1
    10    10     9    1
    11    10    11    1
    12    21    22    1
    13    21    27    1
    14    12    11    1
    15    12    17    1
    16     5     7    2
    17     5     9    1
    18     5     6    1
    19    22    24    2
    20    18    27    1
    21    18    17    1
    22    11    13    1
    23    27    26    2
    24    17    15    1
    25    24    25    1
    26    26    25    1
    27    13    15    1
    28    13    14    1
    29    15    16    1
