@<TRIPOS>MOLECULE
1ofi_ADP_A_1.pdb
 27 29 0 0 0
SMALL
GASTEIGER

@<TRIPOS>ATOM
      1  PB        82.4050  133.3130   85.5450 P.3   450  ADP450      0.5373
      2  O1B       82.4100  134.9740   85.4870 O.3   450  ADP450     -0.1143
      3  O2B       83.6780  132.7830   86.4860 O.3   450  ADP450     -0.1143
      4  O3B       82.5740  132.8050   84.0480 O.2   450  ADP450     -0.2221
      5  PA        80.7510  133.2010   87.7190 P.3   450  ADP450      0.2231
      6  O1A       81.8570  132.4110   88.5450 O.3   450  ADP450     -0.4370
      7  O2A       80.9540  134.8590   87.9400 O.2   450  ADP450     -0.5169
      8  O3A       80.9320  132.7470   86.1230 O.3   450  ADP450     -0.2261
      9  O5'       79.3020  132.6750   88.3280 O.3   450  ADP450     -0.3111
     10  C5'       78.1210  133.2740   87.7600 C.3   450  ADP450      0.1813
     11  C4'       76.8850  132.6480   88.4830 C.3   450  ADP450      0.1821
     12  O4'       76.5390  131.4730   87.7330 O.3   450  ADP450     -0.3135
     13  C3'       77.2180  132.2140   89.9610 C.3   450  ADP450      0.2184
     14  O3'       76.2090  132.5780   90.9290 O.3   450  ADP450     -0.2174
     15  C2'       77.4020  130.6790   89.8760 C.3   450  ADP450      0.2570
     16  O2'       76.9320  129.9350   91.0130 O.3   450  ADP450     -0.2130
     17  C1'       76.6710  130.2960   88.5720 C.3   450  ADP450      0.3186
     18  N9        77.4600  129.3070   87.8770 N.pl3 450  ADP450     -0.1439
     19  C8        78.2790  129.5160   86.7340 C.3   450  ADP450      0.3377
     20  N7        78.8450  128.4220   86.3600 N.2   450  ADP450     -0.2095
     21  C5        78.4160  127.4280   87.2590 C.2   450  ADP450      0.2526
     22  C6        78.7290  126.0110   87.3210 C.2   450  ADP450      0.4393
     23  N6        79.5870  125.4300   86.3810 N.pl3 450  ADP450      0.2180
     24  N1        78.1860  125.3040   88.2780 N.2   450  ADP450      0.0021
     25  C2        77.3110  125.8770   89.2480 C.3   450  ADP450      0.5254
     26  N3        77.0190  127.1480   89.2020 N.2   450  ADP450     -0.0055
     27  C4        77.5860  127.9460   88.1790 C.2   450  ADP450      0.3518
@<TRIPOS>BOND
     1     4     1    2
     2     2     1    1
     3     1     8    1
     4     1     3    1
     5     8     5    1
     6    20    19    1
     7    20    21    2
     8    23    22    1
     9    19    18    1
    10    21    22    1
    11    21    27    1
    12    22    24    2
    13     5     7    2
    14     5     9    1
    15     5     6    1
    16    12    11    1
    17    12    17    1
    18    10     9    1
    19    10    11    1
    20    18    27    1
    21    18    17    1
    22    27    26    2
    23    24    25    1
    24    11    13    1
    25    17    15    1
    26    26    25    1
    27    15    13    1
    28    15    16    1
    29    13    14    1
