@<TRIPOS>MOLECULE
1ofi_LVS_G_1.pdb
 41 41 0 0 0
SMALL
GASTEIGER

@<TRIPOS>ATOM
      1  CB1      101.1110  141.4810   45.3450 C.3     0  LVS0        0.0311
      2  CG1      102.2770  141.7340   46.3580 C.3     0  LVS0        0.0022
      3  CD1      101.8440  142.4060   47.6880 C.3     0  LVS0        0.0001
      4  CD2      102.9550  140.3720   46.6840 C.3     0  LVS0        0.0001
      5  C1        98.8190  142.4050   45.0970 C.2     0  LVS0        0.2616
      6  O1        98.4380  142.2450   46.2660 O.2     0  LVS0       -0.2715
      7  N1       100.4690  143.9580   45.5490 N.am    0  LVS0       -0.1975
      8  CA1      100.2560  142.7000   44.8420 C.3     0  LVS0        0.1727
      9  N2        97.9210  142.3310   44.0240 N.am    0  LVS0       -0.1963
     10  CA2       96.5180  142.0560   44.2560 C.3     0  LVS0        0.1728
     11  CB2       95.6000  143.1480   43.6220 C.3     0  LVS0        0.0311
     12  CG2       95.7630  143.5680   42.1200 C.3     0  LVS0        0.0022
     13  CD3       94.7090  144.6640   41.7860 C.3     0  LVS0        0.0001
     14  CD4       97.1670  144.1170   41.7430 C.3     0  LVS0        0.0001
     15  C2        96.2190  140.6470   43.8470 C.2     0  LVS0        0.2612
     16  O2        97.0150  140.0210   43.1420 O.2     0  LVS0       -0.2715
     17  N3        95.0240  140.0540   44.2970 N.am    0  LVS0       -0.2057
     18  CA3       94.6330  138.7000   43.9750 C.3     0  LVS0        0.0971
     19  CS        93.2320  138.7240   43.3030 C.3     0  LVS0        0.0470
     20  CB3       94.7400  137.8560   45.2910 C.3     0  LVS0        0.0217
     21  CG3       94.2140  138.4980   46.5740 C.3     0  LVS0        0.0017
     22  CD5       93.0910  138.7550   46.9930 C.3     0  LVS0        0.0001
     23  CD6       94.4310  137.5250   47.7430 C.3     0  LVS0        0.0001
     24  C1'       90.4840  140.1410   41.7880 C.3     0  LVS0        0.1760
     25  S         92.1020  140.7880   41.7780 S.O2    0  LVS0       -0.0082
     26  O1'       92.2450  141.9040   42.8830 O.2     0  LVS0       -0.1729
     27  O2'       92.3890  141.4440   40.3970 O.2     0  LVS0       -0.1729
     28  C2'       93.3040  139.5530   41.9810 C.3     0  LVS0        0.1527
     29  C3       100.0550  145.2160   45.0280 C.2     0  LVS0        0.2462
     30  C4       100.2940  146.4570   45.8450 C.3     0  LVS0        0.1132
     31  C5       101.6000  147.0960   45.4610 C.ar    0  LVS0       -0.0112
     32  C6       101.8020  147.5670   44.1940 C.ar    0  LVS0        0.0236
     33  C7       103.0860  148.2060   43.7900 C.ar    0  LVS0        0.1812
     34  C8       104.1210  148.3300   44.7410 C.ar    0  LVS0        0.2179
     35  C9       103.8920  147.8020   46.1700 C.ar    0  LVS0        0.0435
     36  C10      102.6850  147.2200   46.4830 C.ar    0  LVS0       -0.0004
     37  N4       103.1710  148.6590   42.4240 N.pl3   0  LVS0        0.0609
     38  O3       102.2330  149.4610   41.9580 O.2     0  LVS0       -0.1260
     39  O4       104.1470  148.2630   41.6380 O.2     0  LVS0       -0.1260
     40  O5       105.3070  148.9170   44.3850 O.3     0  LVS0       -0.2848
     41  O6        99.4960  145.3170   43.9290 O.2     0  LVS0       -0.2730
@<TRIPOS>BOND
     1    27    25    2
     2    39    37    2
     3    14    12    1
     4    25    24    1
     5    25    28    1
     6    25    26    2
     7    13    12    1
     8    38    37    2
     9    28    19    1
    10    12    11    1
    11    37    33    1
    12    16    15    2
    13    19    18    1
    14    11    10    1
    15    33    32   ar
    16    33    34   ar
    17    15    10    1
    18    15    17   am
    19    41    29    2
    20    18    17    1
    21    18    20    1
    22     9    10    1
    23     9     5   am
    24    32    31   ar
    25    40    34    1
    26    34    35   ar
    27     8     5    1
    28     8     1    1
    29     8     7    1
    30    29     7   am
    31    29    30    1
    32     5     6    2
    33    20    21    1
    34     1     2    1
    35    31    30    1
    36    31    36   ar
    37    35    36   ar
    38     2     4    1
    39     2     3    1
    40    21    22    1
    41    21    23    1
