@<TRIPOS>MOLECULE
1ofj_HEM_A_1.pdb
 43 50 0 0 0
SMALL
GASTEIGER

@<TRIPOS>ATOM
      1 FE         35.3180    4.2040   10.3360 Fe    154  HEM154      0.0000
      2  CHA       37.9740    2.4190   11.5420 C.2   154  HEM154      0.0000
      3  CHB       37.1940    5.3020    7.7690 C.2   154  HEM154      0.0000
      4  CHC       32.7580    6.2240    9.2930 C.2   154  HEM154      0.0000
      5  CHD       33.4570    3.2010   12.9810 C.2   154  HEM154      0.0000
      6  NA        37.1590    3.9290    9.7980 N.ar  154  HEM154      0.0000
      7  C1A       38.1660    3.1720   10.3920 C.ar  154  HEM154      0.0000
      8  C2A       39.4220    3.1920    9.5940 C.ar  154  HEM154      0.0000
      9  C3A       39.1550    3.9570    8.5040 C.ar  154  HEM154      0.0000
     10  C4A       37.7770    4.4240    8.6490 C.ar  154  HEM154      0.0000
     11  CMA       40.0780    4.2350    7.3240 C.3   154  HEM154      0.0000
     12  CAA       40.6770    2.3330    9.8580 C.3   154  HEM154      0.0000
     13  CBA       40.7650    1.0290    9.0460 C.3   154  HEM154      0.0000
     14  CGA       39.4370    0.2600    9.0010 C.2   154  HEM154      0.0000
     15  O1A       39.0530   -0.3640   10.0180 O.co2 154  HEM154      0.0000
     16  O2A       38.7690    0.2940    7.9420 O.co2 154  HEM154      0.0000
     17  NB        35.0180    5.4480    8.8150 N.2   154  HEM154      0.0000
     18  C1B       35.9090    5.7950    7.8320 C.2   154  HEM154      0.0000
     19  C2B       35.3480    6.7490    6.8630 C.2   154  HEM154      0.0000
     20  C3B       34.0980    7.0310    7.2960 C.2   154  HEM154      0.0000
     21  C4B       33.9050    6.2130    8.5180 C.2   154  HEM154      0.0000
     22  CMB       36.0580    7.3160    5.6030 C.3   154  HEM154      0.0000
     23  CAB       33.1300    7.9010    6.7180 C.3   154  HEM154      0.0000
     24  CBB       33.3200    9.3040    6.2870 C.3   154  HEM154      0.0000
     25  NC        33.4760    4.5760   10.9520 N.ar  154  HEM154      0.0000
     26  C1C       32.5530    5.4570   10.4380 C.ar  154  HEM154      0.0000
     27  C2C       31.3840    5.5710   11.2940 C.ar  154  HEM154      0.0000
     28  C3C       31.5760    4.7270   12.3570 C.ar  154  HEM154      0.0000
     29  C4C       32.8540    4.1050   12.1080 C.ar  154  HEM154      0.0000
     30  CMC       30.1910    6.4790   11.0120 C.3   154  HEM154      0.0000
     31  CAC       30.8010    4.5190   13.5400 C.3   154  HEM154      0.0000
     32  CBC       29.6370    5.2400   14.0310 C.3   154  HEM154      0.0000
     33  ND        35.6380    2.9940   11.8660 N.2   154  HEM154      0.0000
     34  C1D       34.7270    2.6710   12.8810 C.2   154  HEM154      0.0000
     35  C2D       35.3140    1.7910   13.8780 C.2   154  HEM154      0.0000
     36  C3D       36.6030    1.6530   13.4900 C.2   154  HEM154      0.0000
     37  C4D       36.7960    2.3640   12.2400 C.2   154  HEM154      0.0000
     38  CMD       34.6440    1.2100   15.1260 C.3   154  HEM154      0.0000
     39  CAD       37.7350    1.0690   14.2940 C.3   154  HEM154      0.0000
     40  CBD       38.3340    2.1640   15.1840 C.3   154  HEM154      0.0000
     41  CGD       39.4550    1.6440   16.0750 C.2   154  HEM154      0.0000
     42  O1D       39.2750    1.6070   17.3070 O.co2 154  HEM154      0.0000
     43  O2D       40.5180    1.2670   15.5480 O.co2 154  HEM154      0.0000
@<TRIPOS>BOND
     1    22    19    1
     2    24    23    1
     3    23    20    1
     4    19    20    2
     5    19    18    1
     6    20    21    1
     7    11     9    1
     8     3    18    1
     9     3    10    2
    10    18    17    2
    11    16    14   ar
    12     9    10   ar
    13     9     8   ar
    14    21    17    1
    15    21     4    2
    16    10     6   ar
    17    17     1    1
    18    14    13    1
    19    14    15   ar
    20    13    12    1
    21     4    26    1
    22     8    12    1
    23     8     7   ar
    24     6     1    1
    25     6     7   ar
    26     1    25    1
    27     1    33    1
    28     7     2    2
    29    26    25   ar
    30    26    27   ar
    31    25    29   ar
    32    30    27    1
    33    27    28   ar
    34     2    37    1
    35    33    37    2
    36    33    34    1
    37    29    28   ar
    38    29     5    1
    39    37    36    1
    40    28    31    1
    41    34     5    2
    42    34    35    1
    43    36    35    2
    44    36    39    1
    45    31    32    1
    46    35    38    1
    47    39    40    1
    48    40    41    1
    49    43    41   ar
    50    41    42   ar
