@<TRIPOS>MOLECULE
1ofk_HEM_A_1.pdb
 43 50 0 0 0
SMALL
GASTEIGER

@<TRIPOS>ATOM
      1 FE         35.2640    4.2520   10.3120 Fe    154  HEM154      0.0000
      2  CHA       37.8970    2.5080   11.5790 C.2   154  HEM154      0.0000
      3  CHB       37.1960    5.3520    7.7650 C.2   154  HEM154      0.0000
      4  CHC       32.7120    6.1740    9.1710 C.2   154  HEM154      0.0000
      5  CHD       33.3940    3.3140   12.9730 C.2   154  HEM154      0.0000
      6  NA        37.1060    3.9910    9.8020 N.ar  154  HEM154      0.0000
      7  C1A       38.0980    3.2220   10.4090 C.ar  154  HEM154      0.0000
      8  C2A       39.3500    3.2160    9.6230 C.ar  154  HEM154      0.0000
      9  C3A       39.1220    4.0040    8.5570 C.ar  154  HEM154      0.0000
     10  C4A       37.7650    4.4970    8.6740 C.ar  154  HEM154      0.0000
     11  CMA       40.0760    4.2250    7.4050 C.3   154  HEM154      0.0000
     12  CAA       40.6130    2.3650    9.9330 C.3   154  HEM154      0.0000
     13  CBA       40.7190    1.0570    9.1190 C.3   154  HEM154      0.0000
     14  CGA       39.3950    0.2710    9.0680 C.2   154  HEM154      0.0000
     15  O1A       39.0170   -0.3680   10.0770 O.co2 154  HEM154      0.0000
     16  O2A       38.7340    0.3160    8.0050 O.co2 154  HEM154      0.0000
     17  NB        34.9830    5.4510    8.7600 N.2   154  HEM154      0.0000
     18  C1B       35.9110    5.8180    7.7980 C.2   154  HEM154      0.0000
     19  C2B       35.3660    6.7840    6.8260 C.2   154  HEM154      0.0000
     20  C3B       34.0910    7.0240    7.2330 C.2   154  HEM154      0.0000
     21  C4B       33.8690    6.1770    8.4290 C.2   154  HEM154      0.0000
     22  CMB       36.0740    7.2880    5.5650 C.3   154  HEM154      0.0000
     23  CAB       33.0980    7.8480    6.6350 C.3   154  HEM154      0.0000
     24  CBB       33.3070    9.1900    6.1370 C.3   154  HEM154      0.0000
     25  NC        33.4380    4.6170   10.8900 N.ar  154  HEM154      0.0000
     26  C1C       32.5110    5.4600   10.3410 C.ar  154  HEM154      0.0000
     27  C2C       31.3140    5.5900   11.1770 C.ar  154  HEM154      0.0000
     28  C3C       31.5040    4.7800   12.2650 C.ar  154  HEM154      0.0000
     29  C4C       32.8230    4.1910   12.0540 C.ar  154  HEM154      0.0000
     30  CMC       30.0840    6.4360   10.8860 C.3   154  HEM154      0.0000
     31  CAC       30.7470    4.5390   13.4500 C.3   154  HEM154      0.0000
     32  CBC       29.5800    5.1660   13.8950 C.3   154  HEM154      0.0000
     33  ND        35.5700    3.0880   11.8820 N.2   154  HEM154      0.0000
     34  C1D       34.6620    2.7950   12.8870 C.2   154  HEM154      0.0000
     35  C2D       35.1970    1.9070   13.8700 C.2   154  HEM154      0.0000
     36  C3D       36.4690    1.7360   13.4950 C.2   154  HEM154      0.0000
     37  C4D       36.6940    2.4540   12.2590 C.2   154  HEM154      0.0000
     38  CMD       34.4840    1.2930   15.0900 C.3   154  HEM154      0.0000
     39  CAD       37.5620    1.1100   14.3100 C.3   154  HEM154      0.0000
     40  CBD       38.1080    2.1960   15.2180 C.3   154  HEM154      0.0000
     41  CGD       39.2410    1.6900   16.0840 C.2   154  HEM154      0.0000
     42  O1D       39.0420    1.4860   17.2990 O.co2 154  HEM154      0.0000
     43  O2D       40.3410    1.4650   15.5490 O.co2 154  HEM154      0.0000
@<TRIPOS>BOND
     1    22    19    1
     2    24    23    1
     3    23    20    1
     4    19    20    2
     5    19    18    1
     6    20    21    1
     7    11     9    1
     8     3    18    1
     9     3    10    2
    10    18    17    2
    11    16    14   ar
    12    21    17    1
    13    21     4    2
    14     9    10   ar
    15     9     8   ar
    16    10     6   ar
    17    17     1    1
    18    14    13    1
    19    14    15   ar
    20    13    12    1
    21     4    26    1
    22     8    12    1
    23     8     7   ar
    24     6     1    1
    25     6     7   ar
    26     1    25    1
    27     1    33    1
    28    26    25   ar
    29    26    27   ar
    30     7     2    2
    31    30    27    1
    32    25    29   ar
    33    27    28   ar
    34     2    37    1
    35    33    37    2
    36    33    34    1
    37    29    28   ar
    38    29     5    1
    39    37    36    1
    40    28    31    1
    41    34     5    2
    42    34    35    1
    43    31    32    1
    44    36    35    2
    45    36    39    1
    46    35    38    1
    47    39    40    1
    48    40    41    1
    49    43    41   ar
    50    41    42   ar
