@<TRIPOS>MOLECULE
1ofl_GCD_A_1.pdb
 11 11 0 0 0
SMALL
GASTEIGER

@<TRIPOS>ATOM
      1  C1        26.7470   23.4110   -2.4400 C.3   519  GCD519      0.2413
      2  C2        26.0630   24.1640   -3.5900 C.3   519  GCD519      0.2297
      3  O2        25.0070   23.3390   -4.0410 O.3   519  GCD519     -0.2160
      4  C3        27.0260   24.5310   -4.7440 C.3   519  GCD519      0.2111
      5  O3        26.3850   25.3260   -5.7440 O.3   519  GCD519     -0.2153
      6  C4        28.1680   25.3560   -4.1780 C.2   519  GCD519      0.0526
      7  C5        28.6160   25.0610   -2.9450 C.2   519  GCD519      0.2164
      8  O5        28.0470   23.9430   -2.2300 O.2   519  GCD519     -0.4664
      9  C6        29.7080   25.7640   -2.2890 C.2   519  GCD519      0.4208
     10  O6A       30.5230   26.4210   -2.9710 O.co2 519  GCD519     -0.2371
     11  O6B       29.8270   25.6370   -1.0540 O.co2 519  GCD519     -0.2371
@<TRIPOS>BOND
     1     5     4    1
     2     4     6    1
     3     4     2    1
     4     6     7    2
     5     3     2    1
     6     2     1    1
     7    10     9   ar
     8     7     9    1
     9     7     8    1
    10     1     8    1
    11     9    11   ar
