@<TRIPOS>MOLECULE
1ofl_GCU_A_1.pdb
 12 12 0 0 0
SMALL
GASTEIGER

@<TRIPOS>ATOM
      1  C1        39.2370   20.2560   29.5120 C.3   509  GCU509      0.1783
      2  C2        38.6430   20.1310   30.9080 C.3   509  GCU509      0.2141
      3  C3        39.7110   20.4260   31.9450 C.3   509  GCU509      0.2178
      4  C4        40.9030   19.4780   31.7070 C.3   509  GCU509      0.2227
      5  C5        41.4760   19.7520   30.3050 C.3   509  GCU509      0.2512
      6  C6        42.7130   18.9310   29.9460 C.2   509  GCU509      0.3940
      7  O2        37.5730   21.0530   30.9990 O.3   509  GCU509     -0.2176
      8  O3        39.0710   20.1120   33.1990 O.3   509  GCU509     -0.2175
      9  O4        41.9630   19.7650   32.6300 O.3   509  GCU509     -0.2171
     10  O5        40.4650   19.5630   29.3230 O.3   509  GCU509     -0.3403
     11  O6A       43.7810   19.5550   29.9290 O.co2 509  GCU509     -0.2429
     12  O6B       42.5610   17.7370   29.6990 O.co2 509  GCU509     -0.2429
@<TRIPOS>BOND
     1    10     1    1
     2    10     5    1
     3     1     2    1
     4    12     6   ar
     5    11     6   ar
     6     6     5    1
     7     5     4    1
     8     2     7    1
     9     2     3    1
    10     4     3    1
    11     4     9    1
    12     3     8    1
