@<TRIPOS>MOLECULE
1ofl_MAN_A_1.pdb
 11 11 0 0 0
SMALL
GASTEIGER

@<TRIPOS>ATOM
      1  C1        40.5870   21.4070   27.0490 C.3   507  MAN507      0.1777
      2  C2        39.5850   22.2570   27.8120 C.3   507  MAN507      0.2141
      3  C3        40.0120   23.7240   27.8690 C.3   507  MAN507      0.2173
      4  C4        41.4940   23.8030   28.2820 C.3   507  MAN507      0.2142
      5  C5        42.3590   22.8840   27.4620 C.3   507  MAN507      0.1810
      6  C6        43.8020   22.9030   27.9640 C.3   507  MAN507      0.2141
      7  O2        39.5910   21.6940   29.1090 O.3   507  MAN507     -0.2176
      8  O3        39.2130   24.3640   28.8280 O.3   507  MAN507     -0.2175
      9  O4        42.1000   25.0500   27.9620 O.3   507  MAN507     -0.2176
     10  O5        41.8990   21.5430   27.5250 O.3   507  MAN507     -0.3481
     11  O6        44.5450   21.9010   27.3030 O.3   507  MAN507     -0.2176
@<TRIPOS>BOND
     1     1    10    1
     2     1     2    1
     3    11     6    1
     4     5    10    1
     5     5     6    1
     6     5     4    1
     7     2     3    1
     8     2     7    1
     9     3     4    1
    10     3     8    1
    11     9     4    1
