@<TRIPOS>MOLECULE
1ofl_ASG_A_1.pdb
 19 19 0 0 0
SMALL
GASTEIGER

@<TRIPOS>ATOM
      1  C1        25.6940   21.1030    1.5520 C.3   517  ASG517      0.2917
      2  C2        25.2960   21.8680    0.3100 C.3   517  ASG517      0.1871
      3  C3        26.5170   22.6180   -0.1760 C.3   517  ASG517      0.2086
      4  C4        27.0710   23.4240    0.9960 C.3   517  ASG517      0.2048
      5  C5        27.4220   22.5610    2.2040 C.3   517  ASG517      0.1826
      6  C6        27.9730   23.3550    3.3900 C.3   517  ASG517      0.2142
      7  C7        23.6680   21.0930   -1.3330 C.2   517  ASG517      0.2421
      8  C8        23.3100   20.0350   -2.3800 C.3   517  ASG517      0.0964
      9  O1        24.5440   20.4400    2.0200 O.3   517  ASG517     -0.1879
     10  N         24.8250   20.8830   -0.6820 N.am  517  ASG517     -0.1991
     11  O3        26.0360   23.4960   -1.1880 O.3   517  ASG517     -0.2183
     12  O4        26.0420   24.3360    1.4210 O.3   517  ASG517     -0.2384
     13  O5        26.2300   21.9080    2.5920 O.3   517  ASG517     -0.3243
     14  O6        29.2210   23.9510    3.1010 O.3   517  ASG517     -0.2176
     15  O7        22.9180   22.0520   -1.0760 O.2   517  ASG517     -0.2733
     16  OSA       25.7720   26.6340    2.4900 O.3   517  ASG517     -0.2682
     17  OSB       24.9260   26.2860    0.2220 O.2   517  ASG517     -0.3452
     18  OSC       27.3680   26.2490    0.7180 O.2   517  ASG517     -0.3452
     19  S         26.0650   25.9560    1.2390 S.3   517  ASG517     -0.0001
@<TRIPOS>BOND
     1     8     7    1
     2     7    15    2
     3     7    10   am
     4    11     3    1
     5    10     2    1
     6     3     2    1
     7     3     4    1
     8    17    19    2
     9     2     1    1
    10    18    19    2
    11     4    12    1
    12     4     5    1
    13    19    12    1
    14    19    16    1
    15     1     9    1
    16     1    13    1
    17     5    13    1
    18     5     6    1
    19    14     6    1
