@<TRIPOS>MOLECULE
1ofl_NGK_A_1.pdb
 19 19 0 0 0
SMALL
GASTEIGER

@<TRIPOS>ATOM
      1  C1        34.5660    9.5590   25.7030 C.3   526  NGK526      0.2917
      2  C2        35.4270    8.9000   26.7860 C.3   526  NGK526      0.1871
      3  C3        34.7120    9.0160   28.1350 C.3   526  NGK526      0.2086
      4  C4        34.4700   10.5010   28.4070 C.3   526  NGK526      0.2048
      5  C5        33.6160   11.1500   27.3150 C.3   526  NGK526      0.1826
      6  C6        33.4010   12.6680   27.5160 C.3   526  NGK526      0.2142
      7  C7        36.9490    6.9740   26.5950 C.2   526  NGK526      0.2421
      8  C8        37.1360    5.6090   25.9950 C.3   526  NGK526      0.0964
      9  N         35.7390    7.5180   26.4170 N.am  526  NGK526     -0.1991
     10  O1        33.3270    8.8980   25.6290 O.3   526  NGK526     -0.1879
     11  O3        35.5510    8.5720   29.1770 O.3   526  NGK526     -0.2183
     12  O4        35.7670   11.0760   28.3360 O.3   526  NGK526     -0.2384
     13  O5        34.2700   10.9050   26.0550 O.3   526  NGK526     -0.3243
     14  O6        32.4230   12.7980   28.5350 O.3   526  NGK526     -0.2176
     15  O7        37.8710    7.5460   27.1820 O.2   526  NGK526     -0.2733
     16  S         36.4040   12.0360   29.4960 S.3   526  NGK526     -0.0001
     17  O1S       35.6750   13.2650   29.6530 O.2   526  NGK526     -0.3452
     18  O2S       37.9010   12.2820   29.0930 O.2   526  NGK526     -0.3452
     19  O3S       36.3920   11.1740   30.6700 O.3   526  NGK526     -0.2682
@<TRIPOS>BOND
     1    10     1    1
     2     1    13    1
     3     1     2    1
     4     8     7    1
     5    13     5    1
     6     9     7   am
     7     9     2    1
     8     7    15    2
     9     2     3    1
    10     5     6    1
    11     5     4    1
    12     6    14    1
    13     3     4    1
    14     3    11    1
    15    12     4    1
    16    12    16    1
    17    18    16    2
    18    16    17    2
    19    16    19    1
