@<TRIPOS>MOLECULE
1ofl_RAM_A_1.pdb
 10 10 0 0 0
SMALL
GASTEIGER

@<TRIPOS>ATOM
      1  C1        41.6810   26.1610   28.7700 C.3   508  RAM508      0.1776
      2  C2        42.7830   27.1920   28.6520 C.3   508  RAM508      0.2141
      3  C3        42.8320   27.8370   27.2290 C.3   508  RAM508      0.2172
      4  C4        41.4330   28.2950   26.7670 C.3   508  RAM508      0.2116
      5  C5        40.3440   27.2400   27.0640 C.3   508  RAM508      0.1483
      6  C6        38.9280   27.7530   26.8330 C.3   508  RAM508      0.0349
      7  O2        42.5550   28.2510   29.6180 O.3   508  RAM508     -0.2176
      8  O3        43.6730   28.9670   27.2160 O.3   508  RAM508     -0.2175
      9  O4        41.4700   28.5490   25.3630 O.3   508  RAM508     -0.2177
     10  O5        40.4460   26.7690   28.4050 O.3   508  RAM508     -0.3508
@<TRIPOS>BOND
     1     9     4    1
     2     4     5    1
     3     4     3    1
     4     6     5    1
     5     5    10    1
     6     8     3    1
     7     3     2    1
     8    10     1    1
     9     2     1    1
    10     2     7    1
