@<TRIPOS>MOLECULE
1ofm_BDP_A_1.pdb
 12 12 0 0 0
SMALL
GASTEIGER

@<TRIPOS>ATOM
      1  C1        26.8220   23.5980   -2.4020 C.3   1516  BDP1516     0.1783
      2  C2        26.0030   23.9790   -3.6430 C.3   1516  BDP1516     0.2141
      3  C3        26.9300   24.3030   -4.8060 C.3   1516  BDP1516     0.2178
      4  C4        27.9490   25.3440   -4.3840 C.3   1516  BDP1516     0.2227
      5  C5        28.7050   24.8820   -3.1440 C.3   1516  BDP1516     0.2512
      6  C6        29.6970   25.9150   -2.6410 C.2   1516  BDP1516     0.3940
      7  O2        25.1610   22.8920   -3.9990 O.3   1516  BDP1516    -0.2176
      8  O3        26.1740   24.8230   -5.8920 O.3   1516  BDP1516    -0.2175
      9  O4        28.8610   25.5420   -5.4660 O.3   1516  BDP1516    -0.2171
     10  O5        27.7690   24.6370   -2.0780 O.3   1516  BDP1516    -0.3403
     11  O6A       30.9020   25.5820   -2.6390 O.co2 1516  BDP1516    -0.2429
     12  O6B       29.2580   27.0300   -2.2910 O.co2 1516  BDP1516    -0.2429
@<TRIPOS>BOND
     1     8     3    1
     2     9     4    1
     3     3     4    1
     4     3     2    1
     5     4     5    1
     6     7     2    1
     7     2     1    1
     8     5     6    1
     9     5    10    1
    10     6    11   ar
    11     6    12   ar
    12     1    10    1
