@<TRIPOS>MOLECULE
1ofm_GCU_A_1.pdb
 12 12 0 0 0
SMALL
GASTEIGER

@<TRIPOS>ATOM
      1  C1        39.2470   20.3710   29.3730 C.3   1510  GCU1510     0.1783
      2  C2        38.6530   20.1800   30.7800 C.3   1510  GCU1510     0.2141
      3  C3        39.7050   20.4020   31.8560 C.3   1510  GCU1510     0.2178
      4  C4        40.8900   19.4590   31.6150 C.3   1510  GCU1510     0.2227
      5  C5        41.4410   19.7600   30.2140 C.3   1510  GCU1510     0.2512
      6  C6        42.6390   18.9140   29.8060 C.2   1510  GCU1510     0.3940
      7  O2        37.6040   21.1000   30.9860 O.3   1510  GCU1510    -0.2176
      8  O3        39.1220   20.1720   33.1370 O.3   1510  GCU1510    -0.2175
      9  O4        41.9200   19.7210   32.5960 O.3   1510  GCU1510    -0.2171
     10  O5        40.3980   19.5410   29.2200 O.3   1510  GCU1510    -0.3403
     11  O6A       43.7510   19.5140   29.7870 O.co2 1510  GCU1510    -0.2429
     12  O6B       42.4910   17.6760   29.7070 O.co2 1510  GCU1510    -0.2429
@<TRIPOS>BOND
     1    10     1    1
     2    10     5    1
     3     1     2    1
     4    12     6   ar
     5    11     6   ar
     6     6     5    1
     7     5     4    1
     8     2     7    1
     9     2     3    1
    10     4     3    1
    11     4     9    1
    12     3     8    1
