@<TRIPOS>MOLECULE
1ofm_MAN_A_1.pdb
 11 11 0 0 0
SMALL
GASTEIGER

@<TRIPOS>ATOM
      1  C1        40.5340   21.4160   26.9850 C.3   1508  MAN1508     0.1777
      2  C2        39.6210   22.2300   27.8830 C.3   1508  MAN1508     0.2141
      3  C3        40.0770   23.6960   27.8730 C.3   1508  MAN1508     0.2173
      4  C4        41.5810   23.8360   28.2480 C.3   1508  MAN1508     0.2142
      5  C5        42.4350   22.8510   27.4630 C.3   1508  MAN1508     0.1810
      6  C6        43.8340   22.7480   28.0570 C.3   1508  MAN1508     0.2141
      7  O2        39.6550   21.7050   29.2280 O.3   1508  MAN1508    -0.2176
      8  O3        39.2770   24.4150   28.7870 O.3   1508  MAN1508    -0.2175
      9  O4        42.0710   25.1520   27.8970 O.3   1508  MAN1508    -0.2176
     10  O5        41.8740   21.5190   27.4620 O.3   1508  MAN1508    -0.3481
     11  O6        44.6550   21.9450   27.2390 O.3   1508  MAN1508    -0.2176
@<TRIPOS>BOND
     1     1    10    1
     2     1     2    1
     3    11     6    1
     4    10     5    1
     5     5     6    1
     6     5     4    1
     7     3     2    1
     8     3     4    1
     9     3     8    1
    10     2     7    1
    11     9     4    1
