@<TRIPOS>MOLECULE
1ofm_RAM_A_1.pdb
 10 10 0 0 0
SMALL
GASTEIGER

@<TRIPOS>ATOM
      1  C1        41.7650   26.2060   28.7730 C.3   1509  RAM1509     0.1776
      2  C2        42.8250   27.2790   28.6300 C.3   1509  RAM1509     0.2141
      3  C3        42.8590   27.8200   27.1900 C.3   1509  RAM1509     0.2172
      4  C4        41.4610   28.2700   26.7310 C.3   1509  RAM1509     0.2116
      5  C5        40.3900   27.1960   27.0350 C.3   1509  RAM1509     0.1483
      6  C6        38.9790   27.7130   26.8220 C.3   1509  RAM1509     0.0349
      7  O2        42.5400   28.3310   29.5370 O.3   1509  RAM1509    -0.2176
      8  O3        43.7480   28.9230   27.1310 O.3   1509  RAM1509    -0.2175
      9  O4        41.4890   28.4890   25.3270 O.3   1509  RAM1509    -0.2177
     10  O5        40.4840   26.7430   28.4110 O.3   1509  RAM1509    -0.3508
@<TRIPOS>BOND
     1     9     4    1
     2     4     5    1
     3     4     3    1
     4     6     5    1
     5     5    10    1
     6     8     3    1
     7     3     2    1
     8    10     1    1
     9     2     1    1
    10     2     7    1
