@<TRIPOS>MOLECULE
1ofm_ASG_A_1.pdb
 19 19 0 0 0
SMALL
GASTEIGER

@<TRIPOS>ATOM
      1  C1        25.7950   20.9030    1.4820 C.3   1515  ASG1515     0.2917
      2  C2        25.3030   21.7350    0.2810 C.3   1515  ASG1515     0.1871
      3  C3        26.4420   22.5920   -0.2580 C.3   1515  ASG1515     0.2086
      4  C4        27.0080   23.4390    0.8610 C.3   1515  ASG1515     0.2048
      5  C5        27.5050   22.5320    1.9880 C.3   1515  ASG1515     0.1826
      6  C6        28.0380   23.3260    3.1870 C.3   1515  ASG1515     0.2142
      7  C7        23.6900   21.0840   -1.4080 C.2   1515  ASG1515     0.2421
      8  C8        23.3150   20.1380   -2.5420 C.3   1515  ASG1515     0.0964
      9  O1        24.7120   20.2630    2.0600 O.3   1515  ASG1515    -0.1879
     10  N         24.8350   20.8440   -0.7690 N.am  1515  ASG1515    -0.1991
     11  O3        25.9690   23.4330   -1.3270 O.3   1515  ASG1515    -0.2183
     12  O4        26.0170   24.3040    1.4430 O.3   1515  ASG1515    -0.2384
     13  O5        26.4010   21.7410    2.4860 O.3   1515  ASG1515    -0.3243
     14  O6        29.2900   23.9440    2.9030 O.3   1515  ASG1515    -0.2176
     15  O7        22.9310   22.0080   -1.1180 O.2   1515  ASG1515    -0.2733
     16  OSA       25.1140   26.2610    0.0490 O.2   1515  ASG1515    -0.3452
     17  OSB       27.3870   26.2110    0.7150 O.2   1515  ASG1515    -0.3452
     18  OSC       25.7340   26.5150    2.4450 O.3   1515  ASG1515    -0.2682
     19  S         26.0200   25.8700    1.1470 S.3   1515  ASG1515    -0.0001
@<TRIPOS>BOND
     1     8     7    1
     2     7    15    2
     3     7    10   am
     4    11     3    1
     5    10     2    1
     6     3     2    1
     7     3     4    1
     8    16    19    2
     9     2     1    1
    10    17    19    2
    11     4    12    1
    12     4     5    1
    13    19    12    1
    14    19    18    1
    15     1     9    1
    16     1    13    1
    17     5    13    1
    18     5     6    1
    19    14     6    1
