@<TRIPOS>MOLECULE
1ofr_PHE_C_1.pdb
 12 12 0 0 0
SMALL
GASTEIGER

@<TRIPOS>ATOM
      1  N         30.8380   -2.2460   75.3750 N.3   1002  PHE1002    -0.1205
      2  CA        30.1990   -2.9140   76.5430 C.3   1002  PHE1002     0.1986
      3  C         31.0800   -3.9450   77.2560 C.2   1002  PHE1002     0.3822
      4  O         32.2400   -4.1610   76.8340 O.co2 1002  PHE1002    -0.2440
      5  CB        28.8920   -3.5680   76.0980 C.3   1002  PHE1002     0.0569
      6  CG        27.7610   -2.5980   75.9360 C.ar  1002  PHE1002    -0.0202
      7  CD1       26.9360   -2.6580   74.8180 C.ar  1002  PHE1002    -0.0042
      8  CD2       27.5150   -1.6300   76.9050 C.ar  1002  PHE1002    -0.0042
      9  CE1       25.8770   -1.7640   74.6680 C.ar  1002  PHE1002    -0.0003
     10  CE2       26.4650   -0.7340   76.7670 C.ar  1002  PHE1002    -0.0003
     11  CZ        25.6410   -0.8000   75.6480 C.ar  1002  PHE1002    -0.0000
     12  OXT       30.6010   -4.5250   78.2510 O.co2 1002  PHE1002    -0.2440
@<TRIPOS>BOND
     1     9     7   ar
     2     9    11   ar
     3     7     6   ar
     4     1     2    1
     5    11    10   ar
     6     6     5    1
     7     6     8   ar
     8     5     2    1
     9     2     3    1
    10    10     8   ar
    11     4     3   ar
    12     3    12   ar
