@<TRIPOS>MOLECULE
1ofs_SUC_A_1.pdb
 23 24 0 0 0
SMALL
GASTEIGER

@<TRIPOS>ATOM
      1  C1        40.6290  -16.9890  -15.7540 C.3   1184  SUC1184     0.2713
      2  C2        39.3680  -17.1680  -14.8940 C.3   1184  SUC1184     0.2406
      3  C3        38.2720  -16.1730  -15.3330 C.3   1184  SUC1184     0.2198
      4  C4        38.8230  -14.7370  -15.2230 C.3   1184  SUC1184     0.2144
      5  C5        40.1100  -14.6180  -16.0820 C.3   1184  SUC1184     0.1835
      6  C6        40.8260  -13.2790  -16.0030 C.3   1184  SUC1184     0.2142
      7  O1        40.3220  -17.2800  -17.0940 O.3   1184  SUC1184    -0.3033
      8  O2        38.8890  -18.4840  -15.0390 O.3   1184  SUC1184    -0.2149
      9  O3        37.1620  -16.3250  -14.4460 O.3   1184  SUC1184    -0.2174
     10  O4        37.8490  -13.8170  -15.7220 O.3   1184  SUC1184    -0.2176
     11  O5        41.0900  -15.6170  -15.6040 O.3   1184  SUC1184    -0.3256
     12  O6        41.1530  -13.0250  -14.6210 O.3   1184  SUC1184    -0.2176
     13  C1'       41.4240  -19.4340  -17.2640 C.3   1184  SUC1184     0.2406
     14  C2'       41.3090  -18.0180  -17.8250 C.3   1184  SUC1184     0.2516
     15  C3'       40.9530  -18.0260  -19.3180 C.3   1184  SUC1184     0.2381
     16  C4'       41.3510  -16.6280  -19.6930 C.3   1184  SUC1184     0.2167
     17  C5'       42.7450  -16.6150  -19.0200 C.3   1184  SUC1184     0.1835
     18  C6'       43.2380  -15.2130  -18.7280 C.3   1184  SUC1184     0.2142
     19  O1'       42.5220  -20.1160  -17.8840 O.3   1184  SUC1184    -0.2149
     20  O2'       42.5710  -17.3620  -17.7740 O.3   1184  SUC1184    -0.3272
     21  O3'       39.5500  -18.2200  -19.5140 O.3   1184  SUC1184    -0.2150
     22  O4'       41.4770  -16.4960  -21.1110 O.3   1184  SUC1184    -0.2175
     23  O6'       44.6230  -15.2530  -18.4850 O.3   1184  SUC1184    -0.2176
@<TRIPOS>BOND
     1    22    16    1
     2    16    15    1
     3    16    17    1
     4    21    15    1
     5    15    14    1
     6    17    18    1
     7    17    20    1
     8    18    23    1
     9    19    13    1
    10    14    20    1
    11    14    13    1
    12    14     7    1
    13     7     1    1
    14     5     6    1
    15     5    11    1
    16     5     4    1
    17     6    12    1
    18     1    11    1
    19     1     2    1
    20    10     4    1
    21     3     4    1
    22     3     2    1
    23     3     9    1
    24     8     2    1
