@<TRIPOS>MOLECULE
1ofu_GDP_A_1.pdb
 28 30 0 0 0
SMALL
GASTEIGER

@<TRIPOS>ATOM
      1  PB       -52.9270   78.7950  314.0070 P.3   1318  GDP1318     0.5373
      2  O1B      -53.1030   78.0330  312.7690 O.2   1318  GDP1318    -0.2221
      3  O2B      -52.8520   80.2530  313.8580 O.3   1318  GDP1318    -0.1143
      4  O3B      -53.9990   78.3570  315.0320 O.3   1318  GDP1318    -0.1143
      5  O3A      -51.5350   78.2520  314.5940 O.3   1318  GDP1318    -0.2261
      6  PA       -50.1610   79.0270  314.9030 P.3   1318  GDP1318     0.2231
      7  O1A      -49.6860   79.5520  313.6210 O.2   1318  GDP1318    -0.5169
      8  O2A      -50.2010   79.8750  316.1010 O.3   1318  GDP1318    -0.4370
      9  O5'      -49.3150   77.7320  315.2460 O.3   1318  GDP1318    -0.3111
     10  C5'      -49.1620   76.7780  314.2240 C.3   1318  GDP1318     0.1813
     11  C4'      -47.7290   76.2180  314.1570 C.3   1318  GDP1318     0.1799
     12  O4'      -46.9310   77.0010  313.2670 O.3   1318  GDP1318    -0.3326
     13  C3'      -46.9430   76.0810  315.4560 C.3   1318  GDP1318     0.2158
     14  O3'      -47.1870   74.8250  316.0790 O.3   1318  GDP1318    -0.2175
     15  C2'      -45.4920   76.3680  315.0840 C.3   1318  GDP1318     0.2310
     16  O2'      -44.7120   75.2160  314.7970 O.3   1318  GDP1318    -0.2158
     17  C1'      -45.6280   77.2300  313.8420 C.3   1318  GDP1318     0.2293
     18  N9       -45.3160   78.6600  314.0910 N.pl3 1318  GDP1318    -0.2354
     19  C8       -45.5430   79.4790  315.1700 C.3   1318  GDP1318     0.2246
     20  N7       -45.1120   80.6990  315.0560 N.2   1318  GDP1318    -0.2322
     21  C5       -44.5410   80.7090  313.7950 C.2   1318  GDP1318     0.2182
     22  C6       -43.8740   81.7780  313.0750 C.1   1318  GDP1318     0.2372
     23  O6       -43.6690   82.9240  313.4420 O.2   1318  GDP1318    -0.2069
     24  N1       -43.4330   81.3720  311.8000 N.2   1318  GDP1318    -0.2485
     25  C2       -43.5990   80.1000  311.2570 C.1   1318  GDP1318     0.2531
     26  N2       -43.1160   79.9010  310.0210 N.pl3 1318  GDP1318    -0.0226
     27  N3       -44.2160   79.0930  311.9250 N.2   1318  GDP1318    -0.3074
     28  C4       -44.6610   79.4650  313.1820 C.2   1318  GDP1318     0.2300
@<TRIPOS>BOND
     1    26    25    1
     2    25    24    2
     3    25    27    2
     4    24    22    2
     5    27    28    2
     6     2     1    2
     7    22    23    2
     8    22    21    1
     9    28    21    1
    10    28    18    1
    11    12    17    1
    12    12    11    1
    13     7     6    2
    14    21    20    2
    15    17    18    1
    16    17    15    1
    17     3     1    1
    18     1     5    1
    19     1     4    1
    20    18    19    1
    21    11    10    1
    22    11    13    1
    23    10     9    1
    24     5     6    1
    25    16    15    1
    26     6     9    1
    27     6     8    1
    28    20    19    1
    29    15    13    1
    30    13    14    1
