@<TRIPOS>MOLECULE
1ofv_FMN_A_1.pdb
 31 33 0 0 0
SMALL
GASTEIGER

@<TRIPOS>ATOM
      1  N1        14.4250   21.8950   41.8530 N.2   170  FMN170     -0.2890
      2  C2        15.3270   21.8680   42.8810 C.1   170  FMN170      0.3669
      3  O2        16.5360   22.0350   42.6000 O.2   170  FMN170     -0.1744
      4  N3        14.9660   21.5810   44.1800 N.2   170  FMN170     -0.2300
      5  C4        13.6360   21.3080   44.5750 C.1   170  FMN170      0.2513
      6  O4        13.3990   21.0620   45.7540 O.2   170  FMN170     -0.2057
      7  C4A       12.6710   21.3590   43.4720 C.2   170  FMN170      0.2700
      8  N5        11.4050   21.1540   43.7630 N.2   170  FMN170     -0.3878
      9  C5A       10.5110   21.3070   42.7310 C.2   170  FMN170      0.1320
     10  C6         9.1150   21.2580   43.0870 C.2   170  FMN170      0.0250
     11  C7         8.2010   21.4330   42.0800 C.2   170  FMN170     -0.0238
     12  C7M        6.7280   21.4100   42.4180 C.3   170  FMN170      0.0308
     13  C8         8.5980   21.6280   40.7650 C.2   170  FMN170     -0.0280
     14  C8M        7.6300   21.8640   39.6350 C.3   170  FMN170      0.0304
     15  C9         9.9510   21.6830   40.3810 C.2   170  FMN170     -0.0041
     16  C9A       10.8880   21.5460   41.4080 C.3   170  FMN170      0.1497
     17  N10       12.2810   21.6440   41.1110 N.pl3 170  FMN170     -0.2691
     18  C10       13.1430   21.6010   42.1570 C.2   170  FMN170      0.2416
     19  C1'       12.6770   21.9180   39.7500 C.3   170  FMN170      0.1294
     20  C2'       12.7820   20.6880   38.8590 C.3   170  FMN170      0.2044
     21  O2'       13.7290   19.7290   39.3830 O.3   170  FMN170     -0.2185
     22  C3'       13.0420   20.8070   37.4210 C.3   170  FMN170      0.2164
     23  O3'       11.9300   21.5370   36.9350 O.3   170  FMN170     -0.2175
     24  C4'       13.5860   19.8040   36.4340 C.3   170  FMN170      0.2147
     25  O4'       13.8860   20.4170   35.2180 O.3   170  FMN170     -0.2176
     26  C5'       12.5030   18.7050   36.4470 C.3   170  FMN170      0.1892
     27  O5'       13.2080   17.6120   35.8710 O.3   170  FMN170     -0.2674
     28  P         12.4440   16.3130   35.2680 P.3   170  FMN170      0.5327
     29  O1P       13.5390   15.3120   34.7960 O.3   170  FMN170     -0.1145
     30  O2P       11.6590   16.6890   34.0650 O.2   170  FMN170     -0.2224
     31  O3P       11.7370   15.7590   36.4270 O.3   170  FMN170     -0.1145
@<TRIPOS>BOND
     1    30    28    2
     2    29    28    1
     3    25    24    1
     4    28    27    1
     5    28    31    1
     6    27    26    1
     7    24    26    1
     8    24    22    1
     9    23    22    1
    10    22    20    1
    11    20    21    1
    12    20    19    1
    13    14    13    1
    14    19    17    1
    15    15    13    2
    16    15    16    1
    17    13    11    1
    18    17    16    1
    19    17    18    1
    20    16     9    1
    21     1    18    2
    22     1     2    2
    23    11    12    1
    24    11    10    2
    25    18     7    1
    26     3     2    2
    27     9    10    1
    28     9     8    2
    29     2     4    2
    30     7     8    2
    31     7     5    1
    32     4     5    2
    33     5     6    2
