@<TRIPOS>MOLECULE
1ofw_HEC_A_1.pdb
 43 50 0 0 0
SMALL
GASTEIGER

@<TRIPOS>ATOM
      1 FE          2.1640  -19.3570    1.4250 Fe    1294  HEC1294     0.0000
      2  CHA       -0.9790  -20.6170    1.7400 C.2   1294  HEC1294     0.0000
      3  CHB        3.0600  -21.9940   -0.5710 C.2   1294  HEC1294     0.0000
      4  CHC        5.0990  -17.8100    0.7020 C.2   1294  HEC1294     0.0000
      5  CHD        1.4900  -17.0120    3.8210 C.2   1294  HEC1294     0.0000
      6  NA         1.2370  -20.9710    0.7420 N.ar  1294  HEC1294     0.0000
      7  C1A       -0.0820  -21.3060    0.9500 C.ar  1294  HEC1294     0.0000
      8  C2A       -0.3750  -22.5470    0.2410 C.ar  1294  HEC1294     0.0000
      9  C3A        0.7470  -22.9270   -0.3830 C.ar  1294  HEC1294     0.0000
     10  C4A        1.7730  -21.9530   -0.0850 C.ar  1294  HEC1294     0.0000
     11  CMA        1.0210  -24.1530   -1.2810 C.3   1294  HEC1294     0.0000
     12  CAA       -1.7290  -23.2880    0.2600 C.3   1294  HEC1294     0.0000
     13  CBA       -1.6270  -24.3260    1.4030 C.3   1294  HEC1294     0.0000
     14  CGA       -2.8880  -25.0420    1.8050 C.2   1294  HEC1294     0.0000
     15  O1A       -4.0110  -24.5190    1.6610 O.co2 1294  HEC1294     0.0000
     16  O2A       -2.7270  -26.1970    2.2880 O.co2 1294  HEC1294     0.0000
     17  NB         3.7660  -19.8370    0.3390 N.2   1294  HEC1294     0.0000
     18  C1B        3.9820  -20.9910   -0.4150 C.2   1294  HEC1294     0.0000
     19  C2B        5.3090  -20.9410   -1.0020 C.2   1294  HEC1294     0.0000
     20  C3B        5.8550  -19.7490   -0.7040 C.2   1294  HEC1294     0.0000
     21  C4B        4.8770  -19.0610    0.1480 C.2   1294  HEC1294     0.0000
     22  CMB        5.9140  -22.0960   -1.8380 C.3   1294  HEC1294     0.0000
     23  CAB        7.1880  -19.1300   -1.1080 C.3   1294  HEC1294     0.0000
     24  CBB        7.3290  -18.9630   -2.6260 C.3   1294  HEC1294     0.0000
     25  NC         3.0980  -17.7500    2.1280 N.ar  1294  HEC1294     0.0000
     26  C1C        4.3000  -17.2720    1.6960 C.ar  1294  HEC1294     0.0000
     27  C2C        4.6500  -16.0870    2.4370 C.ar  1294  HEC1294     0.0000
     28  C3C        3.6760  -15.8770    3.3380 C.ar  1294  HEC1294     0.0000
     29  C4C        2.6820  -16.9000    3.1480 C.ar  1294  HEC1294     0.0000
     30  CMC        5.9580  -15.2920    2.2360 C.3   1294  HEC1294     0.0000
     31  CAC        3.5830  -14.8350    4.4580 C.3   1294  HEC1294     0.0000
     32  CBC        3.6980  -13.3780    3.9970 C.3   1294  HEC1294     0.0000
     33  ND         0.6030  -18.9380    2.5880 N.2   1294  HEC1294     0.0000
     34  C1D        0.4950  -17.9210    3.5190 C.2   1294  HEC1294     0.0000
     35  C2D       -0.8160  -17.9250    4.0930 C.2   1294  HEC1294     0.0000
     36  C3D       -1.5440  -18.8670    3.4650 C.2   1294  HEC1294     0.0000
     37  C4D       -0.6300  -19.5310    2.5370 C.2   1294  HEC1294     0.0000
     38  CMD       -1.2420  -16.9410    5.2220 C.3   1294  HEC1294     0.0000
     39  CAD       -3.0250  -19.2060    3.6330 C.3   1294  HEC1294     0.0000
     40  CBD       -3.2710  -20.4480    4.5170 C.3   1294  HEC1294     0.0000
     41  CGD       -4.7980  -20.7340    4.5740 C.2   1294  HEC1294     0.0000
     42  O1D       -5.2570  -20.8500    5.7270 O.co2 1294  HEC1294     0.0000
     43  O2D       -5.4720  -20.8510    3.5390 O.co2 1294  HEC1294     0.0000
@<TRIPOS>BOND
     1    24    23    1
     2    22    19    1
     3    11     9    1
     4    23    20    1
     5    19    20    2
     6    19    18    1
     7    20    21    1
     8     3    18    1
     9     3    10    2
    10    18    17    2
    11     9    10   ar
    12     9     8   ar
    13    10     6   ar
    14    21    17    1
    15    21     4    2
    16     8    12    1
    17     8     7   ar
    18    12    13    1
    19    17     1    1
    20     4    26    1
    21     6     7   ar
    22     6     1    1
    23     7     2    2
    24    13    14    1
    25     1    25    1
    26     1    33    1
    27    15    14   ar
    28    26    25   ar
    29    26    27   ar
    30     2    37    1
    31    14    16   ar
    32    25    29   ar
    33    30    27    1
    34    27    28   ar
    35    37    33    2
    36    37    36    1
    37    33    34    1
    38    29    28   ar
    39    29     5    1
    40    28    31    1
    41    36    39    1
    42    36    35    2
    43    34     5    2
    44    34    35    1
    45    43    41   ar
    46    39    40    1
    47    32    31    1
    48    35    38    1
    49    40    41    1
    50    41    42   ar
