@<TRIPOS>MOLECULE
1ofy_HEC_A_10.pdb
 43 50 0 0 0
SMALL
GASTEIGER

@<TRIPOS>ATOM
      1 FE          8.4810   -7.3950  -13.1250 Fe    1297  HEC1297     0.0000
      2  CHA        9.0920  -10.7900  -12.9660 C.2   1297  HEC1297     0.0000
      3  CHB       10.5470   -7.1730  -15.7820 C.2   1297  HEC1297     0.0000
      4  CHC        7.8440   -4.0520  -13.3570 C.2   1297  HEC1297     0.0000
      5  CHD        6.4000   -7.6280  -10.4910 C.2   1297  HEC1297     0.0000
      6  NA         9.5800   -8.7330  -14.1470 N.ar  1297  HEC1297     0.0000
      7  C1A        9.7430  -10.1120  -13.9670 C.ar  1297  HEC1297     0.0000
      8  C2A       10.5940  -10.6570  -14.9920 C.ar  1297  HEC1297     0.0000
      9  C3A       10.9970   -9.6270  -15.7670 C.ar  1297  HEC1297     0.0000
     10  C4A       10.3660   -8.4290  -15.2480 C.ar  1297  HEC1297     0.0000
     11  CMA       11.9490   -9.6730  -16.9680 C.3   1297  HEC1297     0.0000
     12  CAA       10.9580  -12.1330  -15.1710 C.3   1297  HEC1297     0.0000
     13  CBA       11.9990  -12.5820  -14.1360 C.3   1297  HEC1297     0.0000
     14  CGA       13.4320  -12.2210  -14.4980 C.2   1297  HEC1297     0.0000
     15  O1A       13.7640  -12.4270  -15.6860 O.co2 1297  HEC1297     0.0000
     16  O2A       14.1250  -11.7690  -13.5640 O.co2 1297  HEC1297     0.0000
     17  NB         9.1510   -5.8990  -14.2700 N.2   1297  HEC1297     0.0000
     18  C1B       10.0710   -5.9800  -15.2960 C.2   1297  HEC1297     0.0000
     19  C2B       10.4010   -4.6520  -15.7600 C.2   1297  HEC1297     0.0000
     20  C3B        9.6050   -3.7850  -15.1060 C.2   1297  HEC1297     0.0000
     21  C4B        8.8100   -4.5630  -14.1820 C.2   1297  HEC1297     0.0000
     22  CMB       11.4420   -4.3320  -16.8370 C.3   1297  HEC1297     0.0000
     23  CAB        9.4730   -2.2670  -15.2580 C.3   1297  HEC1297     0.0000
     24  CBB        9.2750   -1.8190  -16.7100 C.3   1297  HEC1297     0.0000
     25  NC         7.2680   -6.1230  -12.1820 N.ar  1297  HEC1297     0.0000
     26  C1C        7.1550   -4.7670  -12.4070 C.ar  1297  HEC1297     0.0000
     27  C2C        6.2120   -4.1840  -11.4760 C.ar  1297  HEC1297     0.0000
     28  C3C        5.8330   -5.1790  -10.6450 C.ar  1297  HEC1297     0.0000
     29  C4C        6.4990   -6.3860  -11.0760 C.ar  1297  HEC1297     0.0000
     30  CMC        5.7930   -2.7040  -11.4610 C.3   1297  HEC1297     0.0000
     31  CAC        4.8980   -5.0580   -9.4450 C.3   1297  HEC1297     0.0000
     32  CBC        3.5340   -4.4040   -9.7150 C.3   1297  HEC1297     0.0000
     33  ND         7.7900   -8.9200  -12.0260 N.2   1297  HEC1297     0.0000
     34  C1D        7.0010   -8.7940  -10.9040 C.2   1297  HEC1297     0.0000
     35  C2D        6.9000  -10.0690  -10.2290 C.2   1297  HEC1297     0.0000
     36  C3D        7.7260  -10.9170  -10.8710 C.2   1297  HEC1297     0.0000
     37  C4D        8.2470  -10.2230  -12.0300 C.2   1297  HEC1297     0.0000
     38  CMD        6.0040  -10.3540   -9.0180 C.3   1297  HEC1297     0.0000
     39  CAD        8.0990  -12.3550  -10.4860 C.3   1297  HEC1297     0.0000
     40  CBD        9.2590  -12.3620   -9.4710 C.3   1297  HEC1297     0.0000
     41  CGD       10.5990  -12.2050  -10.1700 C.2   1297  HEC1297     0.0000
     42  O1D       11.3130  -11.2300   -9.8460 O.co2 1297  HEC1297     0.0000
     43  O2D       10.8740  -13.0810  -11.0220 O.co2 1297  HEC1297     0.0000
@<TRIPOS>BOND
     1    11     9    1
     2    22    19    1
     3    24    23    1
     4     3    18    1
     5     3    10    2
     6     9    10   ar
     7     9     8   ar
     8    19    18    1
     9    19    20    2
    10    15    14   ar
    11    18    17    2
    12    23    20    1
    13    10     6   ar
    14    12     8    1
    15    12    13    1
    16    20    21    1
    17     8     7   ar
    18    14    13    1
    19    14    16   ar
    20    17    21    1
    21    17     1    1
    22    21     4    2
    23     6     7   ar
    24     6     1    1
    25     7     2    2
    26     4    26    1
    27     1    25    1
    28     1    33    1
    29     2    37    1
    30    26    25   ar
    31    26    27   ar
    32    25    29   ar
    33    37    33    2
    34    37    36    1
    35    33    34    1
    36    27    30    1
    37    27    28   ar
    38    29    28   ar
    39    29     5    1
    40    43    41   ar
    41    34     5    2
    42    34    35    1
    43    36    39    1
    44    36    35    2
    45    28    31    1
    46    39    40    1
    47    35    38    1
    48    41    42   ar
    49    41    40    1
    50    32    31    1
