@<TRIPOS>MOLECULE
1ofz_FUL_A_1.pdb
 11 11 0 0 0
SMALL
GASTEIGER

@<TRIPOS>ATOM
      1  C1        26.1910   39.5350   36.7490 C.3   1313  FUL1313     0.3023
      2  C2        26.7860   38.6170   37.8200 C.3   1313  FUL1313     0.2434
      3  O2        25.7490   37.6980   38.2290 O.3   1313  FUL1313    -0.2148
      4  C3        27.9850   37.8500   37.2840 C.3   1313  FUL1313     0.2198
      5  O3        28.5020   36.9650   38.2670 O.3   1313  FUL1313    -0.2174
      6  C4        29.0330   38.8200   36.7580 C.3   1313  FUL1313     0.2118
      7  O4        29.6500   39.5520   37.7810 O.3   1313  FUL1313    -0.2177
      8  C5        28.3190   39.7260   35.7560 C.3   1313  FUL1313     0.1509
      9  C6        29.3000   40.7080   35.1150 C.3   1313  FUL1313     0.0350
     10  O5        27.2980   40.4370   36.4820 O.3   1313  FUL1313    -0.3264
     11  O1        25.2380   40.4350   37.2690 O.3   1313  FUL1313    -0.1869
@<TRIPOS>BOND
     1     9     8    1
     2     8    10    1
     3     8     6    1
     4    10     1    1
     5     1    11    1
     6     1     2    1
     7     6     4    1
     8     6     7    1
     9     4     2    1
    10     4     5    1
    11     2     3    1
