@<TRIPOS>MOLECULE
1ofz_FUC_A_1.pdb
 11 11 0 0 0
SMALL
GASTEIGER

@<TRIPOS>ATOM
      1  C1        58.1260   56.9700   36.2610 C.3   1316  FUC1316     0.3023
      2  C2        58.3080   56.5030   37.7080 C.3   1316  FUC1316     0.2434
      3  C3        57.3450   57.2400   38.6170 C.3   1316  FUC1316     0.2198
      4  C4        55.9120   57.0990   38.0820 C.3   1316  FUC1316     0.2118
      5  C5        55.8370   57.6130   36.6380 C.3   1316  FUC1316     0.1509
      6  C6        54.4510   57.4890   36.0090 C.3   1316  FUC1316     0.0350
      7  O1        58.5920   58.3100   36.1700 O.3   1316  FUC1316    -0.1869
      8  O2        59.6550   56.6820   38.1380 O.3   1316  FUC1316    -0.2148
      9  O3        57.4650   56.8730   39.9900 O.3   1316  FUC1316    -0.2174
     10  O4        55.5400   55.7200   38.0590 O.3   1316  FUC1316    -0.2177
     11  O5        56.7630   56.8940   35.8430 O.3   1316  FUC1316    -0.3264
@<TRIPOS>BOND
     1    11     1    1
     2    11     5    1
     3     6     5    1
     4     7     1    1
     5     1     2    1
     6     5     4    1
     7     2     8    1
     8     2     3    1
     9    10     4    1
    10     4     3    1
    11     3     9    1
