@<TRIPOS>MOLECULE
1og0_PHE_A_1.pdb
 12 12 0 0 0
SMALL
GASTEIGER

@<TRIPOS>ATOM
      1  N         30.7460   -2.9580   50.1970 N.3   1012  PHE1012    -0.1205
      2  CA        31.3530   -2.7490   48.8540 C.3   1012  PHE1012     0.1986
      3  C         31.7730   -4.0740   48.1960 C.2   1012  PHE1012     0.3822
      4  O         31.6140   -5.1320   48.8500 O.co2 1012  PHE1012    -0.2440
      5  CB        32.5460   -1.7960   48.9750 C.3   1012  PHE1012     0.0569
      6  CG        32.1610   -0.3910   49.3550 C.ar  1012  PHE1012    -0.0202
      7  CD1       32.5250    0.1370   50.5930 C.ar  1012  PHE1012    -0.0042
      8  CD2       31.4370    0.4080   48.4700 C.ar  1012  PHE1012    -0.0042
      9  CE1       32.1780    1.4470   50.9550 C.ar  1012  PHE1012    -0.0003
     10  CE2       31.0830    1.7140   48.8120 C.ar  1012  PHE1012    -0.0003
     11  CZ        31.4550    2.2410   50.0630 C.ar  1012  PHE1012    -0.0000
     12  OXT       32.2400   -4.0550   47.0310 O.co2 1012  PHE1012    -0.2440
@<TRIPOS>BOND
     1    12     3   ar
     2     3     4   ar
     3     3     2    1
     4     8    10   ar
     5     8     6   ar
     6    10    11   ar
     7     2     5    1
     8     2     1    1
     9     5     6    1
    10     6     7   ar
    11    11     9   ar
    12     7     9   ar
