@<TRIPOS>MOLECULE
1og2_HEC_A_1.pdb
 43 50 0 0 0
SMALL
GASTEIGER

@<TRIPOS>ATOM
      1 FE         13.6260   69.6380   19.9590 Fe    501  HEC501      0.0000
      2  CHA       11.2560   68.0830   22.1120 C.2   501  HEC501      0.0000
      3  CHB       15.5880   70.1370   22.6770 C.2   501  HEC501      0.0000
      4  CHC       15.8130   71.1940   17.8230 C.2   501  HEC501      0.0000
      5  CHD       11.4720   69.1060   17.2840 C.2   501  HEC501      0.0000
      6  NA        13.4630   69.1680   22.1020 N.2   501  HEC501      0.0000
      7  C1A       12.4490   68.5570   22.7510 C.2   501  HEC501      0.0000
      8  C2A       12.6490   68.3620   24.1650 C.2   501  HEC501      0.0000
      9  C3A       13.9680   68.9880   24.4030 C.2   501  HEC501      0.0000
     10  C4A       14.3540   69.4450   23.0310 C.2   501  HEC501      0.0000
     11  CMA       14.7460   69.1340   25.6600 C.3   501  HEC501      0.0000
     12  CAA       11.6480   67.6890   25.0070 C.3   501  HEC501      0.0000
     13  CBA       12.0400   67.2050   26.3550 C.3   501  HEC501      0.0000
     14  CGA       11.2990   65.9720   26.7760 C.2   501  HEC501      0.0000
     15  O1A       10.1220   65.8140   26.4960 O.co2 501  HEC501      0.0000
     16  O2A       11.9050   65.1530   27.4300 O.co2 501  HEC501      0.0000
     17  NB        15.3360   70.4670   20.2280 N.ar  501  HEC501      0.0000
     18  C1B       16.0400   70.6210   21.3690 C.ar  501  HEC501      0.0000
     19  C2B       17.3740   71.3010   21.2120 C.ar  501  HEC501      0.0000
     20  C3B       17.3900   71.6190   19.7870 C.ar  501  HEC501      0.0000
     21  C4B       16.1190   71.0710   19.2680 C.ar  501  HEC501      0.0000
     22  CMB       18.4160   71.6270   22.2310 C.3   501  HEC501      0.0000
     23  CAB       18.4260   72.2660   18.9750 C.3   501  HEC501      0.0000
     24  CBB       19.5630   73.0520   19.5890 C.3   501  HEC501      0.0000
     25  NC        13.6350   70.0890   17.8100 N.2   501  HEC501      0.0000
     26  C1C       14.6080   70.6960   17.1360 C.2   501  HEC501      0.0000
     27  C2C       14.3560   70.8250   15.6670 C.2   501  HEC501      0.0000
     28  C3C       13.0360   70.1890   15.5540 C.2   501  HEC501      0.0000
     29  C4C       12.7040   69.7760   16.9080 C.2   501  HEC501      0.0000
     30  CMC       15.2080   71.4630   14.6170 C.3   501  HEC501      0.0000
     31  CAC       12.2130   69.9940   14.3390 C.3   501  HEC501      0.0000
     32  CBC       11.6500   68.5990   14.1500 C.3   501  HEC501      0.0000
     33  ND        11.8880   68.8130   19.7740 N.ar  501  HEC501      0.0000
     34  C1D       11.1290   68.6550   18.6280 C.ar  501  HEC501      0.0000
     35  C2D        9.7960   67.9960   18.7910 C.ar  501  HEC501      0.0000
     36  C3D        9.7400   67.6720   20.1850 C.ar  501  HEC501      0.0000
     37  C4D       11.0300   68.2320   20.6870 C.ar  501  HEC501      0.0000
     38  CMD        8.6870   67.6080   17.8260 C.3   501  HEC501      0.0000
     39  CAD        8.5740   67.0010   20.9100 C.2   501  HEC501      0.0000
     40  CBD        8.7140   65.5580   21.3100 C.2   501  HEC501      0.0000
     41  CGD        7.6690   64.9510   21.9260 C.2   501  HEC501      0.0000
     42  O1D        7.4750   63.7480   21.8410 O.co2 501  HEC501      0.0000
     43  O2D        6.8850   65.5840   22.6070 O.co2 501  HEC501      0.0000
@<TRIPOS>BOND
     1    32    31    1
     2    31    28    1
     3    30    27    1
     4    28    27    2
     5    28    29    1
     6    27    26    1
     7    29     5    1
     8    29    25    2
     9    26    25    1
    10    26     4    2
    11     5    34    2
    12    25     1    1
    13     4    21    1
    14    38    35    1
    15    34    35   ar
    16    34    33   ar
    17    35    36   ar
    18    23    24    1
    19    23    20    1
    20    21    20   ar
    21    21    17   ar
    22    33     1    1
    23    33    37   ar
    24    20    19   ar
    25     1    17    1
    26     1     6    1
    27    36    37   ar
    28    36    39    1
    29    17    18   ar
    30    37     2    2
    31    39    40    2
    32    19    18   ar
    33    19    22    1
    34    40    41    1
    35    18     3    1
    36    42    41   ar
    37    41    43   ar
    38     6     7    2
    39     6    10    1
    40     2     7    1
    41     3    10    2
    42     7     8    1
    43    10     9    1
    44     8     9    2
    45     8    12    1
    46     9    11    1
    47    12    13    1
    48    13    14    1
    49    15    14   ar
    50    14    16   ar
