@<TRIPOS>MOLECULE
1og3_NAD_A_1.pdb
 44 48 0 0 0
SMALL
GASTEIGER

@<TRIPOS>ATOM
      1  PA        26.1130   27.0820   31.1950 P.3   1227  NAD1227     0.2189
      2  O1A       26.9110   26.6820   32.5350 O.3   1227  NAD1227    -0.4371
      3  O2A       25.4960   28.4140   31.0150 O.2   1227  NAD1227    -0.5170
      4  O5B       24.8020   26.2140   31.5490 O.3   1227  NAD1227    -0.3112
      5  C5B       24.3230   26.0700   32.8910 C.3   1227  NAD1227     0.1813
      6  C4B       23.1330   27.0060   33.1200 C.3   1227  NAD1227     0.1821
      7  O4B       23.8460   28.2400   33.3430 O.3   1227  NAD1227    -0.3135
      8  C3B       21.7340   27.4890   32.7520 C.3   1227  NAD1227     0.2184
      9  O3B       20.7840   26.4670   33.0650 O.3   1227  NAD1227    -0.2174
     10  C2B       21.7600   28.5160   33.8970 C.3   1227  NAD1227     0.2570
     11  O2B       21.9720   27.8730   35.1580 O.3   1227  NAD1227    -0.2130
     12  C1B       22.9670   29.3710   33.5070 C.3   1227  NAD1227     0.3186
     13  N9A       22.1620   29.6470   32.2860 N.pl3 1227  NAD1227    -0.1439
     14  C8A       22.4800   29.2820   31.0430 C.3   1227  NAD1227     0.3377
     15  N7A       21.6690   29.8700   30.1670 N.2   1227  NAD1227    -0.2095
     16  C5A       20.8150   30.6230   30.8530 C.2   1227  NAD1227     0.2526
     17  C6A       19.7620   31.4640   30.5100 C.2   1227  NAD1227     0.4393
     18  N6A       19.4180   31.6310   29.2360 N.pl3 1227  NAD1227     0.2180
     19  N1A       19.0910   32.1020   31.4810 N.2   1227  NAD1227     0.0021
     20  C2A       19.4120   31.9450   32.7540 C.3   1227  NAD1227     0.5254
     21  N3A       20.4070   31.1510   33.1120 N.2   1227  NAD1227    -0.0055
     22  C4A       21.1250   30.4800   32.1980 C.2   1227  NAD1227     0.3518
     23  O3        26.5110   26.1510   29.9420 O.3   1227  NAD1227    -0.2703
     24  PN        27.1610   24.6960   30.1680 P.3   1227  NAD1227     0.2189
     25  O1N       26.8360   24.2730   31.6870 O.3   1227  NAD1227    -0.4371
     26  O2N       26.6860   23.6820   29.2000 O.2   1227  NAD1227    -0.5170
     27  O5D       28.7560   24.8940   30.0890 O.3   1227  NAD1227    -0.3112
     28  C5D       29.6090   24.3270   31.0870 C.3   1227  NAD1227     0.1813
     29  C4D       30.7970   23.6660   30.3870 C.3   1227  NAD1227     0.1799
     30  O4D       30.0400   22.6930   29.6340 O.3   1227  NAD1227    -0.3327
     31  C3D       32.1950   23.0800   30.2510 C.3   1227  NAD1227     0.2158
     32  O3D       32.3780   21.9060   31.0470 O.3   1227  NAD1227    -0.2175
     33  C2D       32.1090   22.7400   28.7540 C.3   1227  NAD1227     0.2309
     34  O2D       33.2440   21.9910   28.3110 O.3   1227  NAD1227    -0.2158
     35  C1D       30.9080   21.8180   28.8850 C.3   1227  NAD1227     0.2263
     36  N1N       30.0000   20.9390   28.1120 N.pl3 1227  NAD1227    -0.2787
     37  C2N       28.6070   21.0780   28.2020 C.3   1227  NAD1227     0.1244
     38  C3N       27.7780   20.2720   27.4290 C.2   1227  NAD1227     0.0544
     39  C7N       26.2550   20.3890   27.5330 C.2   1227  NAD1227     0.2818
     40  O7N       25.5170   19.5920   26.9550 O.2   1227  NAD1227    -0.2670
     41  N7N       25.8110   21.3900   28.2880 N.am  1227  NAD1227    -0.0839
     42  C4N       28.3390   19.3320   26.5700 C.2   1227  NAD1227     0.0033
     43  C5N       29.7200   19.1840   26.4740 C.2   1227  NAD1227     0.0157
     44  C6N       30.5540   19.9860   27.2450 C.2   1227  NAD1227     0.0633
@<TRIPOS>BOND
     1    43    42    1
     2    43    44    2
     3    42    38    2
     4    40    39    2
     5    44    36    1
     6    38    39    1
     7    38    37    1
     8    39    41   am
     9    36    37    1
    10    36    35    1
    11    34    33    1
    12    33    35    1
    13    33    31    1
    14    35    30    1
    15    26    24    2
    16    18    17    1
    17    30    29    1
    18    23    24    1
    19    23     1    1
    20    27    24    1
    21    27    28    1
    22    15    16    2
    23    15    14    1
    24    24    25    1
    25    31    29    1
    26    31    32    1
    27    29    28    1
    28    17    16    1
    29    17    19    2
    30    16    22    1
    31     3     1    2
    32    14    13    1
    33     1     4    1
    34     1     2    1
    35    19    20    1
    36     4     5    1
    37    22    13    1
    38    22    21    2
    39    13    12    1
    40     8     9    1
    41     8     6    1
    42     8    10    1
    43    20    21    1
    44     5     6    1
    45     6     7    1
    46     7    12    1
    47    12    10    1
    48    10    11    1
