@<TRIPOS>MOLECULE
1og4_NAI_A_1.pdb
 44 48 0 0 0
SMALL
GASTEIGER

@<TRIPOS>ATOM
      1  PA        10.1620   36.5860    7.9580 P.3   1227  NAI1227     0.2189
      2  O1A       10.6000   35.8230    9.1470 O.3   1227  NAI1227    -0.4371
      3  O2A       10.7430   37.8720    7.5110 O.2   1227  NAI1227    -0.5170
      4  O5B       10.8420   35.6330    6.8530 O.3   1227  NAI1227    -0.3112
      5  C5B       12.2240   35.7930    6.5220 C.3   1227  NAI1227     0.1813
      6  C4B       12.6380   34.7680    5.4630 C.3   1227  NAI1227     0.1821
      7  O4B       14.0460   34.8510    5.1730 O.3   1227  NAI1227    -0.3135
      8  C3B       12.3850   33.3390    5.9430 C.3   1227  NAI1227     0.2184
      9  O3B       11.0730   32.9320    5.5480 O.3   1227  NAI1227    -0.2174
     10  C2B       13.4300   32.5950    5.1150 C.3   1227  NAI1227     0.2570
     11  O2B       13.0490   32.5830    3.7360 O.3   1227  NAI1227    -0.2130
     12  C1B       14.6180   33.5380    5.3170 C.3   1227  NAI1227     0.3186
     13  N9A       15.1990   33.4100    6.6760 N.pl3 1227  NAI1227    -0.1439
     14  C8A       14.5920   33.6620    7.8350 C.3   1227  NAI1227     0.3377
     15  N7A       15.4270   33.4290    8.8450 N.2   1227  NAI1227    -0.2095
     16  C5A       16.5830   33.0260    8.3260 C.2   1227  NAI1227     0.2526
     17  C6A       17.8080   32.6450    8.8600 C.2   1227  NAI1227     0.4393
     18  N6A       17.9930   32.6280   10.1770 N.pl3 1227  NAI1227     0.2180
     19  N1A       18.8000   32.2890    8.0290 N.2   1227  NAI1227     0.0021
     20  C2A       18.6320   32.2930    6.7170 C.3   1227  NAI1227     0.5254
     21  N3A       17.4770   32.6470    6.1780 N.2   1227  NAI1227    -0.0055
     22  C4A       16.4400   33.0160    6.9450 C.2   1227  NAI1227     0.3518
     23  O3         8.6870   36.3000    7.3790 O.3   1227  NAI1227    -0.2703
     24  PN         7.5900   35.5280    8.2700 P.3   1227  NAI1227     0.2189
     25  O1N        8.1620   35.2180    9.6000 O.3   1227  NAI1227    -0.4371
     26  O2N        7.0100   34.4220    7.4780 O.2   1227  NAI1227    -0.5170
     27  O5D        6.4590   36.6530    8.4880 O.3   1227  NAI1227    -0.3112
     28  C5D        5.7750   37.2080    7.3610 C.3   1227  NAI1227     0.1813
     29  C4D        4.5660   38.0400    7.7980 C.3   1227  NAI1227     0.1799
     30  O4D        3.6900   37.1540    8.5230 O.3   1227  NAI1227    -0.3327
     31  C3D        4.9660   39.1410    8.7820 C.3   1227  NAI1227     0.2158
     32  O3D        4.0430   40.2330    8.7400 O.3   1227  NAI1227    -0.2175
     33  C2D        4.8560   38.4100   10.1170 C.3   1227  NAI1227     0.2309
     34  O2D        4.6760   39.3320   11.1960 O.3   1227  NAI1227    -0.2158
     35  C1D        3.5510   37.6570    9.8640 C.3   1227  NAI1227     0.2263
     36  N1N        3.2570   36.5910   10.8490 N.pl3 1227  NAI1227    -0.2787
     37  C2N        3.9130   35.3540   10.7710 C.3   1227  NAI1227     0.1244
     38  C3N        3.5940   34.3430   11.6730 C.2   1227  NAI1227     0.0544
     39  C7N        4.2760   32.9750   11.5790 C.2   1227  NAI1227     0.2818
     40  O7N        3.8800   32.0230   12.2500 O.2   1227  NAI1227    -0.2670
     41  N7N        5.2930   32.9050   10.7240 N.am  1227  NAI1227    -0.0839
     42  C4N        2.6290   34.5710   12.6490 C.2   1227  NAI1227     0.0033
     43  C5N        1.9760   35.7970   12.7370 C.2   1227  NAI1227     0.0157
     44  C6N        2.2880   36.8110   11.8380 C.2   1227  NAI1227     0.0633
@<TRIPOS>BOND
     1    11    10    1
     2    10    12    1
     3    10     8    1
     4     7    12    1
     5     7     6    1
     6    12    13    1
     7     6     8    1
     8     6     5    1
     9     9     8    1
    10    21    20    1
    11    21    22    2
    12     5     4    1
    13    13    22    1
    14    13    14    1
    15    20    19    1
    16     4     1    1
    17    22    16    1
    18    28    29    1
    19    28    27    1
    20    23     1    1
    21    23    24    1
    22    26    24    2
    23     3     1    2
    24    29    30    1
    25    29    31    1
    26    14    15    1
    27     1     2    1
    28    19    17    2
    29    24    27    1
    30    24    25    1
    31    16    15    2
    32    16    17    1
    33    30    35    1
    34    32    31    1
    35    31    33    1
    36    17    18    1
    37    35    33    1
    38    35    36    1
    39    33    34    1
    40    41    39   am
    41    37    36    1
    42    37    38    1
    43    36    44    1
    44    39    38    1
    45    39    40    2
    46    38    42    2
    47    44    43    2
    48    42    43    1
