@<TRIPOS>MOLECULE
1og5_SWF_A_1.pdb
 23 25 0 0 0
SMALL
GASTEIGER

@<TRIPOS>ATOM
      1  C1       -16.6230   88.6980   38.2170 C.3   502  SWF502      0.0723
      2  C2       -17.0280   88.9950   39.6520 C.2   502  SWF502      0.1518
      3  O3       -16.5570   89.9730   40.1880 O.2   502  SWF502     -0.2960
      4  C4       -18.0030   88.1000   40.4680 C.3   502  SWF502      0.0735
      5  C5       -18.8780   87.0900   39.5960 C.3   502  SWF502      0.0614
      6  C6       -19.5420   85.9190   40.3810 C.ar  502  SWF502     -0.0177
      7  C7       -19.9390   86.0580   41.7690 C.ar  502  SWF502     -0.0039
      8  C8       -20.5710   84.9490   42.4480 C.ar  502  SWF502     -0.0003
      9  C9       -20.8100   83.7010   41.7540 C.ar  502  SWF502     -0.0000
     10  C10      -20.4200   83.5490   40.3830 C.ar  502  SWF502     -0.0003
     11  C11      -19.7920   84.6370   39.6920 C.ar  502  SWF502     -0.0039
     12  C12      -20.1400   87.6770   38.8680 C.ar  502  SWF502      0.0968
     13  C13      -20.3900   87.2360   37.5520 C.ar  502  SWF502      0.2011
     14  O14      -19.5280   86.3220   36.9560 O.3   502  SWF502     -0.2866
     15  C15      -21.5880   87.7380   36.8240 C.ar  502  SWF502      0.0735
     16  C16      -21.8660   87.2940   35.5070 C.ar  502  SWF502      0.0062
     17  C17      -23.0170   87.7840   34.8650 C.ar  502  SWF502      0.0003
     18  C18      -23.9140   88.7230   35.4930 C.ar  502  SWF502      0.0031
     19  C19      -23.6540   89.1880   36.8090 C.ar  502  SWF502      0.0377
     20  C20      -22.4880   88.7080   37.5000 C.ar  502  SWF502      0.1517
     21  O21      -22.1830   89.1260   38.7920 O.2   502  SWF502     -0.4211
     22  C22      -21.0690   88.6400   39.4670 C.ar  502  SWF502      0.3451
     23  O23      -20.8820   89.0290   40.5750 O.2   502  SWF502     -0.2447
@<TRIPOS>BOND
     1    17    18   ar
     2    17    16   ar
     3    18    19   ar
     4    16    15   ar
     5    19    20   ar
     6    15    20   ar
     7    15    13   ar
     8    14    13    1
     9    20    21   ar
    10    13    12   ar
    11     1     2    1
    12    21    22   ar
    13    12    22   ar
    14    12     5    1
    15    22    23    2
    16     5     6    1
    17     5     4    1
    18     2     3    2
    19     2     4    1
    20    11     6   ar
    21    11    10   ar
    22     6     7   ar
    23    10     9   ar
    24     9     8   ar
    25     7     8   ar
