@<TRIPOS>MOLECULE
1og5_HEC_A_1.pdb
 43 50 0 0 0
SMALL
GASTEIGER

@<TRIPOS>ATOM
      1 FE        -24.1140   79.3130   29.6620 Fe    501  HEC501      0.0000
      2  CHA      -25.7350   81.3950   31.8300 C.2   501  HEC501      0.0000
      3  CHB      -23.4000   77.2710   32.3550 C.2   501  HEC501      0.0000
      4  CHC      -22.4490   77.2250   27.5210 C.2   501  HEC501      0.0000
      5  CHD      -24.8940   81.3060   27.0520 C.2   501  HEC501      0.0000
      6  NA       -24.5020   79.3370   31.7260 N.2   501  HEC501      0.0000
      7  C1A      -25.2020   80.3030   32.4170 C.2   501  HEC501      0.0000
      8  C2A      -25.2980   79.9890   33.8350 C.2   501  HEC501      0.0000
      9  C3A      -24.6300   78.7920   34.0280 C.2   501  HEC501      0.0000
     10  C4A      -24.1330   78.4130   32.6650 C.2   501  HEC501      0.0000
     11  CMA      -24.4160   77.9840   35.3040 C.3   501  HEC501      0.0000
     12  CAA      -26.0480   80.9490   34.7390 C.3   501  HEC501      0.0000
     13  CBA      -26.9850   80.2320   35.6420 C.3   501  HEC501      0.0000
     14  CGA      -27.9000   81.0760   36.5030 C.2   501  HEC501      0.0000
     15  O1A      -28.0750   82.2730   36.1680 O.co2 501  HEC501      0.0000
     16  O2A      -28.5470   80.4880   37.4000 O.co2 501  HEC501      0.0000
     17  NB       -23.1080   77.5860   29.9140 N.ar  501  HEC501      0.0000
     18  C1B      -22.9340   76.8950   31.1060 C.ar  501  HEC501      0.0000
     19  C2B      -22.1530   75.6860   30.8480 C.ar  501  HEC501      0.0000
     20  C3B      -21.8730   75.6840   29.4910 C.ar  501  HEC501      0.0000
     21  C4B      -22.4850   76.8780   28.9090 C.ar  501  HEC501      0.0000
     22  CMB      -21.7700   74.6760   31.9260 C.3   501  HEC501      0.0000
     23  CAB      -21.1130   74.6870   28.6880 C.2   501  HEC501      0.0000
     24  CBB      -20.3230   73.7190   29.1120 C.2   501  HEC501      0.0000
     25  NC       -23.7350   79.2800   27.5920 N.2   501  HEC501      0.0000
     26  C1C      -23.0420   78.3260   26.9000 C.2   501  HEC501      0.0000
     27  C2C      -23.0470   78.6410   25.4420 C.2   501  HEC501      0.0000
     28  C3C      -23.7680   79.8280   25.3100 C.2   501  HEC501      0.0000
     29  C4C      -24.1790   80.2070   26.6880 C.2   501  HEC501      0.0000
     30  CMC      -22.3760   77.7840   24.3610 C.3   501  HEC501      0.0000
     31  CAC      -24.1030   80.6380   24.0800 C.2   501  HEC501      0.0000
     32  CBC      -25.2640   81.2280   23.7780 C.2   501  HEC501      0.0000
     33  ND       -25.1210   81.0360   29.5010 N.ar  501  HEC501      0.0000
     34  C1D      -25.3280   81.7090   28.3220 C.ar  501  HEC501      0.0000
     35  C2D      -26.0610   82.8910   28.5820 C.ar  501  HEC501      0.0000
     36  C3D      -26.3000   82.9210   29.9260 C.ar  501  HEC501      0.0000
     37  C4D      -25.7140   81.7540   30.4940 C.ar  501  HEC501      0.0000
     38  CMD      -26.4760   83.8980   27.5430 C.3   501  HEC501      0.0000
     39  CAD      -27.0580   83.9890   30.6570 C.3   501  HEC501      0.0000
     40  CBD      -28.4690   83.4930   31.0180 C.3   501  HEC501      0.0000
     41  CGD      -29.2550   84.5910   31.7420 C.2   501  HEC501      0.0000
     42  O1D      -30.4890   84.6270   31.5560 O.co2 501  HEC501      0.0000
     43  O2D      -28.6250   85.3870   32.4710 O.co2 501  HEC501      0.0000
@<TRIPOS>BOND
     1    32    31    2
     2    31    28    1
     3    30    27    1
     4    28    27    2
     5    28    29    1
     6    27    26    1
     7    29     5    1
     8    29    25    2
     9    26     4    2
    10    26    25    1
    11     5    34    2
    12     4    21    1
    13    38    35    1
    14    25     1    1
    15    34    35   ar
    16    34    33   ar
    17    35    36   ar
    18    23    24    2
    19    23    20    1
    20    21    20   ar
    21    21    17   ar
    22    20    19   ar
    23    33     1    1
    24    33    37   ar
    25     1    17    1
    26     1     6    1
    27    17    18   ar
    28    36    37   ar
    29    36    39    1
    30    37     2    2
    31    39    40    1
    32    19    18   ar
    33    19    22    1
    34    40    41    1
    35    18     3    1
    36    42    41   ar
    37     6     7    2
    38     6    10    1
    39    41    43   ar
    40     2     7    1
    41     3    10    2
    42     7     8    1
    43    10     9    1
    44     8     9    2
    45     8    12    1
    46     9    11    1
    47    12    13    1
    48    13    14    1
    49    15    14   ar
    50    14    16   ar
