@<TRIPOS>MOLECULE
1og6_NAP_A_1.pdb
 48 52 0 0 0
SMALL
GASTEIGER

@<TRIPOS>ATOM
      1  PA         6.0980   66.9650   24.3840 P.3   1298  NAP1298     0.2189
      2  O1A        4.8650   66.7170   23.7530 O.2   1298  NAP1298    -0.5170
      3  O2A        6.3570   66.8680   25.8710 O.3   1298  NAP1298    -0.4371
      4  O5B        6.6210   68.4260   23.9720 O.3   1298  NAP1298    -0.3112
      5  C5B        5.7550   69.5450   24.2410 C.3   1298  NAP1298     0.1813
      6  C4B        6.1260   70.6160   23.1490 C.3   1298  NAP1298     0.1820
      7  O4B        5.1830   71.7020   23.4940 O.3   1298  NAP1298    -0.3136
      8  C3B        7.5170   71.2600   23.3220 C.3   1298  NAP1298     0.2157
      9  O3B        7.9670   71.4750   21.9860 O.3   1298  NAP1298    -0.2175
     10  C2B        7.3090   72.5690   24.0720 C.3   1298  NAP1298     0.2314
     11  O2B        8.1200   73.6660   23.6300 O.3   1298  NAP1298    -0.2630
     12  C1B        5.7860   72.9030   23.9010 C.3   1298  NAP1298     0.3158
     13  N9A        5.2040   73.2960   25.1760 N.pl3 1298  NAP1298    -0.1439
     14  C8A        5.4410   72.8440   26.4660 C.3   1298  NAP1298     0.3377
     15  N7A        4.7120   73.4290   27.3960 N.2   1298  NAP1298    -0.2095
     16  C5A        3.9410   74.3280   26.6590 C.2   1298  NAP1298     0.2526
     17  C6A        2.9630   75.2420   27.0900 C.2   1298  NAP1298     0.4393
     18  N6A        2.5490   75.4490   28.3580 N.pl3 1298  NAP1298     0.2180
     19  N1A        2.3430   76.0290   26.1020 N.2   1298  NAP1298     0.0021
     20  C2A        2.6910   75.9030   24.7440 C.3   1298  NAP1298     0.5254
     21  N3A        3.6500   75.0120   24.2900 N.2   1298  NAP1298    -0.0055
     22  C4A        4.2490   74.2460   25.2840 C.2   1298  NAP1298     0.3518
     23  O3         7.2080   66.0260   23.7290 O.3   1298  NAP1298    -0.2703
     24  PN         8.2660   66.2960   22.5820 P.3   1298  NAP1298     0.2189
     25  O1N        8.0530   65.8460   21.2090 O.2   1298  NAP1298    -0.5170
     26  O2N        9.6110   66.6090   23.1440 O.3   1298  NAP1298    -0.4371
     27  O5D        8.6100   64.7160   22.7130 O.3   1298  NAP1298    -0.3112
     28  C5D        8.8120   64.0190   24.0010 C.3   1298  NAP1298     0.1813
     29  C4D       10.1700   63.3300   24.0820 C.3   1298  NAP1298     0.1799
     30  O4D       10.1710   61.9570   23.6150 O.3   1298  NAP1298    -0.3327
     31  C3D       11.3970   64.0280   23.3920 C.3   1298  NAP1298     0.2158
     32  O3D       12.1890   64.7510   24.3420 O.3   1298  NAP1298    -0.2175
     33  C2D       12.1840   62.9200   22.7070 C.3   1298  NAP1298     0.2309
     34  O2D       13.4460   62.6970   23.2910 O.3   1298  NAP1298    -0.2158
     35  C1D       11.3510   61.6850   22.7960 C.3   1298  NAP1298     0.2263
     36  N1N       10.8950   61.0760   21.4880 N.pl3 1298  NAP1298    -0.2787
     37  C2N       10.9150   59.6630   21.2510 C.3   1298  NAP1298     0.1244
     38  C3N       10.5020   59.1900   19.9890 C.2   1298  NAP1298     0.0544
     39  C7N       10.5070   57.6750   19.6940 C.2   1298  NAP1298     0.2818
     40  O7N       10.1460   57.3430   18.5900 O.2   1298  NAP1298    -0.2670
     41  N7N       10.8800   56.7980   20.5860 N.am  1298  NAP1298    -0.0839
     42  C4N       10.0630   60.1160   18.9360 C.2   1298  NAP1298     0.0033
     43  C5N       10.0540   61.5060   19.2200 C.2   1298  NAP1298     0.0157
     44  C6N       10.4650   62.0090   20.4870 C.2   1298  NAP1298     0.0633
     45  P2B        8.5750   74.8930   24.6040 P.3   1298  NAP1298     0.5328
     46  O1X        9.1160   74.7670   26.0240 O.3   1298  NAP1298    -0.1145
     47  O2X        8.8580   76.1270   23.7830 O.2   1298  NAP1298    -0.2224
     48  O3X        9.9280   74.3050   24.2560 O.3   1298  NAP1298    -0.1145
@<TRIPOS>BOND
     1    40    39    2
     2    42    43    1
     3    42    38    2
     4    43    44    2
     5    39    38    1
     6    39    41   am
     7    38    37    1
     8    44    36    1
     9    25    24    2
    10    37    36    1
    11    36    35    1
    12     9     8    1
    13    24    27    1
    14    24    26    1
    15    24    23    1
    16    33    35    1
    17    33    34    1
    18    33    31    1
    19    27    28    1
    20    35    30    1
    21     6     8    1
    22     6     7    1
    23     6     5    1
    24     8    10    1
    25    31    29    1
    26    31    32    1
    27     7    12    1
    28    30    29    1
    29    11    10    1
    30    11    45    1
    31    23     1    1
    32     2     1    2
    33    47    45    2
    34    12    10    1
    35    12    13    1
    36     4     5    1
    37     4     1    1
    38    28    29    1
    39    48    45    1
    40    21    20    1
    41    21    22    2
    42     1     3    1
    43    45    46    1
    44    20    19    1
    45    13    22    1
    46    13    14    1
    47    22    16    1
    48    19    17    2
    49    14    15    1
    50    16    17    1
    51    16    15    2
    52    17    18    1
