@<TRIPOS>MOLECULE
1ogd_RIP_A_1.pdb
 10 10 0 0 0
SMALL
GASTEIGER

@<TRIPOS>ATOM
      1  C1        51.2050    4.2670   26.5220 C.3   1134  RIP1134     0.3024
      2  C2        52.0980    4.8490   27.5880 C.3   1134  RIP1134     0.2434
      3  C3        51.3910    4.7860   28.9330 C.3   1134  RIP1134     0.2199
      4  C4        50.8970    3.3940   29.3080 C.3   1134  RIP1134     0.2143
      5  C5        50.0110    2.8980   28.1710 C.3   1134  RIP1134     0.1804
      6  O1        50.0960    5.1040   26.2640 O.3   1134  RIP1134    -0.1869
      7  O2        53.2940    4.0990   27.6020 O.3   1134  RIP1134    -0.2148
      8  O3        52.2180    5.3010   29.9440 O.3   1134  RIP1134    -0.2174
      9  O4        51.9750    2.4910   29.4600 O.3   1134  RIP1134    -0.2176
     10  O5        50.6670    2.9680   26.8860 O.3   1134  RIP1134    -0.3237
@<TRIPOS>BOND
     1     6     1    1
     2     1    10    1
     3     1     2    1
     4    10     5    1
     5     2     7    1
     6     2     3    1
     7     5     4    1
     8     3     4    1
     9     3     8    1
    10     4     9    1
