@<TRIPOS>MOLECULE
1oge_RP5_A_1.pdb
 14 14 0 0 0
SMALL
GASTEIGER

@<TRIPOS>ATOM
      1  C1'       51.2040    4.5610   26.3990 C.3   1133  RP51133     0.3023
      2  O1'       50.5990    3.3880   26.8930 O.3   1133  RP51133    -0.3237
      3  C2'       52.1590    5.0320   27.4950 C.3   1133  RP51133     0.2433
      4  O2'       53.3840    4.3230   27.3980 O.3   1133  RP51133    -0.2148
      5  C3'       51.4260    4.5890   28.7570 C.3   1133  RP51133     0.2168
      6  O3'       52.4000    4.3920   29.7740 O.3   1133  RP51133    -0.2175
      7  C4'       50.6970    3.3140   28.3060 C.3   1133  RP51133     0.1809
      8  C5'       49.2980    3.1890   28.9440 C.3   1133  RP51133     0.1859
      9  O5'       48.6220    1.9930   28.4940 O.3   1133  RP51133    -0.2675
     10  P'        48.9250    0.6780   29.3200 P.3   1133  RP51133     0.5327
     11  O1X       48.1520   -0.4480   28.7550 O.2   1133  RP51133    -0.2224
     12  O2X       50.4250    0.3550   29.2280 O.3   1133  RP51133    -0.1145
     13  O3X       48.5400    0.8740   30.7890 O.3   1133  RP51133    -0.1145
     14  O1        50.1400    5.4510   26.1760 O.3   1133  RP51133    -0.1869
@<TRIPOS>BOND
     1    14     1    1
     2     1     2    1
     3     1     3    1
     4     2     7    1
     5     4     3    1
     6     3     5    1
     7     7     5    1
     8     7     8    1
     9     9     8    1
    10     9    10    1
    11    11    10    2
    12     5     6    1
    13    12    10    1
    14    10    13    1
