@<TRIPOS>MOLECULE
1ogg_AMI_A_1.pdb
 15 16 0 0 0
SMALL
GASTEIGER

@<TRIPOS>ATOM
      1  C1        19.3240   44.4340  102.3590 C.3   1501  AMI1501     0.1987
      2  C2        17.8210   44.6760  101.9940 C.3   1501  AMI1501     0.1803
      3  C3        17.0460   43.5900  102.7400 C.3   1501  AMI1501     0.2082
      4  C4        17.9880   42.3860  102.8000 C.3   1501  AMI1501     0.1902
      5  C5        19.2770   43.1030  103.1380 C.3   1501  AMI1501     0.1081
      6  C6        20.5230   42.2160  102.9550 C.3   1501  AMI1501     0.1883
      7  C7        18.6070   46.3770  103.3090 C.2   1501  AMI1501     0.2833
      8  C8        19.8310   47.9440  104.7160 C.3   1501  AMI1501     0.1166
      9  C9        17.4440   48.4260  104.0000 C.3   1501  AMI1501     0.1166
     10  N2        17.5590   45.9740  102.5980 N.2   1501  AMI1501    -0.2198
     11  N7        18.6240   47.5330  103.9970 N.pl3 1501  AMI1501    -0.2607
     12  O3        15.8700   43.2600  102.0090 O.3   1501  AMI1501    -0.2182
     13  O4        17.7060   41.4210  103.8300 O.3   1501  AMI1501    -0.2201
     14  O6        20.5490   41.6970  101.6170 O.3   1501  AMI1501    -0.2202
     15  O7        19.6680   45.5100  103.3080 O.2   1501  AMI1501    -0.4514
@<TRIPOS>BOND
     1    14     6    1
     2     2     1    1
     3     2    10    1
     4     2     3    1
     5    12     3    1
     6     1     5    1
     7     1    15    1
     8    10     7    2
     9     3     4    1
    10     4     5    1
    11     4    13    1
    12     6     5    1
    13    15     7    1
    14     7    11    1
    15    11     9    1
    16    11     8    1
