@<TRIPOS>MOLECULE
1ogk_DUD_B_1.pdb
 24 25 0 0 0
SMALL
GASTEIGER

@<TRIPOS>ATOM
      1  N1         6.8580    4.7920   54.2350 N.am  1280  DUD1280    -0.1790
      2  C2         5.5680    4.9940   53.8930 C.1   1280  DUD1280     0.2844
      3  N3         5.1230    6.1050   53.3220 N.2   1280  DUD1280    -0.2452
      4  C4         5.9550    7.0980   53.0500 C.1   1280  DUD1280     0.2182
      5  C5         7.2980    6.9310   53.3810 C.2   1280  DUD1280     0.1242
      6  C6         7.7330    5.7560   54.0010 C.2   1280  DUD1280     0.0928
      7  O2         4.7210    4.1170   54.0750 O.2   1280  DUD1280    -0.1918
      8  O4         5.5210    8.1280   52.5100 O.2   1280  DUD1280    -0.2085
      9  C1'        7.2250    3.5300   54.8850 C.3   1280  DUD1280     0.2090
     10  C2'        7.3170    2.3630   53.9630 C.3   1280  DUD1280     0.0874
     11  C3'        8.2710    1.4210   54.6290 C.3   1280  DUD1280     0.1857
     12  C4'        9.1410    2.3000   55.4760 C.3   1280  DUD1280     0.1773
     13  O4'        8.4900    3.5250   55.4630 O.3   1280  DUD1280    -0.3339
     14  O3'        7.5560    0.5300   55.4430 O.3   1280  DUD1280    -0.2203
     15  C5'       10.5450    2.5280   54.9450 C.3   1280  DUD1280     0.1812
     16  O5'       11.2390    3.3830   55.8440 O.3   1280  DUD1280    -0.3111
     17  PA        12.6600    3.1990   56.2220 P.3   1280  DUD1280     0.2231
     18  O1A       13.3980    2.9120   54.9430 O.2   1280  DUD1280    -0.5169
     19  O2A       13.0300    4.4930   56.8700 O.3   1280  DUD1280    -0.4370
     20  O3A       12.8130    2.0530   57.2440 O.3   1280  DUD1280    -0.2261
     21  PB        13.5710    0.6980   57.2870 P.3   1280  DUD1280     0.5373
     22  O1B       15.0140    0.8820   57.6630 O.3   1280  DUD1280    -0.1143
     23  O2B       13.6070   -0.1110   56.0140 O.2   1280  DUD1280    -0.2221
     24  O3B       13.0170   -0.1780   58.3540 O.3   1280  DUD1280    -0.1143
@<TRIPOS>BOND
     1     8     4    2
     2     4     3    2
     3     4     5    1
     4     3     2    2
     5     5     6    2
     6     2     7    2
     7     2     1   am
     8    10    11    1
     9    10     9    1
    10     6     1    1
    11     1     9    1
    12    11    14    1
    13    11    12    1
    14     9    13    1
    15    18    17    2
    16    15    12    1
    17    15    16    1
    18    13    12    1
    19    16    17    1
    20    23    21    2
    21    17    19    1
    22    17    20    1
    23    20    21    1
    24    21    22    1
    25    21    24    1
