@<TRIPOS>MOLECULE
1ogo_GLC_X_1.pdb
 11 11 0 0 0
SMALL
GASTEIGER

@<TRIPOS>ATOM
      1  C1        10.8850   10.1590    4.6380 C.3   1576  GLC1576     0.1777
      2  C2        11.1080    8.7080    5.0640 C.3   1576  GLC1576     0.2141
      3  C3        10.4430    8.4410    6.4190 C.3   1576  GLC1576     0.2173
      4  C4        10.8490    9.4900    7.4550 C.3   1576  GLC1576     0.2142
      5  C5        10.5830   10.8890    6.9050 C.3   1576  GLC1576     0.1810
      6  C6        11.0160   11.9800    7.8830 C.3   1576  GLC1576     0.2141
      7  O2        10.5360    7.8760    4.0740 O.3   1576  GLC1576    -0.2176
      8  O3        10.7900    7.1550    6.8960 O.3   1576  GLC1576    -0.2175
      9  O4        10.1190    9.2840    8.6570 O.3   1576  GLC1576    -0.2176
     10  O5        11.2550   11.0520    5.6680 O.3   1576  GLC1576    -0.3481
     11  O6        12.3520   11.7850    8.3020 O.3   1576  GLC1576    -0.2176
@<TRIPOS>BOND
     1     7     2    1
     2     1     2    1
     3     1    10    1
     4     2     3    1
     5    10     5    1
     6     3     8    1
     7     3     4    1
     8     5     4    1
     9     5     6    1
    10     4     9    1
    11     6    11    1
