@<TRIPOS>MOLECULE
1ogo_BGC_X_1.pdb
 12 12 0 0 0
SMALL
GASTEIGER

@<TRIPOS>ATOM
      1  C2         5.1620   12.0960    2.5050 C.3   1575  BGC1575     0.2434
      2  C3         6.1470   12.1980    1.3450 C.3   1575  BGC1575     0.2199
      3  C4         7.5520   12.4280    1.9010 C.3   1575  BGC1575     0.2144
      4  C5         7.8710   11.3730    2.9580 C.3   1575  BGC1575     0.1836
      5  C6         9.2450   11.5260    3.6010 C.3   1575  BGC1575     0.2142
      6  C1         5.6220   11.0770    3.5480 C.3   1575  BGC1575     0.3024
      7  O1         4.7600   11.1040    4.6710 O.3   1575  BGC1575    -0.1869
      8  O2         3.8880   11.7530    2.0070 O.3   1575  BGC1575    -0.2148
      9  O3         5.7450   13.2300    0.4530 O.3   1575  BGC1575    -0.2174
     10  O4         8.4970   12.3680    0.8500 O.3   1575  BGC1575    -0.2176
     11  O5         6.9150   11.3940    4.0040 O.3   1575  BGC1575    -0.3236
     12  O6         9.5110   10.2870    4.2200 O.3   1575  BGC1575    -0.2176
@<TRIPOS>BOND
     1     9     2    1
     2    10     3    1
     3     2     3    1
     4     2     1    1
     5     3     4    1
     6     8     1    1
     7     1     6    1
     8     4     5    1
     9     4    11    1
    10     6    11    1
    11     6     7    1
    12     5    12    1
