@<TRIPOS>MOLECULE
1ogp_MTQ_A_1.pdb
 27 30 0 0 0
SMALL
GASTEIGER

@<TRIPOS>ATOM
      1  N1        16.8860  107.7490   36.3510 N.2   1394  MTQ1394     0.0000
      2  C2        15.8360  108.3610   35.7090 C.1   1394  MTQ1394     0.0000
      3  N2        16.0340  109.0610   34.6570 N.pl3 1394  MTQ1394     0.0000
      4  N3        14.6260  108.2820   36.1430 N.2   1394  MTQ1394     0.0000
      5  C4        14.3060  107.5630   37.2860 C.1   1394  MTQ1394     0.0000
      6  O4        13.1330  107.4480   37.8620 O.2   1394  MTQ1394     0.0000
      7  N5        15.1490  106.1430   39.2660 N.2   1394  MTQ1394     0.0000
      8  C6        16.1730  105.2520   39.9900 C.2   1394  MTQ1394     0.0000
      9  C7        17.5910  105.4630   39.2710 C.2   1394  MTQ1394     0.0000
     10  N8        17.7290  106.2850   38.1230 N.2   1394  MTQ1394     0.0000
     11  C9        15.3710  106.9090   38.0310 C.2   1394  MTQ1394     0.0000
     12  C10       16.8090  107.0220   37.4720 C.1   1394  MTQ1394     0.0000
     13  C1'       16.0890  104.8190   41.3430 C.2   1394  MTQ1394     0.0000
     14  S1'       15.2380  105.4290   42.6760 S.3   1394  MTQ1394     0.0000
     15  C2'       16.7300  103.5600   41.1890 C.2   1394  MTQ1394     0.0000
     16  S2'       16.6030  102.5980   42.7050 S.3   1394  MTQ1394     0.0000
     17  C3'       17.4210  103.1660   39.7520 C.3   1394  MTQ1394     0.0000
     18  O3'       17.3950  104.1720   38.6640 O.2   1394  MTQ1394     0.0000
     19  C4'       16.9970  101.9630   39.2350 C.3   1394  MTQ1394     0.0000
     20  O4'       17.8980  101.4190   38.2060 O.3   1394  MTQ1394     0.0000
     21  P         17.3250  100.4080   37.4150 P.3   1394  MTQ1394     0.0000
     22  O1P       16.0600  100.5250   36.9240 O.3   1394  MTQ1394     0.0000
     23  O2P       18.0460  100.5330   36.2230 O.2   1394  MTQ1394     0.0000
     24  O3P       17.4320   99.0850   38.1630 O.3   1394  MTQ1394     0.0000
     25 MOM1       15.7170  103.8170   44.3850 Mo    1394  MTQ1394     0.0000
     26  OM1       14.0470  103.7690   44.6530 O.3   1394  MTQ1394     0.0000
     27  OM2       16.9780  104.3260   45.4660 O.3   1394  MTQ1394     0.0000
@<TRIPOS>BOND
     1     3     2    1
     2     2     4    2
     3     2     1    2
     4     4     5    2
     5    23    21    2
     6     1    12    2
     7    22    21    1
     8     5     6    2
     9     5    11    1
    10    21    24    1
    11    21    20    1
    12    12    11    1
    13    12    10    2
    14    11     7    2
    15    10     9    2
    16    20    19    1
    17    18     9    1
    18    18    17    1
    19    19    17    1
    20     7     8    2
    21     9     8    1
    22    17    15    1
    23     8    13    1
    24    15    13    2
    25    15    16    1
    26    13    14    1
    27    14    25    1
    28    16    25    1
    29    25    26    1
    30    25    27    1
