@<TRIPOS>MOLECULE
1ogu_ST8_A_1.pdb
 27 29 0 0 0
SMALL
GASTEIGER

@<TRIPOS>ATOM
      1  C2         8.1150   44.0090   50.1340 C.1   1298  ST81298     0.2288
      2  C10        4.9720   45.6540   52.1340 C.3   1298  ST81298     0.2081
      3  C11        4.0940   46.0910   53.2750 C.3   1298  ST81298     0.0438
      4  C12        4.4890   45.3070   54.5190 C.3   1298  ST81298     0.0037
      5  C13        3.7100   45.9150   55.6640 C.3   1298  ST81298     0.0001
      6  C14        2.2170   45.7590   55.3730 C.3   1298  ST81298     0.0000
      7  C15        1.7810   46.3390   54.0160 C.3   1298  ST81298     0.0001
      8  C16        2.6560   45.7820   52.9060 C.3   1298  ST81298     0.0037
      9  C19        4.9870   41.2530   47.8170 C.ar  1298  ST81298     0.0060
     10  C20        4.1540   41.0870   48.9220 C.ar  1298  ST81298     0.0567
     11  C21        4.5610   41.6250   50.1570 C.ar  1298  ST81298     0.0060
     12  C22        5.7900   42.2830   50.3020 C.ar  1298  ST81298     0.0175
     13  N25        2.1510   39.6020   49.7020 N.am  1298  ST81298    -0.0837
     14  N3         7.1150   44.5470   50.8480 N.2   1298  ST81298    -0.2875
     15  C4         7.3310   45.4640   51.7970 C.2   1298  ST81298     0.3146
     16  O6         6.2980   46.0820   52.4220 O.2   1298  ST81298    -0.4500
     17  C5         8.7030   45.8820   52.0690 C.2   1298  ST81298     0.2380
     18  N7         8.9360   46.8120   53.0650 N.2   1298  ST81298    -0.0193
     19  N9        11.0530   45.5440   51.4460 N.pl3 1298  ST81298    -0.0901
     20  C6         9.7580   45.2450   51.2570 C.2   1298  ST81298     0.2593
     21  N1         9.4010   44.3350   50.3150 N.2   1298  ST81298    -0.3063
     22  N2         7.8200   43.0850   49.2250 N.pl3 1298  ST81298    -0.1253
     23  C17        6.6060   42.4350   49.1790 C.ar  1298  ST81298     0.0835
     24  C18        6.1890   41.9060   47.9570 C.ar  1298  ST81298     0.0175
     25  C23        2.8010   40.4090   48.7280 C.2   1298  ST81298     0.2842
     26  O8        10.0670   47.1740   53.2960 O.2   1298  ST81298    -0.1429
     27  O24        2.2040   40.6390   47.6830 O.2   1298  ST81298    -0.2667
@<TRIPOS>BOND
     1    27    25    2
     2     9    24   ar
     3     9    10   ar
     4    24    23   ar
     5    25    10    1
     6    25    13   am
     7    10    11   ar
     8    23    22    1
     9    23    12   ar
    10    22     1    1
    11     1    21    2
    12     1    14    2
    13    11    12   ar
    14    21    20    2
    15    14    15    2
    16    20    19    1
    17    20    17    1
    18    15    17    1
    19    15    16    1
    20    17    18    2
    21     2    16    1
    22     2     3    1
    23     8     3    1
    24     8     7    1
    25    18    26    1
    26     3     4    1
    27     7     6    1
    28     4     5    1
    29     6     5    1
