@<TRIPOS>MOLECULE
1ogv_U10_M_1.pdb
 38 38 0 0 0
SMALL
GASTEIGER

@<TRIPOS>ATOM
      1  C1        81.3970   33.0200   79.5650 C.2   1305  U101305     0.0198
      2  C2        82.0710   32.7240   78.2800 C.2   1305  U101305     0.2282
      3  C3        81.7490   33.4900   77.0400 C.2   1305  U101305     0.2140
      4  C4        80.8000   34.4870   77.1470 C.2   1305  U101305     0.2140
      5  C5        80.1150   34.8030   78.4040 C.2   1305  U101305     0.2285
      6  C6        80.4360   34.0390   79.6610 C.2   1305  U101305     0.0235
      7  C1M       81.7910   32.1800   80.7810 C.3   1305  U101305     0.0343
      8  C3M       83.7130   33.3360   75.2940 C.3   1305  U101305     0.2528
      9  C4M       81.4180   36.0620   75.2950 C.3   1305  U101305     0.2528
     10  C7        79.6610   34.4580   80.9190 C.3   1305  U101305     0.0548
     11  C8        80.4470   35.1540   81.9240 C.2   1305  U101305    -0.0298
     12  C9        80.3780   36.4620   82.3810 C.2   1305  U101305    -0.0475
     13  C10       79.3770   37.5220   81.8770 C.3   1305  U101305     0.0260
     14  C11       81.3450   36.9750   83.4690 C.3   1305  U101305     0.0264
     15  C12       80.6180   37.3820   84.7640 C.3   1305  U101305     0.0297
     16  C13       80.0280   36.2130   85.4400 C.2   1305  U101305    -0.0342
     17  C14       80.4270   35.7060   86.6940 C.2   1305  U101305    -0.0478
     18  C15       81.5780   36.3780   87.5010 C.3   1305  U101305     0.0260
     19  C16       79.8330   34.5180   87.4010 C.3   1305  U101305     0.0263
     20  C17       78.8780   34.7680   88.5500 C.3   1305  U101305     0.0297
     21  C18       77.5420   35.1680   88.0800 C.2   1305  U101305    -0.0342
     22  C19       76.5430   35.9230   88.6830 C.2   1305  U101305    -0.0478
     23  C20       76.6700   36.5430   90.1020 C.3   1305  U101305     0.0260
     24  C21       75.1790   36.2570   88.0830 C.3   1305  U101305     0.0263
     25  C22       74.0270   35.4790   88.6600 C.3   1305  U101305     0.0297
     26  C23       72.7510   35.8390   88.0500 C.2   1305  U101305    -0.0342
     27  C24       71.6140   35.0210   87.9370 C.2   1305  U101305    -0.0478
     28  C25       71.6230   33.5770   88.4860 C.3   1305  U101305     0.0260
     29  C26       70.2940   35.4550   87.2950 C.3   1305  U101305     0.0263
     30  C27       69.3010   36.0320   88.3060 C.3   1305  U101305     0.0297
     31  C28       68.0010   36.2310   87.7360 C.2   1305  U101305    -0.0342
     32  C29       66.8270   35.5850   87.4180 C.2   1305  U101305    -0.0478
     33  C30       65.5940   36.2560   86.7630 C.3   1305  U101305     0.0260
     34  C31       66.5310   34.0910   87.6530 C.3   1305  U101305     0.0260
     35  O2        82.9250   31.8420   78.1280 O.2   1305  U101305    -0.2836
     36  O3        82.5040   33.0640   75.8940 O.2   1305  U101305    -0.4652
     37  O4        80.4160   35.2890   75.9590 O.2   1305  U101305    -0.4652
     38  O5        79.2540   35.6900   78.5310 O.2   1305  U101305    -0.2835
@<TRIPOS>BOND
     1     8    36    1
     2     9    37    1
     3    36     3    1
     4    37     4    1
     5     3     4    2
     6     3     2    1
     7     4     5    1
     8    35     2    2
     9     2     1    1
    10     5    38    2
    11     5     6    1
    12     1     6    2
    13     1     7    1
    14     6    10    1
    15    10    11    1
    16    13    12    1
    17    11    12    2
    18    12    14    1
    19    14    15    1
    20    15    16    1
    21    16    17    2
    22    17    19    1
    23    17    18    1
    24    33    32    1
    25    29    27    1
    26    29    30    1
    27    19    20    1
    28    32    34    1
    29    32    31    2
    30    31    30    1
    31    27    26    2
    32    27    28    1
    33    26    25    1
    34    21    20    1
    35    21    22    2
    36    24    25    1
    37    24    22    1
    38    22    23    1
