@<TRIPOS>MOLECULE
1ogx_EQU_A_1.pdb
 20 23 0 0 0
SMALL
GASTEIGER

@<TRIPOS>ATOM
      1  C1        22.5660  -34.2520  -37.6220 C.ar  1128  EQU1128     0.1957
      2  C2        22.2170  -33.1160  -36.8760 C.ar  1128  EQU1128     0.0420
      3  C3        23.0220  -31.9490  -37.0110 C.ar  1128  EQU1128     0.0029
      4  C4        24.2030  -31.9480  -37.9250 C.ar  1128  EQU1128    -0.0041
      5  C5        24.5010  -33.1250  -38.6550 C.ar  1128  EQU1128     0.0030
      6  C6        23.7000  -34.2570  -38.5070 C.ar  1128  EQU1128     0.0420
      7  C10       22.6570  -30.7840  -36.2380 C.ar  1128  EQU1128    -0.0002
      8  C11       23.4590  -29.6090  -36.3660 C.ar  1128  EQU1128    -0.0046
      9  C12       24.6060  -29.5950  -37.2490 C.ar  1128  EQU1128    -0.0260
     10  C13       24.9890  -30.7540  -38.0320 C.ar  1128  EQU1128    -0.0261
     11  C16       25.3990  -28.3380  -37.3540 C.3   1128  EQU1128     0.0290
     12  C17       26.1050  -28.1920  -38.7320 C.3   1128  EQU1128     0.0556
     13  C18       26.9850  -29.4240  -39.0390 C.3   1128  EQU1128     0.0119
     14  C19       26.1830  -30.7550  -38.9650 C.3   1128  EQU1128     0.0265
     15  C24       24.6410  -26.9810  -37.2870 C.3   1128  EQU1128     0.0125
     16  C25       25.8430  -25.9950  -37.4810 C.3   1128  EQU1128     0.0648
     17  C26       26.7650  -26.8380  -38.4330 C.2   1128  EQU1128     0.1502
     18  C27       25.1050  -27.9730  -39.8780 C.3   1128  EQU1128     0.0077
     19  O1        21.8060  -35.3060  -37.4610 O.3   1128  EQU1128    -0.2866
     20  O26       27.8370  -26.4800  -38.8630 O.2   1128  EQU1128    -0.2961
@<TRIPOS>BOND
     1    18    12    1
     2    13    14    1
     3    13    12    1
     4    14    10    1
     5    20    17    2
     6    12    17    1
     7    12    11    1
     8     5     6   ar
     9     5     4   ar
    10     6     1   ar
    11    17    16    1
    12    10     4   ar
    13    10     9   ar
    14     4     3   ar
    15     1    19    1
    16     1     2   ar
    17    16    15    1
    18    11    15    1
    19    11     9    1
    20     9     8   ar
    21     3     2   ar
    22     3     7   ar
    23     8     7   ar
