@<TRIPOS>MOLECULE
1ogy_MGD_A_1.pdb
 47 52 0 0 0
SMALL
GASTEIGER

@<TRIPOS>ATOM
      1  PB        -5.1530  121.4470   79.4080 P.3   1803  MGD1803     0.2189
      2  O1B       -3.8470  120.9820   79.4610 O.3   1803  MGD1803    -0.4371
      3  O2B       -5.6300  121.6900   78.1750 O.2   1803  MGD1803    -0.5170
      4  O3B       -6.2770  120.5160   80.1940 O.3   1803  MGD1803    -0.2703
      5  O3A       -8.1060  119.3810   81.2070 O.3   1803  MGD1803    -0.3112
      6  PA        -7.3790  120.7700   81.3090 P.3   1803  MGD1803     0.2189
      7  O1A       -8.3710  121.7460   80.8460 O.2   1803  MGD1803    -0.5170
      8  O2A       -6.7090  120.9720   82.6200 O.3   1803  MGD1803    -0.4371
      9  O5'       -5.2490  122.8310   79.9930 O.3   1803  MGD1803    -0.3112
     10  C5'       -4.0090  123.4720   80.4540 C.3   1803  MGD1803     0.1813
     11  C4'       -4.1940  124.9540   80.2050 C.3   1803  MGD1803     0.1799
     12  O4'       -2.9610  125.4880   80.6320 O.3   1803  MGD1803    -0.3326
     13  C3'       -4.2340  125.3510   78.7610 C.3   1803  MGD1803     0.2158
     14  O3'       -5.3430  126.1750   78.5990 O.3   1803  MGD1803    -0.2175
     15  C2'       -2.8560  126.1020   78.4550 C.3   1803  MGD1803     0.2310
     16  O2'       -2.9580  127.0570   77.3590 O.3   1803  MGD1803    -0.2158
     17  C1'       -2.6140  126.6410   79.8410 C.3   1803  MGD1803     0.2293
     18  N9        -1.3310  126.8450   80.3830 N.pl3 1803  MGD1803    -0.2354
     19  C8        -0.1360  126.2990   80.0240 C.3   1803  MGD1803     0.2246
     20  N7         0.8230  126.7110   80.8170 N.2   1803  MGD1803    -0.2322
     21  C5         0.2030  127.5780   81.7380 C.2   1803  MGD1803     0.2182
     22  C6         0.7170  128.3220   82.8370 C.1   1803  MGD1803     0.2372
     23  O6         1.9070  128.3570   83.2220 O.2   1803  MGD1803    -0.2069
     24  N1        -0.2490  129.0840   83.5460 N.2   1803  MGD1803    -0.2485
     25  C2        -1.5990  129.0980   83.1860 C.1   1803  MGD1803     0.2531
     26  N2        -2.4560  129.8840   83.9620 N.pl3 1803  MGD1803    -0.0226
     27  N3        -2.0880  128.3960   82.1440 N.2   1803  MGD1803    -0.3074
     28  C4        -1.1140  127.6760   81.4890 C.2   1803  MGD1803     0.2300
     29  C10       -7.4110  118.1180   81.5960 C.3   1803  MGD1803     0.1798
     30  C11       -8.4840  117.2530   82.1880 C.3   1803  MGD1803     0.1623
     31  O11       -9.4050  117.0160   81.0540 O.3   1803  MGD1803    -0.3309
     32  C12       -7.9310  115.8810   82.7210 C.3   1803  MGD1803     0.1141
     33  S12       -6.3820  115.8730   83.5140 S.3   1803  MGD1803    -0.0753
     34  C13       -8.6150  114.7520   82.5740 C.2   1803  MGD1803     0.0309
     35  S13       -8.0560  113.2820   83.1080 S.2   1803  MGD1803    -0.0569
     36  C14       -9.9760  114.7670   81.8550 C.3   1803  MGD1803     0.1817
     37  N15       -9.7570  113.9220   80.6360 N.2   1803  MGD1803    -0.2414
     38  C16      -10.9190  113.9280   79.7770 C.2   1803  MGD1803     0.2467
     39  C17      -11.1780  112.8340   78.9800 C.1   1803  MGD1803     0.2441
     40  O17      -10.5550  111.7140   79.0750 O.2   1803  MGD1803    -0.2063
     41  N18      -12.2260  113.0210   77.9940 N.2   1803  MGD1803    -0.2474
     42  C19      -12.9250  114.2010   77.8490 C.1   1803  MGD1803     0.2608
     43  N19      -13.8710  114.2700   76.9210 N.pl3 1803  MGD1803    -0.0220
     44  N20      -12.6920  115.2720   78.6150 N.2   1803  MGD1803    -0.2682
     45  C21      -11.6730  115.1070   79.5880 C.1   1803  MGD1803     0.1293
     46  N22      -11.4510  116.2210   80.3990 N.2   1803  MGD1803    -0.1763
     47  C23      -10.4650  116.2200   81.4820 C.3   1803  MGD1803     0.2567
@<TRIPOS>BOND
     1    43    42    1
     2    16    15    1
     3    42    41    2
     4    42    44    2
     5    41    39    2
     6     3     1    2
     7    15    13    1
     8    15    17    1
     9    14    13    1
    10    44    45    2
    11    13    11    1
    12    39    40    2
    13    39    38    1
    14     1     2    1
    15     1     9    1
    16     1     4    1
    17    45    38    1
    18    45    46    2
    19    38    37    2
    20    17    18    1
    21    17    12    1
    22     9    10    1
    23    19    18    1
    24    19    20    1
    25     4     6    1
    26    11    10    1
    27    11    12    1
    28    18    28    1
    29    46    47    1
    30    37    36    1
    31    20    21    2
    32     7     6    2
    33    31    47    1
    34    31    30    1
    35     5     6    1
    36     5    29    1
    37     6     8    1
    38    47    36    1
    39    28    21    1
    40    28    27    2
    41    29    30    1
    42    21    22    1
    43    36    34    1
    44    27    25    2
    45    30    32    1
    46    34    32    1
    47    34    35    2
    48    32    33    1
    49    22    23    2
    50    22    24    2
    51    25    24    2
    52    25    26    1
