@<TRIPOS>MOLECULE
1ogy_HEC_B_1.pdb
 43 50 0 0 0
SMALL
GASTEIGER

@<TRIPOS>ATOM
      1 FE         14.9340  107.3040   66.6720 Fe    1129  HEC1129     0.0000
      2  CHA       17.0230  109.7070   65.4840 C.2   1129  HEC1129     0.0000
      3  CHB       15.2040  105.5690   63.7730 C.2   1129  HEC1129     0.0000
      4  CHC       12.8970  104.8580   67.9220 C.2   1129  HEC1129     0.0000
      5  CHD       14.5730  109.0480   69.5700 C.2   1129  HEC1129     0.0000
      6  NA        15.8900  107.5740   64.9750 N.ar  1129  HEC1129     0.0000
      7  C1A       16.6990  108.6200   64.6180 C.ar  1129  HEC1129     0.0000
      8  C2A       17.1850  108.4780   63.2850 C.ar  1129  HEC1129     0.0000
      9  C3A       16.6850  107.3680   62.7880 C.ar  1129  HEC1129     0.0000
     10  C4A       15.8830  106.7570   63.8540 C.ar  1129  HEC1129     0.0000
     11  CMA       16.8690  106.7820   61.4260 C.3   1129  HEC1129     0.0000
     12  CAA       18.1070  109.4820   62.5860 C.3   1129  HEC1129     0.0000
     13  CBA       19.5420  108.9810   62.6720 C.3   1129  HEC1129     0.0000
     14  CGA       20.6260  109.8710   62.1200 C.2   1129  HEC1129     0.0000
     15  O1A       20.3950  111.0100   61.6240 O.co2 1129  HEC1129     0.0000
     16  O2A       21.7920  109.3770   62.2330 O.co2 1129  HEC1129     0.0000
     17  NB        14.2340  105.5920   65.9980 N.2   1129  HEC1129     0.0000
     18  C1B       14.4590  104.9940   64.7340 C.2   1129  HEC1129     0.0000
     19  C2B       13.7760  103.7400   64.6500 C.2   1129  HEC1129     0.0000
     20  C3B       13.1450  103.5420   65.7870 C.2   1129  HEC1129     0.0000
     21  C4B       13.4060  104.6950   66.6440 C.2   1129  HEC1129     0.0000
     22  CMB       13.7950  102.8160   63.4390 C.3   1129  HEC1129     0.0000
     23  CAB       12.2690  102.3760   66.2020 C.3   1129  HEC1129     0.0000
     24  CBB       13.0180  101.0190   66.4360 C.3   1129  HEC1129     0.0000
     25  NC        13.9150  107.0000   68.3930 N.ar  1129  HEC1129     0.0000
     26  C1C       13.1350  105.9470   68.7340 C.ar  1129  HEC1129     0.0000
     27  C2C       12.5940  106.0790   70.0600 C.ar  1129  HEC1129     0.0000
     28  C3C       13.0340  107.2670   70.5360 C.ar  1129  HEC1129     0.0000
     29  C4C       13.8820  107.8390   69.4930 C.ar  1129  HEC1129     0.0000
     30  CMC       11.7070  105.0480   70.7210 C.3   1129  HEC1129     0.0000
     31  CAC       12.7800  107.9740   71.8840 C.3   1129  HEC1129     0.0000
     32  CBC       12.9370  107.1040   73.1460 C.3   1129  HEC1129     0.0000
     33  ND        15.6760  109.0400   67.3880 N.2   1129  HEC1129     0.0000
     34  C1D       15.4000  109.5830   68.6360 C.2   1129  HEC1129     0.0000
     35  C2D       16.1980  110.8570   68.7200 C.2   1129  HEC1129     0.0000
     36  C3D       16.9170  111.0350   67.6140 C.2   1129  HEC1129     0.0000
     37  C4D       16.5410  109.8890   66.7420 C.2   1129  HEC1129     0.0000
     38  CMD       16.1390  111.7650   70.0210 C.3   1129  HEC1129     0.0000
     39  CAD       17.8920  112.1700   67.3700 C.3   1129  HEC1129     0.0000
     40  CBD       17.4420  113.4100   66.5520 C.3   1129  HEC1129     0.0000
     41  CGD       18.5350  114.5180   66.3990 C.2   1129  HEC1129     0.0000
     42  O1D       19.6910  114.4120   66.8870 O.co2 1129  HEC1129     0.0000
     43  O2D       18.2020  115.5320   65.7090 O.co2 1129  HEC1129     0.0000
@<TRIPOS>BOND
     1    11     9    1
     2    15    14   ar
     3    14    16   ar
     4    14    13    1
     5    12    13    1
     6    12     8    1
     7     9     8   ar
     8     9    10   ar
     9     8     7   ar
    10    22    19    1
    11     3    10    2
    12     3    18    1
    13    10     6   ar
    14     7     6   ar
    15     7     2    2
    16    19    18    1
    17    19    20    2
    18    18    17    2
    19     6     1    1
    20     2    37    1
    21    43    41   ar
    22    20    23    1
    23    20    21    1
    24    17    21    1
    25    17     1    1
    26    23    24    1
    27    41    40    1
    28    41    42   ar
    29    40    39    1
    30    21     4    2
    31     1    33    1
    32     1    25    1
    33    37    33    2
    34    37    36    1
    35    39    36    1
    36    33    34    1
    37    36    35    2
    38     4    26    1
    39    25    26   ar
    40    25    29   ar
    41    34    35    1
    42    34     5    2
    43    35    38    1
    44    26    27   ar
    45    29     5    1
    46    29    28   ar
    47    27    28   ar
    48    27    30    1
    49    28    31    1
    50    31    32    1
