@<TRIPOS>MOLECULE
1ogz_EQU_A_1.pdb
 20 23 0 0 0
SMALL
GASTEIGER

@<TRIPOS>ATOM
      1  C1        20.2120   76.6230   11.8630 C.ar  1126  EQU1126     0.1957
      2  C2        18.8620   76.1710   12.0560 C.ar  1126  EQU1126     0.0420
      3  C3        17.9430   76.2500   10.9860 C.ar  1126  EQU1126     0.0029
      4  C4        18.4260   76.8190    9.6500 C.ar  1126  EQU1126    -0.0041
      5  C5        19.8110   77.2540    9.5320 C.ar  1126  EQU1126     0.0030
      6  C6        20.6770   77.1480   10.6390 C.ar  1126  EQU1126     0.0420
      7  C10       16.5700   75.8060   11.1430 C.ar  1126  EQU1126    -0.0002
      8  C11       15.6460   75.9010   10.0470 C.ar  1126  EQU1126    -0.0046
      9  C12       16.0660   76.4330    8.7770 C.ar  1126  EQU1126    -0.0260
     10  C13       17.4910   76.8980    8.5790 C.ar  1126  EQU1126    -0.0261
     11  C16       15.0750   76.5780    7.5420 C.3   1126  EQU1126     0.0290
     12  C17       15.7160   76.5110    6.0460 C.3   1126  EQU1126     0.0556
     13  C18       16.9140   77.5460    5.9950 C.3   1126  EQU1126     0.0119
     14  C19       17.8790   77.4590    7.1650 C.3   1126  EQU1126     0.0265
     15  C24       13.9170   75.5640    7.3360 C.3   1126  EQU1126     0.0125
     16  C25       13.2700   76.1550    6.0330 C.3   1126  EQU1126     0.0648
     17  C26       14.4620   76.7360    5.2440 C.2   1126  EQU1126     0.1502
     18  C27       16.3350   75.1000    5.5850 C.3   1126  EQU1126     0.0077
     19  O1        21.0620   76.5490   12.8640 O.3   1126  EQU1126    -0.2866
     20  O26       14.4110   77.3060    4.1340 O.2   1126  EQU1126    -0.2961
@<TRIPOS>BOND
     1    20    17    2
     2    17    16    1
     3    17    12    1
     4    18    12    1
     5    13    12    1
     6    13    14    1
     7    16    15    1
     8    12    11    1
     9    14    10    1
    10    15    11    1
    11    11     9    1
    12    10     9   ar
    13    10     4   ar
    14     9     8   ar
    15     5     4   ar
    16     5     6   ar
    17     4     3   ar
    18     8     7   ar
    19     6     1   ar
    20     3     7   ar
    21     3     2   ar
    22     1     2   ar
    23     1    19    1
