@<TRIPOS>MOLECULE
1oh0_EQU_A_1.pdb
 20 23 0 0 0
SMALL
GASTEIGER

@<TRIPOS>ATOM
      1  C1        22.3110  -34.3560  -37.3950 C.ar  1128  EQU1128     0.1957
      2  C2        21.9060  -33.2170  -36.6610 C.ar  1128  EQU1128     0.0420
      3  C3        22.7280  -32.0370  -36.7230 C.ar  1128  EQU1128     0.0029
      4  C4        23.9880  -32.0300  -37.5520 C.ar  1128  EQU1128    -0.0041
      5  C5        24.3370  -33.2170  -38.2610 C.ar  1128  EQU1128     0.0030
      6  C6        23.5210  -34.3520  -38.1870 C.ar  1128  EQU1128     0.0420
      7  C10       22.3040  -30.8620  -35.9730 C.ar  1128  EQU1128    -0.0002
      8  C11       23.1150  -29.6690  -36.0440 C.ar  1128  EQU1128    -0.0046
      9  C12       24.3360  -29.6430  -36.8500 C.ar  1128  EQU1128    -0.0260
     10  C13       24.7830  -30.8230  -37.6040 C.ar  1128  EQU1128    -0.0261
     11  C16       25.1460  -28.3660  -36.9120 C.3   1128  EQU1128     0.0290
     12  C17       25.9790  -28.2190  -38.2560 C.3   1128  EQU1128     0.0556
     13  C18       26.8770  -29.4740  -38.4770 C.3   1128  EQU1128     0.0119
     14  C19       26.0620  -30.8120  -38.4540 C.3   1128  EQU1128     0.0265
     15  C24       24.4030  -27.0000  -36.8680 C.3   1128  EQU1128     0.0125
     16  C25       25.6340  -26.0350  -36.9920 C.3   1128  EQU1128     0.0648
     17  C26       26.6140  -26.8760  -37.9000 C.2   1128  EQU1128     0.1502
     18  C27       25.1300  -27.9700  -39.5460 C.3   1128  EQU1128     0.0077
     19  O1        21.5380  -35.4110  -37.3280 O.3   1128  EQU1128    -0.2866
     20  O26       27.7080  -26.5180  -38.2670 O.2   1128  EQU1128    -0.2961
@<TRIPOS>BOND
     1    18    12    1
     2    13    14    1
     3    13    12    1
     4    14    10    1
     5    20    17    2
     6     5     6   ar
     7     5     4   ar
     8    12    17    1
     9    12    11    1
    10     6     1   ar
    11    17    16    1
    12    10     4   ar
    13    10     9   ar
    14     4     3   ar
    15     1    19    1
    16     1     2   ar
    17    16    15    1
    18    11    15    1
    19    11     9    1
    20     9     8   ar
    21     3     2   ar
    22     3     7   ar
    23     8     7   ar
