@<TRIPOS>MOLECULE
1oh3_BGC_A_1.pdb
 11 11 0 0 0
SMALL
GASTEIGER

@<TRIPOS>ATOM
      1  C2        22.4980    9.1560   10.3680 C.3   1146  BGC1146     0.2141
      2  C3        21.9870    7.9420   11.0980 C.3   1146  BGC1146     0.2173
      3  C4        22.9130    7.6850   12.2790 C.3   1146  BGC1146     0.2142
      4  C5        22.9140    8.8690   13.2220 C.3   1146  BGC1146     0.1810
      5  C6        23.8540    8.6540   14.3900 C.3   1146  BGC1146     0.2141
      6  C1        22.4530   10.2360   11.4340 C.3   1146  BGC1146     0.1777
      7  O2        21.6710    9.4840    9.2780 O.3   1146  BGC1146    -0.2176
      8  O3        22.0270    6.8900   10.1750 O.3   1146  BGC1146    -0.2175
      9  O4        22.3690    6.5870   12.9970 O.3   1146  BGC1146    -0.2176
     10  O5        23.3860    9.9520   12.4540 O.3   1146  BGC1146    -0.3481
     11  O6        23.8200    9.7930   15.2430 O.3   1146  BGC1146    -0.2176
@<TRIPOS>BOND
     1     7     1    1
     2     8     2    1
     3     1     2    1
     4     1     6    1
     5     2     3    1
     6     6    10    1
     7     3     9    1
     8     3     4    1
     9    10     4    1
    10     4     5    1
    11     5    11    1
