@<TRIPOS>MOLECULE
1oh4_BMA_A_1.pdb
 12 12 0 0 0
SMALL
GASTEIGER

@<TRIPOS>ATOM
      1  C1        24.9280   21.5930    1.6110 C.3   1177  BMA1177     0.3071
      2  C2        23.5580   22.2530    1.7190 C.3   1177  BMA1177     0.2699
      3  C3        22.4750   21.2740    1.2760 C.2   1177  BMA1177     0.2186
      4  C4        22.7180   20.6740   -0.1170 C.3   1177  BMA1177     0.2409
      5  C5        24.1630   20.1610   -0.1030 C.3   1177  BMA1177     0.1882
      6  C6        24.5990   19.6050   -1.4480 C.3   1177  BMA1177     0.2146
      7  O1        25.9570   22.4800    2.0200 O.3   1177  BMA1177    -0.1865
      8  O2        23.3900   23.3210    1.3010 O.3   1177  BMA1177    -0.2094
      9  O3        21.3870   21.6190    1.6440 O.2   1177  BMA1177    -0.2905
     10  O4        21.7170   19.6770   -0.4260 O.3   1177  BMA1177    -0.2123
     11  O5        25.0710   21.2060    0.2640 O.3   1177  BMA1177    -0.3230
     12  O6        24.7930   20.6830   -2.3220 O.3   1177  BMA1177    -0.2176
@<TRIPOS>BOND
     1    12     6    1
     2     6     5    1
     3    10     4    1
     4     4     5    1
     5     4     3    1
     6     5    11    1
     7    11     1    1
     8     3     9    2
     9     3     2    1
    10     8     2    1
    11     1     2    1
    12     1     7    1
