@<TRIPOS>MOLECULE
1oh5_ADP_A_1.pdb
 27 29 0 0 0
SMALL
GASTEIGER

@<TRIPOS>ATOM
      1  PB       135.5430   46.2300    8.2730 P.3   1801  ADP1801     0.5373
      2  O1B      136.8330   46.3890    7.6030 O.3   1801  ADP1801    -0.1143
      3  O2B      134.8570   47.5890    8.5040 O.3   1801  ADP1801    -0.1143
      4  O3B      134.6790   45.3470    7.3270 O.2   1801  ADP1801    -0.2221
      5  PA       135.7850   46.6880   10.9120 P.3   1801  ADP1801     0.2231
      6  O1A      134.4210   47.2700   10.9580 O.3   1801  ADP1801    -0.4370
      7  O2A      136.8160   47.7920   10.6480 O.2   1801  ADP1801    -0.5169
      8  O3A      135.8590   45.6180    9.7210 O.3   1801  ADP1801    -0.2261
      9  O5'      136.0910   45.8850   12.2720 O.3   1801  ADP1801    -0.3111
     10  C5'      135.0690   45.0750   12.8010 C.3   1801  ADP1801     0.1813
     11  C4'      135.5440   44.4320   14.0870 C.3   1801  ADP1801     0.1821
     12  O4'      136.9200   44.1120   14.0350 O.3   1801  ADP1801    -0.3135
     13  C3'      135.3610   45.3610   15.2720 C.3   1801  ADP1801     0.2184
     14  O3'      134.1150   45.0990   15.8860 O.3   1801  ADP1801    -0.2174
     15  C2'      136.5700   45.0930   16.1620 C.3   1801  ADP1801     0.2570
     16  O2'      136.2460   44.3470   17.3200 O.3   1801  ADP1801    -0.2130
     17  C1'      137.5430   44.2990   15.2960 C.3   1801  ADP1801     0.3186
     18  N9       138.8310   45.0100   15.1420 N.pl3 1801  ADP1801    -0.1439
     19  C8       139.1140   45.9550   14.1900 C.3   1801  ADP1801     0.3377
     20  N7       140.3870   46.3820   14.3560 N.2   1801  ADP1801    -0.2095
     21  C5       140.9140   45.7130   15.3980 C.2   1801  ADP1801     0.2526
     22  C6       142.1640   45.7660   15.9780 C.2   1801  ADP1801     0.4393
     23  N6       143.0390   46.6610   15.5340 N.pl3 1801  ADP1801     0.2180
     24  N1       142.4520   44.9550   17.0570 N.2   1801  ADP1801     0.0021
     25  C2       141.4920   44.0970   17.5560 C.3   1801  ADP1801     0.5254
     26  N3       140.2430   44.0540   16.9700 N.2   1801  ADP1801    -0.0055
     27  C4       139.9570   44.8470   15.9070 C.2   1801  ADP1801     0.3518
@<TRIPOS>BOND
     1     4     1    2
     2     2     1    1
     3     1     3    1
     4     1     8    1
     5     8     5    1
     6     7     5    2
     7     5     6    1
     8     5     9    1
     9     9    10    1
    10    10    11    1
    11    12    11    1
    12    12    17    1
    13    11    13    1
    14    19    20    1
    15    19    18    1
    16    20    21    2
    17    18    17    1
    18    18    27    1
    19    13    14    1
    20    13    15    1
    21    17    15    1
    22    21    27    1
    23    21    22    1
    24    23    22    1
    25    27    26    2
    26    22    24    2
    27    15    16    1
    28    26    25    1
    29    24    25    1
