@<TRIPOS>MOLECULE
1oh6_ADP_A_1.pdb
 27 29 0 0 0
SMALL
GASTEIGER

@<TRIPOS>ATOM
      1  PB       134.8690   46.1040    8.0140 P.3   1801  ADP1801     0.5373
      2  O1B      135.9510   45.6710    7.0810 O.2   1801  ADP1801    -0.2221
      3  O2B      134.6600   47.6200    7.8730 O.3   1801  ADP1801    -0.1143
      4  O3B      133.6370   45.3350    7.5060 O.3   1801  ADP1801    -0.1143
      5  PA       134.9590   46.6410   10.7980 P.3   1801  ADP1801     0.2231
      6  O1A      133.5080   46.9990   10.8530 O.2   1801  ADP1801    -0.5169
      7  O2A      135.8390   47.8870   10.9070 O.3   1801  ADP1801    -0.4370
      8  O3A      135.2990   45.7340    9.5210 O.3   1801  ADP1801    -0.2261
      9  O5'      135.3360   45.6820   12.0270 O.3   1801  ADP1801    -0.3111
     10  C5'      134.6020   44.5000   12.2540 C.3   1801  ADP1801     0.1813
     11  C4'      134.8970   43.9500   13.6380 C.3   1801  ADP1801     0.1821
     12  O4'      136.2770   43.6360   13.7540 O.3   1801  ADP1801    -0.3135
     13  C3'      134.5270   44.9580   14.7260 C.3   1801  ADP1801     0.2184
     14  O3'      133.4620   44.4910   15.5310 O.3   1801  ADP1801    -0.2174
     15  C2'      135.7570   45.0720   15.5820 C.3   1801  ADP1801     0.2570
     16  O2'      135.4380   44.6230   16.8780 O.3   1801  ADP1801    -0.2130
     17  C1'      136.8090   44.1580   14.9590 C.3   1801  ADP1801     0.3186
     18  N9       138.0620   44.9340   14.7990 N.pl3 1801  ADP1801    -0.1439
     19  C8       138.2840   45.9990   13.9700 C.3   1801  ADP1801     0.3377
     20  N7       139.5460   46.4380   14.1540 N.2   1801  ADP1801    -0.2095
     21  C5       140.1410   45.6610   15.0910 C.2   1801  ADP1801     0.2526
     22  C6       141.4180   45.6610   15.6540 C.2   1801  ADP1801     0.4393
     23  N6       142.3780   46.4320   15.1600 N.pl3 1801  ADP1801     0.2180
     24  N1       141.7240   44.7190   16.6190 N.2   1801  ADP1801     0.0021
     25  C2       140.7910   43.7850   17.0210 C.3   1801  ADP1801     0.5254
     26  N3       139.5300   43.7840   16.4550 N.2   1801  ADP1801    -0.0055
     27  C4       139.2110   44.7120   15.5080 C.2   1801  ADP1801     0.3518
@<TRIPOS>BOND
     1     2     1    2
     2     4     1    1
     3     3     1    1
     4     1     8    1
     5     8     5    1
     6     5     6    2
     7     5     7    1
     8     5     9    1
     9     9    10    1
    10    10    11    1
    11    11    12    1
    12    11    13    1
    13    12    17    1
    14    19    20    1
    15    19    18    1
    16    20    21    2
    17    13    14    1
    18    13    15    1
    19    18    17    1
    20    18    27    1
    21    17    15    1
    22    21    27    1
    23    21    22    1
    24    23    22    1
    25    27    26    2
    26    15    16    1
    27    22    24    2
    28    26    25    1
    29    24    25    1
