@<TRIPOS>MOLECULE
1oh7_ADP_A_1.pdb
 27 29 0 0 0
SMALL
GASTEIGER

@<TRIPOS>ATOM
      1  PB        -0.6250   45.7740    8.0090 P.3   1801  ADP1801     0.5373
      2  O1B       -1.7380   46.0240    7.0800 O.2   1801  ADP1801    -0.2221
      3  O2B       -0.2180   44.3050    8.0010 O.3   1801  ADP1801    -0.1143
      4  O3B        0.5510   46.6440    7.5250 O.3   1801  ADP1801    -0.1143
      5  PA        -0.7710   45.0320   10.7520 P.3   1801  ADP1801     0.2231
      6  O1A        0.6460   44.6230   10.7670 O.3   1801  ADP1801    -0.4370
      7  O2A       -1.7190   43.8370   10.6480 O.2   1801  ADP1801    -0.5169
      8  O3A       -1.0310   46.1070    9.5500 O.3   1801  ADP1801    -0.2261
      9  O5'       -1.0440   45.8090   12.1330 O.3   1801  ADP1801    -0.3111
     10  C5'       -0.4020   47.0570   12.3390 C.3   1801  ADP1801     0.1813
     11  C4'       -0.6490   47.5760   13.7490 C.3   1801  ADP1801     0.1821
     12  O4'       -1.9780   48.0520   13.8600 O.3   1801  ADP1801    -0.3135
     13  C3'       -0.4790   46.5020   14.8200 C.3   1801  ADP1801     0.2184
     14  O3'        0.7880   46.5510   15.4250 O.3   1801  ADP1801    -0.2174
     15  C2'       -1.5380   46.8410   15.8320 C.3   1801  ADP1801     0.2570
     16  O2'       -0.9140   47.5310   16.8930 O.3   1801  ADP1801    -0.2130
     17  C1'       -2.5510   47.7100   15.1030 C.3   1801  ADP1801     0.3186
     18  N9        -3.8190   46.9930   14.8890 N.pl3 1801  ADP1801    -0.1439
     19  C8        -4.0780   46.0750   13.9160 C.3   1801  ADP1801     0.3377
     20  N7        -5.3450   45.6390   14.0540 N.2   1801  ADP1801    -0.2095
     21  C5        -5.9030   46.2690   15.0980 C.2   1801  ADP1801     0.2526
     22  C6        -7.1650   46.1990   15.6660 C.2   1801  ADP1801     0.4393
     23  N6        -8.1270   45.5070   15.0780 N.pl3 1801  ADP1801     0.2180
     24  N1        -7.4610   46.9760   16.7620 N.2   1801  ADP1801     0.0021
     25  C2        -6.5080   47.8210   17.2930 C.3   1801  ADP1801     0.5254
     26  N3        -5.2580   47.8850   16.7080 N.2   1801  ADP1801    -0.0055
     27  C4        -4.9570   47.1220   15.6360 C.2   1801  ADP1801     0.3518
@<TRIPOS>BOND
     1     2     1    2
     2     4     1    1
     3     3     1    1
     4     1     8    1
     5     8     5    1
     6     7     5    2
     7     5     6    1
     8     5     9    1
     9     9    10    1
    10    10    11    1
    11    11    12    1
    12    11    13    1
    13    12    17    1
    14    19    20    1
    15    19    18    1
    16    20    21    2
    17    13    14    1
    18    13    15    1
    19    18    17    1
    20    18    27    1
    21    23    22    1
    22    21    27    1
    23    21    22    1
    24    17    15    1
    25    27    26    2
    26    22    24    2
    27    15    16    1
    28    26    25    1
    29    24    25    1
