@<TRIPOS>MOLECULE
1oh8_ADP_A_1.pdb
 27 29 0 0 0
SMALL
GASTEIGER

@<TRIPOS>ATOM
      1  PB        45.5820    0.4340    8.2790 P.3   1801  ADP1801     0.5373
      2  O1B       46.5360    0.1370    7.1860 O.2   1801  ADP1801    -0.2221
      3  O2B       45.2940    1.9190    8.4640 O.3   1801  ADP1801    -0.1143
      4  O3B       44.2430   -0.2290    7.9200 O.3   1801  ADP1801    -0.1143
      5  PA        45.7590    0.7910   10.9620 P.3   1801  ADP1801     0.2231
      6  O1A       44.3360    1.1360   10.9110 O.2   1801  ADP1801    -0.5169
      7  O2A       46.6240    2.0400   11.0570 O.3   1801  ADP1801    -0.4370
      8  O3A       46.1910   -0.0330    9.6740 O.3   1801  ADP1801    -0.2261
      9  O5'       46.0480   -0.1990   12.1930 O.3   1801  ADP1801    -0.3111
     10  C5'       45.0790   -1.0900   12.6720 C.3   1801  ADP1801     0.1813
     11  C4'       45.4370   -1.3660   14.1160 C.3   1801  ADP1801     0.1821
     12  O4'       46.7310   -1.9210   14.2000 O.3   1801  ADP1801    -0.3135
     13  C3'       45.4840   -0.1120   14.9800 C.3   1801  ADP1801     0.2184
     14  O3'       44.2200    0.2650   15.4820 O.3   1801  ADP1801    -0.2174
     15  C2'       46.4410   -0.5030   16.0860 C.3   1801  ADP1801     0.2570
     16  O2'       45.8030   -1.1220   17.1870 O.3   1801  ADP1801    -0.2130
     17  C1'       47.3680   -1.4800   15.3860 C.3   1801  ADP1801     0.3186
     18  N9        48.6180   -0.7540   15.1200 N.pl3 1801  ADP1801    -0.1439
     19  C8        48.8480    0.2690   14.2310 C.3   1801  ADP1801     0.3377
     20  N7        50.1480    0.6400   14.3510 N.2   1801  ADP1801    -0.2095
     21  C5        50.7300   -0.1260   15.3040 C.2   1801  ADP1801     0.2526
     22  C6        52.0080   -0.1900   15.8410 C.2   1801  ADP1801     0.4393
     23  N6        52.9210    0.7030   15.5030 N.pl3 1801  ADP1801     0.2180
     24  N1        52.3040   -1.1000   16.8340 N.2   1801  ADP1801     0.0021
     25  C2        51.3350   -1.9520   17.3080 C.3   1801  ADP1801     0.5254
     26  N3        50.0650   -1.8860   16.7760 N.2   1801  ADP1801    -0.0055
     27  C4        49.7740   -0.9980   15.7970 C.2   1801  ADP1801     0.3518
@<TRIPOS>BOND
     1     2     1    2
     2     4     1    1
     3     1     3    1
     4     1     8    1
     5     8     5    1
     6     6     5    2
     7     5     7    1
     8     5     9    1
     9     9    10    1
    10    10    11    1
    11    11    12    1
    12    11    13    1
    13    12    17    1
    14    19    20    1
    15    19    18    1
    16    20    21    2
    17    13    14    1
    18    13    15    1
    19    18    17    1
    20    18    27    1
    21    21    27    1
    22    21    22    1
    23    17    15    1
    24    23    22    1
    25    27    26    2
    26    22    24    2
    27    15    16    1
    28    26    25    1
    29    24    25    1
