@<TRIPOS>MOLECULE
1oh9_ADP_A_1.pdb
 27 29 0 0 0
SMALL
GASTEIGER

@<TRIPOS>ATOM
      1  PB        25.1550   11.7380   45.4580 P.3   1259  ADP1259     0.5373
      2  O1B       26.2780   12.6520   45.9410 O.3   1259  ADP1259    -0.1143
      3  O2B       23.7800   12.1380   45.8590 O.3   1259  ADP1259    -0.1143
      4  O3B       25.2800   11.5020   43.9270 O.2   1259  ADP1259    -0.2221
      5  PA        26.3560    9.7380   47.2110 P.3   1259  ADP1259     0.2231
      6  O1A       26.2620    8.2530   47.1520 O.3   1259  ADP1259    -0.4370
      7  O2A       27.7060   10.2500   47.0950 O.2   1259  ADP1259    -0.5169
      8  O3A       25.4330   10.2770   45.9800 O.3   1259  ADP1259    -0.2261
      9  O5'       25.7750   10.2250   48.6110 O.3   1259  ADP1259    -0.3111
     10  C5'       24.4430    9.8930   49.0630 C.3   1259  ADP1259     0.1813
     11  C4'       24.3980    8.5370   49.7160 C.3   1259  ADP1259     0.1821
     12  O4'       25.2420    8.4750   50.9080 O.3   1259  ADP1259    -0.3135
     13  C3'       23.0020    8.0890   50.2430 C.3   1259  ADP1259     0.2184
     14  O3'       22.2670    7.6280   49.0540 O.3   1259  ADP1259    -0.2174
     15  C2'       23.4270    6.9810   51.2540 C.3   1259  ADP1259     0.2570
     16  O2'       23.3310    5.6740   50.6200 O.3   1259  ADP1259    -0.2130
     17  C1'       24.8840    7.3010   51.6460 C.3   1259  ADP1259     0.3186
     18  N9        24.9720    7.5980   53.0780 N.pl3 1259  ADP1259    -0.1439
     19  C8        25.9230    7.0190   53.9120 C.3   1259  ADP1259     0.3377
     20  N7        25.9180    7.3490   55.1510 N.2   1259  ADP1259    -0.2095
     21  C5        24.8900    8.2240   55.1860 C.2   1259  ADP1259     0.2526
     22  C6        24.3740    8.9470   56.2710 C.2   1259  ADP1259     0.4393
     23  N6        24.7610    8.9660   57.5660 N.pl3 1259  ADP1259     0.2180
     24  N1        23.2740    9.8040   56.0090 N.2   1259  ADP1259     0.0021
     25  C2        22.7490    9.9000   54.7070 C.3   1259  ADP1259     0.5254
     26  N3        23.1650    9.2570   53.6070 N.2   1259  ADP1259    -0.0055
     27  C4        24.2800    8.4050   53.9270 C.2   1259  ADP1259     0.3518
@<TRIPOS>BOND
     1     4     1    2
     2     1     3    1
     3     1     2    1
     4     1     8    1
     5     8     5    1
     6     7     5    2
     7     6     5    1
     8     5     9    1
     9     9    10    1
    10    14    13    1
    11    10    11    1
    12    11    13    1
    13    11    12    1
    14    13    15    1
    15    16    15    1
    16    12    17    1
    17    15    17    1
    18    17    18    1
    19    18    19    1
    20    18    27    1
    21    26    27    2
    22    26    25    1
    23    19    20    1
    24    27    21    1
    25    25    24    1
    26    20    21    2
    27    21    22    1
    28    24    22    2
    29    22    23    1
