@<TRIPOS>MOLECULE
1oh9_NLG_A_1.pdb
 13 12 0 0 0
SMALL
GASTEIGER

@<TRIPOS>ATOM
      1  CA        32.1770   10.7660   40.7200 C.3   1260  NLG1260     0.1983
      2  C         31.9030    9.5540   40.2020 C.2   1260  NLG1260     0.3842
      3  OXT       32.5130    8.8700   39.1650 O.co2 1260  NLG1260    -0.2437
      4  O         31.0030    8.7230   40.5580 O.co2 1260  NLG1260    -0.2437
      5  CB        31.5990   11.8360   39.7980 C.3   1260  NLG1260     0.0451
      6  CG        30.0030   11.7810   39.6550 C.3   1260  NLG1260     0.1164
      7  CD        29.2380   12.0510   40.8920 C.2   1260  NLG1260     0.3649
      8  OE1       29.6160   12.6920   41.8810 O.co2 1260  NLG1260    -0.2457
      9  OE2       28.1590   11.4340   40.8540 O.co2 1260  NLG1260    -0.2457
     10  C7        34.5210   10.5120   41.6200 C.2   1260  NLG1260     0.2423
     11  C8        35.8110   10.7050   41.4890 C.3   1260  NLG1260     0.0964
     12  O7        34.0760    9.9210   42.6330 O.2   1260  NLG1260    -0.2733
     13  N2        33.7050   10.8230   40.8930 N.am  1260  NLG1260    -0.1956
@<TRIPOS>BOND
     1     3     2   ar
     2     6     5    1
     3     6     7    1
     4     5     1    1
     5     2     4   ar
     6     2     1    1
     7     1    13    1
     8     9     7   ar
     9     7     8   ar
    10    13    10   am
    11    11    10    1
    12    10    12    2
