@<TRIPOS>MOLECULE
1oha_ADP_A_1.pdb
 27 29 0 0 0
SMALL
GASTEIGER

@<TRIPOS>ATOM
      1  PB        25.3440   11.6120   45.2660 P.3   1259  ADP1259     0.5373
      2  O1B       26.6340   12.1560   45.6300 O.3   1259  ADP1259    -0.1143
      3  O2B       24.2240   12.5300   45.9090 O.3   1259  ADP1259    -0.1143
      4  O3B       25.1160   11.6350   43.6510 O.2   1259  ADP1259    -0.2221
      5  PA        26.1300    9.5130   46.5710 P.3   1259  ADP1259     0.2231
      6  O1A       25.6660    8.1310   46.3250 O.2   1259  ADP1259    -0.5169
      7  O2A       27.5360    9.7370   46.3280 O.3   1259  ADP1259    -0.4370
      8  O3A       25.1340   10.2880   45.6780 O.3   1259  ADP1259    -0.2261
      9  O5'       25.8380    9.8450   48.0930 O.3   1259  ADP1259    -0.3111
     10  C5'       24.5080    9.6670   48.6240 C.3   1259  ADP1259     0.1813
     11  C4'       24.4170    8.3620   49.3850 C.3   1259  ADP1259     0.1821
     12  O4'       25.2230    8.3950   50.6090 O.3   1259  ADP1259    -0.3135
     13  C3'       23.0150    8.0400   49.9620 C.3   1259  ADP1259     0.2184
     14  O3'       22.2880    7.5040   48.8090 O.3   1259  ADP1259    -0.2174
     15  C2'       23.4110    6.9260   50.9810 C.3   1259  ADP1259     0.2570
     16  O2'       23.3610    5.6370   50.3090 O.3   1259  ADP1259    -0.2130
     17  C1'       24.8670    7.2400   51.3640 C.3   1259  ADP1259     0.3186
     18  N9        24.9400    7.5310   52.7960 N.pl3 1259  ADP1259    -0.1439
     19  C8        25.9160    6.9940   53.6160 C.3   1259  ADP1259     0.3377
     20  N7        25.9080    7.3250   54.8490 N.2   1259  ADP1259    -0.2095
     21  C5        24.8470    8.1540   54.8960 C.2   1259  ADP1259     0.2526
     22  C6        24.3370    8.8300   55.9900 C.2   1259  ADP1259     0.4393
     23  N6        24.7530    8.8450   57.2840 N.pl3 1259  ADP1259     0.2180
     24  N1        23.2210    9.6310   55.7630 N.2   1259  ADP1259     0.0021
     25  C2        22.6900    9.7050   54.4750 C.3   1259  ADP1259     0.5254
     26  N3        23.1000    9.0960   53.3590 N.2   1259  ADP1259    -0.0055
     27  C4        24.2250    8.3070   53.6550 C.2   1259  ADP1259     0.3518
@<TRIPOS>BOND
     1     4     1    2
     2     1     2    1
     3     1     8    1
     4     1     3    1
     5     8     5    1
     6     6     5    2
     7     7     5    1
     8     5     9    1
     9     9    10    1
    10    10    11    1
    11    14    13    1
    12    11    13    1
    13    11    12    1
    14    13    15    1
    15    16    15    1
    16    12    17    1
    17    15    17    1
    18    17    18    1
    19    18    19    1
    20    18    27    1
    21    26    27    2
    22    26    25    1
    23    19    20    1
    24    27    21    1
    25    25    24    1
    26    20    21    2
    27    21    22    1
    28    24    22    2
    29    22    23    1
