@<TRIPOS>MOLECULE
1oha_NLG_A_1.pdb
 13 12 0 0 0
SMALL
GASTEIGER

@<TRIPOS>ATOM
      1  CA        32.5530   10.9240   40.6950 C.3   1260  NLG1260     0.1983
      2  C         32.2760    9.7080   40.1960 C.2   1260  NLG1260     0.3842
      3  OXT       32.8760    9.0160   39.1530 O.co2 1260  NLG1260    -0.2437
      4  O         31.3750    8.8810   40.5720 O.co2 1260  NLG1260    -0.2437
      5  CB        31.9410   11.9730   39.7630 C.3   1260  NLG1260     0.0451
      6  CG        30.3450   11.8720   39.6360 C.3   1260  NLG1260     0.1164
      7  CD        29.7520   12.2220   40.9990 C.2   1260  NLG1260     0.3649
      8  OE1       30.1740   12.8910   41.9510 O.co2 1260  NLG1260    -0.2457
      9  OE2       28.6350   11.6390   41.0040 O.co2 1260  NLG1260    -0.2457
     10  C7        34.9070   10.6890   41.5900 C.2   1260  NLG1260     0.2423
     11  C8        36.2040   10.8990   41.4720 C.3   1260  NLG1260     0.0964
     12  O7        34.4580   10.0770   42.5960 O.2   1260  NLG1260    -0.2733
     13  N2        34.0860   11.0040   40.8600 N.am  1260  NLG1260    -0.1956
@<TRIPOS>BOND
     1     3     2   ar
     2     6     5    1
     3     6     7    1
     4     5     1    1
     5     2     4   ar
     6     2     1    1
     7     1    13    1
     8    13    10   am
     9     7     9   ar
    10     7     8   ar
    11    11    10    1
    12    10    12    2
