@<TRIPOS>MOLECULE
1ohb_ADP_A_1.pdb
 27 29 0 0 0
SMALL
GASTEIGER

@<TRIPOS>ATOM
      1  PB        23.5630   10.7680   46.3050 P.3   1260  ADP1260     0.5373
      2  O1B       24.2740   11.8920   46.8830 O.3   1260  ADP1260    -0.1143
      3  O2B       22.2380   10.5360   47.1370 O.3   1260  ADP1260    -0.1143
      4  O3B       23.1280   11.0460   44.7680 O.2   1260  ADP1260    -0.2221
      5  PA        25.4910    9.1910   47.1880 P.3   1260  ADP1260     0.2231
      6  O1A       25.4890    7.7160   47.0360 O.3   1260  ADP1260    -0.4370
      7  O2A       26.7580    9.8180   46.9010 O.2   1260  ADP1260    -0.5169
      8  O3A       24.2830    9.5500   46.2750 O.3   1260  ADP1260    -0.2261
      9  O5'       25.1440    9.5200   48.7050 O.3   1260  ADP1260    -0.3111
     10  C5'       23.9270    9.0180   49.2960 C.3   1260  ADP1260     0.1813
     11  C4'       24.2130    7.7400   50.0430 C.3   1260  ADP1260     0.1821
     12  O4'       25.1200    7.9790   51.1730 O.3   1260  ADP1260    -0.3135
     13  C3'       22.9960    7.0750   50.7250 C.3   1260  ADP1260     0.2184
     14  O3'       22.3310    6.3670   49.6220 O.3   1260  ADP1260    -0.2174
     15  C2'       23.7140    6.1740   51.7680 C.3   1260  ADP1260     0.2570
     16  O2'       23.8590    4.8230   51.2400 O.3   1260  ADP1260    -0.2130
     17  C1'       25.0890    6.8280   52.0150 C.3   1260  ADP1260     0.3186
     18  N9        25.1860    7.2540   53.4100 N.pl3 1260  ADP1260    -0.1439
     19  C8        26.1690    6.8010   54.2790 C.3   1260  ADP1260     0.3377
     20  N7        26.1510    7.2460   55.4880 N.2   1260  ADP1260    -0.2095
     21  C5        25.0760    8.0720   55.4520 C.2   1260  ADP1260     0.2526
     22  C6        24.5210    8.8630   56.4740 C.2   1260  ADP1260     0.4393
     23  N6        24.9040    9.0210   57.7630 N.pl3 1260  ADP1260     0.2180
     24  N1        23.3780    9.6380   56.1460 N.2   1260  ADP1260     0.0021
     25  C2        22.8510    9.5870   54.8430 C.3   1260  ADP1260     0.5254
     26  N3        23.3070    8.8620   53.7990 N.2   1260  ADP1260    -0.0055
     27  C4        24.4580    8.1040   54.1910 C.2   1260  ADP1260     0.3518
@<TRIPOS>BOND
     1     4     1    2
     2     8     1    1
     3     8     5    1
     4     1     2    1
     5     1     3    1
     6     7     5    2
     7     6     5    1
     8     5     9    1
     9     9    10    1
    10    10    11    1
    11    14    13    1
    12    11    13    1
    13    11    12    1
    14    13    15    1
    15    12    17    1
    16    16    15    1
    17    15    17    1
    18    17    18    1
    19    18    27    1
    20    18    19    1
    21    26    27    2
    22    26    25    1
    23    27    21    1
    24    19    20    1
    25    25    24    1
    26    21    20    2
    27    21    22    1
    28    24    22    2
    29    22    23    1
