@<TRIPOS>MOLECULE
1ohe_III_B_1.pdb
 26 26 0 0 0
SMALL
GASTEIGER

@<TRIPOS>ATOM
      1  C         34.7790   -2.5610   12.6830 C.2     0  ACE0        0.2423
      2  O         33.9930   -1.6060   12.7240 O.2     0  ACE0       -0.2733
      3  CH3       36.1360   -2.4670   13.3420 C.3     0  ACE0        0.0964
      4  N         34.5210   -3.6990   12.0430 N.am    1  ALA1       -0.1978
      5  CA        33.2690   -3.9570   11.3400 C.3     1  ALA1        0.1728
      6  C         32.0240   -3.8010   12.2090 C.2     1  ALA1        0.2617
      7  O         32.0430   -4.1450   13.3970 O.2     1  ALA1       -0.2715
      8  CB        33.3010   -5.3460   10.7260 C.3     1  ALA1        0.0334
      9  N         30.9770   -3.2180   11.6200 N.am    2  SER2       -0.1937
     10  CA        29.6910   -3.0210   12.2910 C.3     2  SER2        0.2012
     11  CB        28.7660   -2.0920   11.4690 C.3     2  SER2        0.1846
     12  OG        29.3620   -0.7780   11.3050 O.3     2  SER2       -0.2679
     13  C         29.0810   -4.4230   12.4870 C.2     2  SER2        0.2484
     14  O         29.0080   -5.2000   11.5290 O.2     2  SER2       -0.2729
     15  P         28.6170    0.3730   11.0690 P.3     2  SER2        0.5327
     16  O1P       27.7620    0.8490   12.1990 O.3     2  SER2       -0.1145
     17  O2P       27.9600    0.0420    9.7840 O.2     2  SER2       -0.2224
     18  O3P       29.7420    1.4430   10.9680 O.3     2  SER2       -0.1145
     19  N         28.7220   -4.7910   13.7390 N.am    3  PRO3       -0.2699
     20  CA        28.1350   -6.1050   14.0470 C.3     3  PRO3        0.1791
     21  C         26.7200   -6.3450   13.5210 C.2     3  PRO3        0.3825
     22  O         25.9980   -5.3480   13.2960 O.co2   3  PRO3       -0.2438
     23  CB        28.1890   -6.1480   15.5720 C.3     3  PRO3        0.0332
     24  CG        28.0380   -4.7220   15.9510 C.3     3  PRO3        0.0238
     25  CD        28.9240   -4.0190   14.9790 C.3     3  PRO3        0.0940
     26  OXT       26.3660   -7.5320   13.3320 O.co2   3  PRO3       -0.2438
@<TRIPOS>BOND
     1    17    15    2
     2     8     5    1
     3    18    15    1
     4    15    12    1
     5    15    16    1
     6    12    11    1
     7     5     4    1
     8     5     6    1
     9    11    10    1
    10    14    13    2
    11     9     6   am
    12     9    10    1
    13     4     1   am
    14     6     7    2
    15    10    13    1
    16    13    19   am
    17     1     2    2
    18     1     3    1
    19    22    21   ar
    20    26    21   ar
    21    21    20    1
    22    19    20    1
    23    19    25    1
    24    20    23    1
    25    25    24    1
    26    23    24    1
