@<TRIPOS>MOLECULE
1ohh_ANP_A_1.pdb
 31 33 0 0 0
SMALL
GASTEIGER

@<TRIPOS>ATOM
      1  PG       100.4740    8.1940  -16.9420 P.3   1511  ANP1511     0.4884
      2  O1G      100.5940    8.2670  -15.4430 O.3   1511  ANP1511    -0.1240
      3  O2G      101.4710    9.0520  -17.5890 O.2   1511  ANP1511    -0.2331
      4  O3G      100.5630    6.7600  -17.4320 O.3   1511  ANP1511    -0.1240
      5  PB        98.6790   10.1180  -18.1380 P.3   1511  ANP1511     0.4669
      6  O1B       98.6530   11.3100  -17.2920 O.3   1511  ANP1511    -0.1253
      7  O2B       99.6990   10.2410  -19.1790 O.2   1511  ANP1511    -0.2351
      8  N3B       98.9870    8.7670  -17.2710 N.3   1511  ANP1511    -0.0163
      9  PA        96.7680    9.0250  -20.0060 P.3   1511  ANP1511     0.2220
     10  O1A       96.8410    9.5290  -21.3930 O.2   1511  ANP1511    -0.5170
     11  O2A       97.6080    7.7510  -19.9330 O.3   1511  ANP1511    -0.4370
     12  O3A       97.2650    9.9880  -18.8330 O.3   1511  ANP1511    -0.2360
     13  O5'       95.3230    8.8020  -19.4720 O.3   1511  ANP1511    -0.3111
     14  C5'       94.8900    7.5720  -18.9200 C.3   1511  ANP1511     0.1813
     15  C4'       93.7000    6.9540  -19.4720 C.3   1511  ANP1511     0.1821
     16  O4'       92.6320    7.9000  -19.7580 O.3   1511  ANP1511    -0.3135
     17  C3'       93.9560    6.1320  -20.7460 C.3   1511  ANP1511     0.2184
     18  O3'       93.3730    4.8130  -20.6440 O.3   1511  ANP1511    -0.2174
     19  C2'       93.2640    6.9370  -21.8470 C.3   1511  ANP1511     0.2570
     20  O2'       92.6620    6.1590  -22.8650 O.3   1511  ANP1511    -0.2130
     21  C1'       92.1630    7.7030  -21.0660 C.3   1511  ANP1511     0.3186
     22  N9        91.7340    8.9600  -21.7100 N.pl3 1511  ANP1511    -0.1439
     23  C8        92.4480   10.0700  -21.9750 C.3   1511  ANP1511     0.3377
     24  N7        91.7540   11.0230  -22.5700 N.2   1511  ANP1511    -0.2095
     25  C5        90.4960   10.4860  -22.6880 C.2   1511  ANP1511     0.2526
     26  C6        89.3040   10.9970  -23.2420 C.2   1511  ANP1511     0.4393
     27  N6        89.2010   12.2130  -23.7760 N.pl3 1511  ANP1511     0.2180
     28  N1        88.1760   10.1860  -23.2090 N.2   1511  ANP1511     0.0021
     29  C2        88.2800    8.9340  -22.6570 C.3   1511  ANP1511     0.5254
     30  N3        89.3430    8.3790  -22.1280 N.2   1511  ANP1511    -0.0055
     31  C4        90.4370    9.2130  -22.1760 C.2   1511  ANP1511     0.3518
@<TRIPOS>BOND
     1    27    26    1
     2    26    28    2
     3    26    25    1
     4    28    29    1
     5    20    19    1
     6    25    24    2
     7    25    31    1
     8    29    30    1
     9    24    23    1
    10    31    30    2
    11    31    22    1
    12    23    22    1
    13    19    21    1
    14    19    17    1
    15    22    21    1
    16    10     9    2
    17    21    16    1
    18    17    18    1
    19    17    15    1
    20     9    11    1
    21     9    13    1
    22     9    12    1
    23    16    15    1
    24    15    14    1
    25    13    14    1
    26     7     5    2
    27    12     5    1
    28     5     6    1
    29     5     8    1
    30     3     1    2
    31     4     1    1
    32     8     1    1
    33     1     2    1
