@<TRIPOS>MOLECULE
1ohj_COP_A_1.pdb
 42 45 0 0 0
SMALL
GASTEIGER

@<TRIPOS>ATOM
      1  C3        11.4360   28.0650   13.0090 C.1   188  COP188      0.2519
      2  C1        13.2690   26.9070   13.7590 C.2   188  COP188      0.2728
      3  C10       14.1210   28.0040   13.5500 C.2   188  COP188      0.2518
      4  C8        16.1130   29.0390   13.5620 C.2   188  COP188      0.1348
      5  C7        15.5470   30.2090   13.0630 C.3   188  COP188      0.1931
      6  C5        13.5230   29.1730   13.0140 C.1   188  COP188      0.1314
      7  C11       17.5870   29.0080   13.8640 C.3   188  COP188      0.1682
      8  C13       17.7300   31.1990   14.8660 C.ar  188  COP188      0.0658
      9  C18       18.1350   32.5330   14.8520 C.ar  188  COP188      0.0162
     10  C17       17.6980   33.4290   15.8320 C.ar  188  COP188      0.0059
     11  C16       16.8310   32.9630   16.8430 C.ar  188  COP188      0.0551
     12  C15       16.4420   31.6310   16.8550 C.ar  188  COP188      0.0059
     13  C14       16.9000   30.7440   15.9030 C.ar  188  COP188      0.0162
     14  C19       16.3330   33.9250   17.8480 C.2   188  COP188      0.2652
     15  C21       14.9100   34.3520   19.8900 C.3   188  COP188      0.1981
     16  C24       13.9790   33.7000   20.9230 C.2   188  COP188      0.3842
     17  C27       13.9540   35.4110   19.4000 C.3   188  COP188      0.0351
     18  C28       14.2310   36.0060   18.0870 C.3   188  COP188      0.0258
     19  C29       13.1260   36.9480   17.9450 C.3   188  COP188      0.1155
     20  N4        12.1810   29.1640   12.7430 N.2   188  COP188     -0.2684
     21  N3        10.1550   28.0830   12.7970 N.pl3 188  COP188     -0.0226
     22  N2        11.9620   26.9590   13.4680 N.2   188  COP188     -0.3033
     23  N1        13.7190   25.7350   14.2450 N.pl3 188  COP188     -0.0887
     24  N9        15.4440   27.9640   13.7880 N.2   188  COP188     -0.3916
     25  N6        14.2300   30.2440   12.7910 N.2   188  COP188     -0.1998
     26  N12       18.1980   30.3360   13.8820 N.pl3 188  COP188     -0.2303
     27  N20       15.3750   33.6600   18.7100 N.am  188  COP188     -0.1918
     28  O19       16.8750   35.0170   17.7660 O.2   188  COP188     -0.2684
     29  O24       13.9310   34.3440   22.0090 O.co2 188  COP188     -0.2437
     30  O25       13.4430   32.7170   20.4510 O.co2 188  COP188     -0.2437
     31  N30       13.1550   38.2370   17.1440 N.am  188  COP188     -0.2017
     32  C31       13.4920   39.3150   16.3150 C.2   188  COP188      0.2650
     33  O32       13.6940   39.2190   15.0980 O.2   188  COP188     -0.2684
     34  C33       13.5640   40.7350   16.8510 C.ar  188  COP188      0.0614
     35  C38       14.4260   41.6990   16.2820 C.ar  188  COP188      0.0842
     36  C37       14.4480   43.0010   16.8090 C.ar  188  COP188      0.0067
     37  C36       13.6020   43.3260   17.8870 C.ar  188  COP188      0.0002
     38  C35       12.7730   42.3960   18.4270 C.ar  188  COP188      0.0002
     39  C34       12.7380   41.0860   17.9210 C.ar  188  COP188      0.0048
     40  C39       15.3580   41.3910   15.1320 C.2   188  COP188      0.3879
     41  O40       15.7200   40.1170   14.9090 O.co2 188  COP188     -0.2406
     42  O41       15.8160   42.2430   14.3850 O.co2 188  COP188     -0.2406
@<TRIPOS>BOND
     1    20     1    2
     2    20     6    2
     3    25     6    2
     4    25     5    1
     5    21     1    1
     6     1    22    2
     7     6     3    1
     8     5     4    1
     9    22     2    2
    10     3     2    1
    11     3    24    2
    12     4    24    2
    13     4     7    1
    14     2    23    1
    15     7    26    1
    16    26     8    1
    17    42    40   ar
    18     9     8   ar
    19     9    10   ar
    20     8    13   ar
    21    41    40   ar
    22    33    32    2
    23    40    35    1
    24    10    11   ar
    25    13    12   ar
    26    35    36   ar
    27    35    34   ar
    28    32    34    1
    29    32    31   am
    30    36    37   ar
    31    11    12   ar
    32    11    14    1
    33    34    39   ar
    34    31    19    1
    35    28    14    2
    36    14    27   am
    37    37    38   ar
    38    39    38   ar
    39    19    18    1
    40    18    17    1
    41    27    15    1
    42    17    15    1
    43    15    16    1
    44    30    16   ar
    45    16    29   ar
