@<TRIPOS>MOLECULE
1ohj_NDP_A_1.pdb
 48 52 0 0 0
SMALL
GASTEIGER

@<TRIPOS>ATOM
      1  PA        23.6300   21.3510   13.4470 P.3   187  NDP187      0.2189
      2  O1A       23.5300   22.7360   14.0660 O.3   187  NDP187     -0.4371
      3  O2A       22.7470   20.2260   13.6830 O.2   187  NDP187     -0.5170
      4  O5B       25.2170   21.0720   13.9480 O.3   187  NDP187     -0.3112
      5  C5B       25.6430   19.6640   13.7820 C.3   187  NDP187      0.1813
      6  C4B       26.7850   19.6290   14.8370 C.3   187  NDP187      0.1820
      7  O4B       26.2510   19.5020   15.9440 O.3   187  NDP187     -0.3136
      8  C3B       27.4920   18.1990   14.5020 C.3   187  NDP187      0.2157
      9  O3B       28.6560   18.8350   13.7670 O.3   187  NDP187     -0.2175
     10  C2B       27.7450   17.7830   15.9560 C.3   187  NDP187      0.2314
     11  O2B       28.6650   18.5180   16.6370 O.3   187  NDP187     -0.2630
     12  C1B       26.4800   18.3140   16.6810 C.3   187  NDP187      0.3158
     13  N9A       25.3640   17.4050   16.6090 N.pl3 187  NDP187     -0.1439
     14  C8A       24.3510   17.5990   15.7600 C.3   187  NDP187      0.3377
     15  N7A       23.4520   16.6480   15.8400 N.2   187  NDP187     -0.2095
     16  C5A       24.0510   15.8470   16.8770 C.2   187  NDP187      0.2526
     17  C6A       23.5670   14.5270   17.5730 C.2   187  NDP187      0.4393
     18  N6A       22.4050   14.1100   17.0090 N.pl3 187  NDP187      0.2180
     19  N1A       24.2870   14.0310   18.4310 N.2   187  NDP187      0.0021
     20  C2A       25.4480   14.6620   18.7520 C.3   187  NDP187      0.5254
     21  N3A       25.9720   15.7810   18.2720 N.2   187  NDP187     -0.0055
     22  C4A       25.1900   16.3210   17.2890 C.2   187  NDP187      0.3518
     23  O3        23.9480   21.5990   11.9300 O.3   187  NDP187     -0.2703
     24  PN        23.1970   21.4980   10.5440 P.3   187  NDP187      0.2189
     25  O1N       22.0580   20.7190   10.3710 O.3   187  NDP187     -0.4371
     26  O2N       24.2550   20.9740    9.6640 O.2   187  NDP187     -0.5170
     27  O5D       22.9260   23.0240   10.1160 O.3   187  NDP187     -0.3112
     28  C5D       22.1510   24.0840   10.6040 C.3   187  NDP187      0.1813
     29  C4D       22.0670   25.0300    9.4030 C.3   187  NDP187      0.1799
     30  O4D       20.6660   25.2550    8.9750 O.3   187  NDP187     -0.3327
     31  C3D       22.5280   26.5040    9.6300 C.3   187  NDP187      0.2158
     32  O3D       22.5800   27.1830    8.3370 O.3   187  NDP187     -0.2175
     33  C2D       21.3010   27.0090   10.4620 C.3   187  NDP187      0.2309
     34  O2D       21.1970   28.3810   10.3460 O.3   187  NDP187     -0.2158
     35  C1D       20.1610   26.4430    9.6570 C.3   187  NDP187      0.2263
     36  N1N       18.9220   25.9970   10.4720 N.pl3 187  NDP187     -0.2787
     37  C2N       17.6640   26.4480   10.0250 C.3   187  NDP187      0.1244
     38  C3N       16.5490   26.0770   10.6530 C.2   187  NDP187      0.0544
     39  C7N       15.2970   26.6120   10.0780 C.2   187  NDP187      0.2818
     40  O7N       14.2600   26.2910   10.6050 O.2   187  NDP187     -0.2670
     41  N7N       15.2670   27.4050    8.9850 N.am  187  NDP187     -0.0839
     42  C4N       16.5660   25.1380   11.9000 C.2   187  NDP187      0.0033
     43  C5N       18.0070   24.7600   12.2470 C.2   187  NDP187      0.0157
     44  C6N       19.0870   25.1380   11.5800 C.2   187  NDP187      0.0633
     45  P2B       30.3450   18.6300   16.9240 P.3   187  NDP187      0.5328
     46  O1X       30.4140   17.4300   17.8530 O.3   187  NDP187     -0.1145
     47  O2X       30.4210   19.9350   17.5610 O.3   187  NDP187     -0.1145
     48  O3X       30.8650   18.3860   15.5410 O.2   187  NDP187     -0.2224
@<TRIPOS>BOND
     1    32    31    1
     2    30    29    1
     3    30    35    1
     4    41    39   am
     5    29    31    1
     6    29    28    1
     7    31    33    1
     8    35    33    1
     9    35    36    1
    10    26    24    2
    11    37    36    1
    12    37    38    1
    13    39    40    2
    14    39    38    1
    15    27    24    1
    16    27    28    1
    17    34    33    1
    18    25    24    1
    19    36    44    1
    20    24    23    1
    21    38    42    2
    22    44    43    2
    23    42    43    1
    24    23     1    1
    25     1     3    2
    26     1     4    1
    27     1     2    1
    28     9     8    1
    29     5     4    1
    30     5     6    1
    31     8     6    1
    32     8    10    1
    33     6     7    1
    34    48    45    2
    35    14    15    1
    36    14    13    1
    37    15    16    2
    38     7    12    1
    39    10    11    1
    40    10    12    1
    41    13    12    1
    42    13    22    1
    43    11    45    1
    44    16    22    1
    45    16    17    1
    46    45    47    1
    47    45    46    1
    48    18    17    1
    49    22    21    2
    50    17    19    2
    51    21    20    1
    52    19    20    1
