@<TRIPOS>MOLECULE
1ohk_NDP_A_1.pdb
 48 52 0 0 0
SMALL
GASTEIGER

@<TRIPOS>ATOM
      1  PA        -6.8050    4.4870   37.2050 P.3   187  NDP187      0.2189
      2  O1A       -6.6430    3.7250   38.4600 O.3   187  NDP187     -0.4371
      3  O2A       -5.7360    4.6090   36.2690 O.2   187  NDP187     -0.5170
      4  O5B       -7.4420    5.9310   37.6900 O.3   187  NDP187     -0.3112
      5  C5B       -6.6440    6.7020   38.6820 C.3   187  NDP187      0.1813
      6  C4B       -7.7520    7.7160   39.0690 C.3   187  NDP187      0.1820
      7  O4B       -7.0100    8.6860   39.0940 O.3   187  NDP187     -0.3136
      8  C3B       -8.7700    7.9560   37.8520 C.3   187  NDP187      0.2157
      9  O3B       -9.7880    7.6890   38.4950 O.3   187  NDP187     -0.2175
     10  C2B       -8.6930    9.4870   37.7680 C.3   187  NDP187      0.2314
     11  O2B       -9.3580    9.8480   38.9290 O.3   187  NDP187     -0.2630
     12  C1B       -7.3040    9.8420   38.2810 C.3   187  NDP187      0.3158
     13  N9A       -6.3440    9.9550   37.2020 N.pl3 187  NDP187     -0.1439
     14  C8A       -6.0080    9.0750   36.2350 C.3   187  NDP187      0.3377
     15  N7A       -5.1890    9.6070   35.3590 N.2   187  NDP187     -0.2095
     16  C5A       -5.0500   10.9500   35.9200 C.2   187  NDP187      0.2526
     17  C6A       -4.2360   12.1960   35.4830 C.2   187  NDP187      0.4393
     18  N6A       -3.5160   12.1030   34.3740 N.pl3 187  NDP187      0.2180
     19  N1A       -4.3250   13.3090   36.2650 N.2   187  NDP187      0.0021
     20  C2A       -5.1180   13.1950   37.3530 C.3   187  NDP187      0.5254
     21  N3A       -5.8430   12.2000   37.8150 N.2   187  NDP187     -0.0055
     22  C4A       -5.7490   11.0930   37.0250 C.2   187  NDP187      0.3518
     23  O3        -8.1900    3.9150   36.6540 O.3   187  NDP187     -0.2703
     24  PN        -8.7510    3.0810   35.3760 P.3   187  NDP187      0.2189
     25  O1N       -7.7580    2.9100   34.4050 O.2   187  NDP187     -0.5170
     26  O2N      -10.0440    3.7410   35.1850 O.3   187  NDP187     -0.4371
     27  O5D       -8.9870    1.6120   36.0910 O.3   187  NDP187     -0.3112
     28  C5D       -7.8260    0.8340   36.3870 C.3   187  NDP187      0.1813
     29  C4D       -8.2480   -0.5870   36.0900 C.3   187  NDP187      0.1799
     30  O4D       -7.1910   -1.3970   35.4100 O.3   187  NDP187     -0.3327
     31  C3D       -8.5100   -1.4560   37.3750 C.3   187  NDP187      0.2158
     32  O3D       -9.1380   -2.6790   36.8480 O.3   187  NDP187     -0.2175
     33  C2D       -7.0150   -1.6440   37.7920 C.3   187  NDP187      0.2309
     34  O2D       -6.9180   -2.8460   38.4810 O.3   187  NDP187     -0.2158
     35  C1D       -6.3950   -2.0420   36.4840 C.3   187  NDP187      0.2263
     36  N1N       -4.9200   -1.8070   36.0950 N.pl3 187  NDP187     -0.2787
     37  C2N       -4.2770   -2.9250   35.4900 C.3   187  NDP187      0.1244
     38  C3N       -3.0130   -2.8250   35.0390 C.2   187  NDP187      0.0544
     39  C7N       -2.5100   -4.1010   34.4410 C.2   187  NDP187      0.2818
     40  O7N       -1.3960   -4.1350   34.0140 O.2   187  NDP187     -0.2670
     41  N7N       -3.3980   -5.1510   34.4060 N.am  187  NDP187     -0.0839
     42  C4N       -2.1720   -1.5480   35.1650 C.2   187  NDP187      0.0033
     43  C5N       -3.0140   -0.4820   35.8100 C.2   187  NDP187      0.0157
     44  C6N       -4.2670   -0.5980   36.2410 C.2   187  NDP187      0.0633
     45  P2B       -9.7730   11.3930   39.6400 P.3   187  NDP187      0.5328
     46  O1X       -8.9350   12.2530   38.7180 O.2   187  NDP187     -0.2224
     47  O2X       -9.1210   11.1850   40.9390 O.3   187  NDP187     -0.1145
     48  O3X      -11.2080   11.3740   39.4020 O.3   187  NDP187     -0.1145
@<TRIPOS>BOND
     1    40    39    2
     2    18    17    1
     3    25    24    2
     4    41    39   am
     5    39    38    1
     6    38    42    2
     7    38    37    1
     8    42    43    1
     9    26    24    1
    10    15    16    2
    11    15    14    1
    12    24    27    1
    13    24    23    1
    14    30    29    1
    15    30    35    1
    16    17    16    1
    17    17    19    2
    18    37    36    1
    19    43    44    2
    20    16    22    1
    21    29    28    1
    22    29    31    1
    23    27    28    1
    24    36    44    1
    25    36    35    1
    26    14    13    1
    27    19    20    1
    28     3     1    2
    29    35    33    1
    30    23     1    1
    31    32    31    1
    32    22    13    1
    33    22    21    2
    34    13    12    1
    35     1     4    1
    36     1     2    1
    37    20    21    1
    38    31    33    1
    39     4     5    1
    40    10     8    1
    41    10    12    1
    42    10    11    1
    43    33    34    1
    44     8     9    1
    45     8     6    1
    46    12     7    1
    47     5     6    1
    48    46    45    2
    49    11    45    1
    50     6     7    1
    51    48    45    1
    52    45    47    1
