@<TRIPOS>MOLECULE
1ohk_COP_A_1.pdb
 42 45 0 0 0
SMALL
GASTEIGER

@<TRIPOS>ATOM
      1  C3         2.2250   -5.3250   34.8750 C.1   188  COP188      0.2519
      2  C1         1.3480   -3.3900   35.6880 C.2   188  COP188      0.2728
      3  C10        0.4340   -4.1000   36.4580 C.2   188  COP188      0.2518
      4  C8        -1.2390   -4.0430   37.8940 C.2   188  COP188      0.1348
      5  C7        -1.2610   -5.4220   37.8360 C.3   188  COP188      0.1931
      6  C5         0.4510   -5.4960   36.3950 C.1   188  COP188      0.1314
      7  C11       -2.2180   -3.1470   38.6950 C.3   188  COP188      0.1682
      8  C13       -2.1660   -4.2710   40.7490 C.ar  188  COP188      0.0658
      9  C18       -2.6330   -5.0910   41.7680 C.ar  188  COP188      0.0162
     10  C17       -1.7260   -5.5640   42.7520 C.ar  188  COP188      0.0059
     11  C16       -0.3730   -5.1830   42.7760 C.ar  188  COP188      0.0551
     12  C15        0.0380   -4.3460   41.7620 C.ar  188  COP188      0.0059
     13  C14       -0.8100   -3.8930   40.7500 C.ar  188  COP188      0.0162
     14  C19        0.5240   -5.7050   43.8320 C.2   188  COP188      0.2652
     15  C21        3.0430   -6.1970   44.5170 C.3   188  COP188      0.1981
     16  C24        4.4050   -5.5000   44.4170 C.2   188  COP188      0.3842
     17  C27        3.3890   -7.4410   43.7100 C.3   188  COP188      0.0351
     18  C28        3.7200   -8.5380   44.6260 C.3   188  COP188      0.0258
     19  C29        3.3650   -9.7910   43.9740 C.3   188  COP188      0.1155
     20  N4         1.3830   -6.1050   35.5780 N.2   188  COP188     -0.2684
     21  N3         3.1470   -5.7980   34.0740 N.pl3 188  COP188     -0.0226
     22  N2         2.1740   -4.0430   34.9330 N.2   188  COP188     -0.3033
     23  N1         1.2050   -2.0650   35.8410 N.pl3 188  COP188     -0.0887
     24  N9        -0.3870   -3.3480   37.1780 N.2   188  COP188     -0.3916
     25  N6        -0.4110   -6.1480   37.1100 N.2   188  COP188     -0.1998
     26  N12       -3.0020   -3.7660   39.7400 N.pl3 188  COP188     -0.2303
     27  N20        1.8330   -5.6030   43.9580 N.am  188  COP188     -0.1918
     28  O19       -0.0690   -6.3340   44.7260 O.2   188  COP188     -0.2684
     29  O24        5.1700   -5.4480   45.4020 O.co2 188  COP188     -0.2437
     30  O25        4.5920   -5.0400   43.2990 O.co2 188  COP188     -0.2437
     31  N30        2.2500  -10.6470   44.7620 N.am  188  COP188     -0.2017
     32  C31        1.7430  -11.9360   44.2980 C.2   188  COP188      0.2650
     33  O32        1.0960  -11.9930   43.2280 O.2   188  COP188     -0.2684
     34  C33        2.0170  -13.2150   45.0610 C.ar  188  COP188      0.0614
     35  C38        3.1660  -13.9970   44.8650 C.ar  188  COP188      0.0842
     36  C37        3.4050  -15.1750   45.6070 C.ar  188  COP188      0.0067
     37  C36        2.5090  -15.5700   46.6090 C.ar  188  COP188      0.0002
     38  C35        1.4150  -14.8210   46.8100 C.ar  188  COP188      0.0002
     39  C34        1.1410  -13.6580   46.0620 C.ar  188  COP188      0.0048
     40  C39        4.2020  -13.6820   43.7970 C.2   188  COP188      0.3879
     41  O40        4.8510  -14.8410   43.4180 O.co2 188  COP188     -0.2406
     42  O41        4.3270  -12.5330   43.3580 O.co2 188  COP188     -0.2406
@<TRIPOS>BOND
     1    21     1    1
     2     1    22    2
     3     1    20    2
     4    22     2    2
     5    20     6    2
     6     2    23    1
     7     2     3    1
     8     6     3    1
     9     6    25    2
    10     3    24    2
    11    25     5    1
    12    24     4    2
    13     5     4    1
    14     4     7    1
    15     7    26    1
    16    26     8    1
    17     8    13   ar
    18     8     9   ar
    19    13    12   ar
    20    12    11   ar
    21     9    10   ar
    22    10    11   ar
    23    11    14    1
    24    33    32    2
    25    30    16   ar
    26    42    40   ar
    27    41    40   ar
    28    17    15    1
    29    17    18    1
    30    40    35    1
    31    14    27   am
    32    14    28    2
    33    27    15    1
    34    19    18    1
    35    19    31    1
    36    32    31   am
    37    32    34    1
    38    16    15    1
    39    16    29   ar
    40    35    34   ar
    41    35    36   ar
    42    34    39   ar
    43    36    37   ar
    44    39    38   ar
    45    37    38   ar
