@<TRIPOS>MOLECULE
1ohl_PBG_A_1.pdb
 16 16 0 0 0
SMALL
GASTEIGER

@<TRIPOS>ATOM
      1  CHA       20.8380   23.9980   20.4000 C.3   1263  PBG1263     0.1498
      2  C1A       20.3220   24.2330   19.0590 C.2   1263  PBG1263     0.0509
      3  C2A       21.1070   24.3810   17.8800 C.3   1263  PBG1263     0.0504
      4  C3A       20.2180   24.6440   16.6700 C.3   1263  PBG1263     0.0307
      5  C4A       18.9100   24.7940   17.4170 C.3   1263  PBG1263     0.1251
      6  NA        18.9660   24.3810   18.7350 N.2   1263  PBG1263    -0.2775
      7  C5A       22.5610   24.3220   17.8680 C.3   1263  PBG1263     0.1197
      8  C6A       23.1780   22.9410   17.9540 C.2   1263  PBG1263     0.3652
      9  O1A       22.4660   21.9480   17.6930 O.co2 1263  PBG1263    -0.2456
     10  O2A       24.4210   22.8570   18.0710 O.co2 1263  PBG1263    -0.2456
     11  C7A       20.6400   25.9380   16.0350 C.3   1263  PBG1263     0.0142
     12  C8A       20.5640   25.9360   14.5330 C.3   1263  PBG1263     0.1141
     13  C9A       21.5850   26.8600   13.8970 C.2   1263  PBG1263     0.3649
     14  O3A       21.1880   27.9030   13.3400 O.co2 1263  PBG1263    -0.2457
     15  O4A       22.7920   26.5460   13.9490 O.co2 1263  PBG1263    -0.2457
     16  N1        20.4580   22.7500   21.1020 N.3   1263  PBG1263    -0.1249
@<TRIPOS>BOND
     1    14    13   ar
     2    13    15   ar
     3    13    12    1
     4    12    11    1
     5    11     4    1
     6     4     5    1
     7     4     3    1
     8     5     6    1
     9     9     8   ar
    10     7     3    1
    11     7     8    1
    12     3     2    1
    13     8    10   ar
    14     6     2    2
    15     2     1    1
    16     1    16    1
