@<TRIPOS>MOLECULE
1oho_EQU_A_1.pdb
 20 23 0 0 0
SMALL
GASTEIGER

@<TRIPOS>ATOM
      1  C1         2.4720   61.3390   24.5800 C.ar  1128  EQU1128     0.1957
      2  C2         1.9780   62.1870   25.5950 C.ar  1128  EQU1128     0.0420
      3  C3         2.2410   61.8470   26.9680 C.ar  1128  EQU1128     0.0029
      4  C4         3.0320   60.6070   27.3160 C.ar  1128  EQU1128    -0.0041
      5  C5         3.5040   59.7900   26.2400 C.ar  1128  EQU1128     0.0030
      6  C6         3.2320   60.1460   24.9030 C.ar  1128  EQU1128     0.0420
      7  C10        1.7240   62.7360   27.9970 C.ar  1128  EQU1128    -0.0002
      8  C11        1.9800   62.4180   29.3800 C.ar  1128  EQU1128    -0.0046
      9  C12        2.7430   61.2280   29.7460 C.ar  1128  EQU1128    -0.0260
     10  C13        3.2760   60.3090   28.7220 C.ar  1128  EQU1128    -0.0261
     11  C16        2.9900   60.9470   31.2170 C.3   1128  EQU1128     0.0290
     12  C17        4.3210   60.1330   31.4810 C.3   1128  EQU1128     0.0556
     13  C18        4.3150   58.8130   30.6340 C.3   1128  EQU1128     0.0119
     14  C19        4.0830   59.0600   29.0990 C.3   1128  EQU1128     0.0265
     15  C24        3.1570   62.1400   32.1980 C.3   1128  EQU1128     0.0125
     16  C25        3.4150   61.3510   33.5330 C.3   1128  EQU1128     0.0648
     17  C26        4.1750   60.0720   33.0040 C.2   1128  EQU1128     0.1502
     18  C27        5.6410   60.9260   31.2080 C.3   1128  EQU1128     0.0077
     19  O1         2.2080   61.6910   23.3360 O.3   1128  EQU1128    -0.2866
     20  O26        4.5870   59.1740   33.6900 O.2   1128  EQU1128    -0.2961
@<TRIPOS>BOND
     1    19     1    1
     2     1     6   ar
     3     1     2   ar
     4     6     5   ar
     5     2     3   ar
     6     5     4   ar
     7     3     4   ar
     8     3     7   ar
     9     4    10   ar
    10     7     8   ar
    11    10    14    1
    12    10     9   ar
    13    14    13    1
    14     8     9   ar
    15     9    11    1
    16    13    12    1
    17    18    12    1
    18    11    12    1
    19    11    15    1
    20    12    17    1
    21    15    16    1
    22    17    16    1
    23    17    20    2
