@<TRIPOS>MOLECULE
1ohp_ESR_A_1.pdb
 20 23 0 0 0
SMALL
GASTEIGER

@<TRIPOS>ATOM
      1  C1         8.8300   -9.4160   -2.6910 C.2   1126  ESR1126     0.1506
      2  C2         7.6160   -9.7270   -1.8060 C.3   1126  ESR1126     0.0645
      3  C3         6.6500  -10.7880   -2.2830 C.3   1126  ESR1126     0.0073
      4  C4         7.4490  -12.1250   -2.8270 C.3   1126  ESR1126     0.0009
      5  C5         8.4360  -11.7210   -4.0630 C.3   1126  ESR1126     0.0078
      6  C6         9.4620  -10.6400   -3.5500 C.3   1126  ESR1126     0.0645
      7  C10        5.7130  -11.1140   -1.0980 C.3   1126  ESR1126     0.0004
      8  C11        4.6680  -12.2240   -1.4780 C.3   1126  ESR1126     0.0000
      9  C12        5.4110  -13.5670   -1.9680 C.3   1126  ESR1126     0.0004
     10  C13        6.3710  -13.2300   -3.3060 C.3   1126  ESR1126     0.0000
     11  C16        4.3540  -14.6810   -2.3420 C.3   1126  ESR1126     0.0070
     12  C17        4.9980  -16.0200   -2.8420 C.3   1126  ESR1126     0.0515
     13  C19        7.1350  -14.6280   -3.8450 C.3   1126  ESR1126     0.0004
     14  C24        3.3450  -15.1860   -1.2270 C.3   1126  ESR1126     0.0082
     15  C25        2.6560  -16.3090   -2.0720 C.3   1126  ESR1126     0.0645
     16  C26        3.7840  -16.8460   -3.0940 C.2   1126  ESR1126     0.1498
     17  C27        5.9810  -16.9270   -1.8530 C.3   1126  ESR1126     0.0073
     18  O1         9.2190   -8.3560   -2.7040 O.2   1126  ESR1126    -0.2961
     19  C18        5.8720  -15.5600   -4.2490 C.3   1126  ESR1126     0.0069
     20  O26        3.6340  -17.6870   -3.8690 O.2   1126  ESR1126    -0.2961
@<TRIPOS>BOND
     1    19    13    1
     2    19    12    1
     3     5     6    1
     4     5     4    1
     5    20    16    2
     6    13    10    1
     7     6     1    1
     8    10     4    1
     9    10     9    1
    10    16    12    1
    11    16    15    1
    12    12    11    1
    13    12    17    1
    14     4     3    1
    15    18     1    2
    16     1     2    1
    17    11     9    1
    18    11    14    1
    19     3     2    1
    20     3     7    1
    21    15    14    1
    22     9     8    1
    23     8     7    1
