@<TRIPOS>MOLECULE
1ohr_1UN_A_1.pdb
 44 47 0 0 0
SMALL
GASTEIGER

@<TRIPOS>ATOM
      1  C1         2.6450   -4.1530   16.3150 C.3   201  1UN201      0.0161
      2  C2         3.4610   -5.4530   16.5930 C.3   201  1UN201      0.0032
      3  C3         2.6850   -6.6860   16.1660 C.3   201  1UN201      0.0001
      4  C4         2.2720   -6.5480   14.7110 C.3   201  1UN201      0.0000
      5  C5         1.4340   -5.2770   14.5060 C.3   201  1UN201      0.0000
      6  C6         2.2930   -4.0120   14.8260 C.3   201  1UN201      0.0014
      7  N7         4.7380   -2.8460   16.0410 N.3   201  1UN201     -0.2644
      8  C8         5.5780   -4.0310   16.3220 C.3   201  1UN201      0.1348
      9  C9         4.8280   -5.3230   15.8890 C.3   201  1UN201      0.0254
     10  C10        3.4830   -2.9590   16.8210 C.3   201  1UN201      0.0725
     11  C11        6.8480   -3.9550   15.5210 C.2   201  1UN201      0.2369
     12  N12        7.8860   -4.4650   16.2330 N.am  201  1UN201     -0.3064
     13  C13        9.2890   -4.5340   15.7600 C.3   201  1UN201      0.0569
     14  C14        9.8340   -3.1580   15.4200 C.3   201  1UN201      0.0196
     15  C15        9.3340   -5.4090   14.4700 C.3   201  1UN201      0.0196
     16  C16       10.1210   -5.1180   16.9370 C.3   201  1UN201      0.0196
     17  O17        6.8300   -3.5380   14.3450 O.2   201  1UN201     -0.2737
     18  C18        5.3380   -1.5960   16.5180 C.3   201  1UN201      0.1037
     19  C19        4.8200   -0.4460   15.6410 C.3   201  1UN201      0.1451
     20  C20        5.5120   -0.3020   14.2830 C.3   201  1UN201      0.1111
     21  O21        5.0320    0.7290   16.4330 O.3   201  1UN201     -0.3813
     22  N22        4.7580    0.7430   13.6060 N.am  201  1UN201     -0.2992
     23  C23        6.9320    0.1830   14.3100 C.3   201  1UN201      0.0842
     24  C24        3.8790    0.3930   12.6450 C.2   201  1UN201      0.2457
     25  O25        3.7100   -0.7870   12.3060 O.2   201  1UN201     -0.2702
     26  C29        3.1980    1.4880   11.9920 C.ar  201  1UN201      0.0523
     27  C30        3.9390    2.5960   11.5220 C.ar  201  1UN201      0.0044
     28  C31        3.3240    3.6870   10.9180 C.ar  201  1UN201      0.0032
     29  C32        1.9510    3.6590   10.7530 C.ar  201  1UN201      0.0363
     30  C33        1.2060    2.5700   11.2290 C.ar  201  1UN201      0.1298
     31  C34        1.8060    1.4600   11.8290 C.ar  201  1UN201      0.0162
     32  O38       -0.1640    2.6190   11.2010 O.3   201  1UN201     -0.5058
     33  C39        0.9350    0.3430   12.3340 C.3   201  1UN201      0.0343
     34  S74        7.7470   -0.2420   12.7580 S.3   201  1UN201     -0.1118
     35  C77        7.7040    1.2030   11.8200 C.ar  201  1UN201      0.0253
     36  C78        7.9680    1.0620   10.4640 C.ar  201  1UN201      0.0061
     37  C79        7.9720    2.2040    9.6860 C.ar  201  1UN201      0.0005
     38  C80        7.7140    3.4510   10.2640 C.ar  201  1UN201      0.0000
     39  C81        7.4430    3.5800   11.6300 C.ar  201  1UN201      0.0005
     40  C82        7.4360    2.4280   12.4120 C.ar  201  1UN201      0.0061
     41  HNC        7.7200   -4.9330   17.0750 H     201  1UN201      0.1493
     42  HOL        5.9740    0.7720   16.5370 H     201  1UN201      0.2105
     43  HNM        4.8790    1.6810   13.8670 H     201  1UN201      0.1498
     44  HO        -0.4380    3.3740   10.6940 H     201  1UN201      0.2922
@<TRIPOS>BOND
     1    37    38   ar
     2    37    36   ar
     3    38    39   ar
     4    36    35   ar
     5    44    32    1
     6    29    28   ar
     7    29    30   ar
     8    28    27   ar
     9    32    30    1
    10    30    31   ar
    11    27    26   ar
    12    39    40   ar
    13    35    40   ar
    14    35    34    1
    15    31    26   ar
    16    31    33    1
    17    26    24    1
    18    25    24    2
    19    24    22   am
    20    34    23    1
    21    22    43    1
    22    22    20    1
    23    20    23    1
    24    20    19    1
    25    17    11    2
    26    15    13    1
    27     5     4    1
    28     5     6    1
    29     4     3    1
    30     6     1    1
    31    14    13    1
    32    11    12   am
    33    11     8    1
    34    19    21    1
    35    19    18    1
    36    13    12    1
    37    13    16    1
    38     9     8    1
    39     9     2    1
    40     7     8    1
    41     7    18    1
    42     7    10    1
    43     3     2    1
    44    12    41    1
    45     1     2    1
    46     1    10    1
    47    21    42    1
