@<TRIPOS>MOLECULE
1ohs_5SD_A_1.pdb
 21 24 0 0 0
SMALL
GASTEIGER

@<TRIPOS>ATOM
      1  C1         3.8610  -14.1870   -1.6280 C.3   1126  5SD1126     0.0078
      2  C2         3.1540  -15.5600   -1.2620 C.3   1126  5SD1126     0.0645
      3  C3         3.1530  -16.5580   -2.3780 C.2   1126  5SD1126     0.1506
      4  O3         2.1710  -17.2700   -2.5860 O.2   1126  5SD1126    -0.2961
      5  C4         4.2780  -16.6430   -3.2320 C.3   1126  5SD1126     0.0645
      6  C5         4.9810  -15.2740   -3.6200 C.3   1126  5SD1126     0.0073
      7  C6         6.2890  -15.5360   -4.3560 C.3   1126  5SD1126     0.0004
      8  C7         6.9560  -14.1830   -4.7260 C.3   1126  5SD1126     0.0000
      9  C8         7.2350  -13.2670   -3.4930 C.3   1126  5SD1126     0.0004
     10  C9         5.8790  -13.0160   -2.7280 C.3   1126  5SD1126     0.0000
     11  C10        5.2200  -14.4120   -2.3050 C.3   1126  5SD1126     0.0008
     12  C11        6.1310  -12.0770   -1.5130 C.3   1126  5SD1126     0.0004
     13  C12        6.8060  -10.7150   -1.9660 C.3   1126  5SD1126     0.0069
     14  C13        8.1570  -11.0230   -2.6490 C.3   1126  5SD1126     0.0515
     15  C14        7.8750  -11.9090   -3.8910 C.3   1126  5SD1126     0.0070
     16  C15        9.1940  -11.9070   -4.6310 C.3   1126  5SD1126     0.0082
     17  C16        9.5330  -10.3280   -4.5940 C.3   1126  5SD1126     0.0645
     18  C17        8.8190   -9.8170   -3.3480 C.2   1126  5SD1126     0.1498
     19  O17        8.8320   -8.6790   -2.9830 O.2   1126  5SD1126    -0.2961
     20  C18        9.1790  -11.5340   -1.6420 C.3   1126  5SD1126     0.0073
     21  C19        6.1690  -15.1380   -1.2630 C.3   1126  5SD1126     0.0000
@<TRIPOS>BOND
     1     8     7    1
     2     8     9    1
     3    16    17    1
     4    16    15    1
     5    17    18    1
     6     7     6    1
     7    15     9    1
     8    15    14    1
     9     6     5    1
    10     6    11    1
    11     9    10    1
    12    18    19    2
    13    18    14    1
    14     5     3    1
    15    10    11    1
    16    10    12    1
    17    14    13    1
    18    14    20    1
    19     4     3    2
    20     3     2    1
    21    11     1    1
    22    11    21    1
    23    13    12    1
    24     1     2    1
