@<TRIPOS>MOLECULE
1ohv_PLP_A_1.pdb
 15 15 0 0 0
SMALL
GASTEIGER

@<TRIPOS>ATOM
      1  N1         5.9350   -0.6860   23.0700 N.ar  600  PLP600     -0.2452
      2  C2         5.7250    0.1400   21.9960 C.ar  600  PLP600      0.0978
      3  C2A        4.3200    0.5610   21.6660 C.3   600  PLP600      0.0555
      4  C3         6.8210    0.5800   21.2470 C.ar  600  PLP600      0.2049
      5  O3         6.6340    1.3960   20.1680 O.3   600  PLP600     -0.2857
      6  C4         8.1200    0.1900   21.5730 C.ar  600  PLP600      0.0182
      7  C4A        9.2420    0.7420   20.7300 C.3   600  PLP600      0.0342
      8  C5         8.3110   -0.6560   22.6780 C.ar  600  PLP600      0.0261
      9  C6         7.2050   -1.0940   23.4150 C.ar  600  PLP600      0.0965
     10  C5A        9.6870   -1.1500   23.0910 C.3   600  PLP600      0.1815
     11  O4P       10.5730   -0.1030   23.4030 O.3   600  PLP600     -0.2653
     12  P         12.1430   -0.4440   23.4150 P.3   600  PLP600      0.5329
     13  O1P       12.8360    0.7460   23.9570 O.3   600  PLP600     -0.1145
     14  O2P       12.4240   -1.6750   24.2930 O.3   600  PLP600     -0.1145
     15  O3P       12.5260   -0.7640   21.9650 O.2   600  PLP600     -0.2224
@<TRIPOS>BOND
     1     5     4    1
     2     7     6    1
     3     4     6   ar
     4     4     2   ar
     5     6     8   ar
     6     3     2    1
     7    15    12    2
     8     2     1   ar
     9     8    10    1
    10     8     9   ar
    11     1     9   ar
    12    10    11    1
    13    11    12    1
    14    12    13    1
    15    12    14    1
