@<TRIPOS>MOLECULE
1ohw_PLP_A_1.pdb
 15 15 0 0 0
SMALL
GASTEIGER

@<TRIPOS>ATOM
      1  N1         6.1010   -0.8290   23.3800 N.ar  600  PLP600     -0.2452
      2  C2         5.9390   -0.2050   22.1660 C.ar  600  PLP600      0.0978
      3  C2A        4.5790    0.3340   21.8480 C.3   600  PLP600      0.0555
      4  C3         7.0280   -0.0890   21.2750 C.ar  600  PLP600      0.2049
      5  O3         6.8390    0.4510   20.0160 O.3   600  PLP600     -0.2857
      6  C4         8.2700   -0.6250   21.6510 C.ar  600  PLP600      0.0182
      7  C4A        9.4900   -0.4880   20.7750 C.3   600  PLP600      0.0342
      8  C5         8.4080   -1.2420   22.8950 C.ar  600  PLP600      0.0261
      9  C6         7.3180   -1.3530   23.7470 C.ar  600  PLP600      0.0965
     10  C5A        9.7660   -1.6840   23.4050 C.3   600  PLP600      0.1815
     11  O4P       10.6620   -0.5970   23.6120 O.3   600  PLP600     -0.2653
     12  P         12.2420   -0.9350   23.4950 P.3   600  PLP600      0.5329
     13  O1P       12.5620   -2.1650   24.2750 O.3   600  PLP600     -0.1145
     14  O2P       12.5330   -1.2220   22.0010 O.2   600  PLP600     -0.2224
     15  O3P       13.0170    0.2750   24.0530 O.3   600  PLP600     -0.1145
@<TRIPOS>BOND
     1     5     4    1
     2     7     6    1
     3     4     6   ar
     4     4     2   ar
     5     6     8   ar
     6     3     2    1
     7    14    12    2
     8     2     1   ar
     9     8    10    1
    10     8     9   ar
    11     1     9   ar
    12    10    11    1
    13    12    11    1
    14    12    15    1
    15    12    13    1
