@<TRIPOS>MOLECULE
1ohy_PLP_A_1.pdb
 15 15 0 0 0
SMALL
GASTEIGER

@<TRIPOS>ATOM
      1  N1         6.2420   -0.9510   23.0880 N.ar  600  PLP600     -0.2452
      2  C2         6.1400   -0.2380   21.9150 C.ar  600  PLP600      0.0978
      3  C2A        4.8150    0.3550   21.5160 C.3   600  PLP600      0.0555
      4  C3         7.2650   -0.0620   21.1180 C.ar  600  PLP600      0.2049
      5  O3         7.1700    0.6790   19.9670 O.3   600  PLP600     -0.2857
      6  C4         8.4830   -0.6060   21.5070 C.ar  600  PLP600      0.0182
      7  C4A        9.6520   -0.5790   20.5890 C.3   600  PLP600      0.0342
      8  C5         8.5760   -1.3260   22.6810 C.ar  600  PLP600      0.0261
      9  C6         7.4470   -1.4910   23.4740 C.ar  600  PLP600      0.0965
     10  C5A        9.9020   -1.9120   23.1240 C.3   600  PLP600      0.1815
     11  O4P       10.7670   -0.8700   23.5290 O.3   600  PLP600     -0.2653
     12  P         12.3230   -0.9050   23.1560 P.3   600  PLP600      0.5329
     13  O1P       12.9500   -2.0790   23.7970 O.3   600  PLP600     -0.1145
     14  O2P       12.4510   -1.0700   21.6350 O.2   600  PLP600     -0.2224
     15  O3P       13.0000    0.3930   23.6180 O.3   600  PLP600     -0.1145
@<TRIPOS>BOND
     1     5     4    1
     2     7     6    1
     3     4     6   ar
     4     4     2   ar
     5     6     8   ar
     6     3     2    1
     7    14    12    2
     8     2     1   ar
     9     8    10    1
    10     8     9   ar
    11     1     9   ar
    12    10    11    1
    13    12    11    1
    14    12    15    1
    15    12    13    1
