@<TRIPOS>MOLECULE
1oi6_TMP_A_1.pdb
 21 22 0 0 0
SMALL
GASTEIGER

@<TRIPOS>ATOM
      1  P         12.0800   10.6500   12.3190 P.3   1204  TMP1204     0.5327
      2  O1P       10.5980   10.3880   12.0410 O.3   1204  TMP1204    -0.1145
      3  O2P       12.9740   10.3870   10.9970 O.2   1204  TMP1204    -0.2224
      4  O3P       12.6790    9.8550   13.5510 O.3   1204  TMP1204    -0.1145
      5  O5'       12.2690   12.2110   12.6560 O.3   1204  TMP1204    -0.2675
      6  C5'       11.7640   12.7720   13.8690 C.3   1204  TMP1204     0.1858
      7  C4'       11.9230   14.2970   13.8230 C.3   1204  TMP1204     0.1774
      8  O4'       13.3130   14.6600   13.9970 O.3   1204  TMP1204    -0.3339
      9  C3'       11.4510   14.8640   12.4910 C.3   1204  TMP1204     0.1857
     10  O3'       10.7980   16.1410   12.6260 O.3   1204  TMP1204    -0.2203
     11  C2'       12.7240   15.1440   11.7280 C.3   1204  TMP1204     0.0874
     12  C1'       13.7790   15.3590   12.8040 C.3   1204  TMP1204     0.2090
     13  N1        15.1480   14.9000   12.4920 N.am  1204  TMP1204    -0.1794
     14  C2        16.1360   15.7850   12.1560 C.1   1204  TMP1204     0.2844
     15  O2        15.8430   16.9750   12.0490 O.2   1204  TMP1204    -0.1918
     16  N3        17.3900   15.4010   11.9150 N.2   1204  TMP1204    -0.2455
     17  C4        17.7420   14.1350   11.9910 C.1   1204  TMP1204     0.2134
     18  O4        18.9160   13.7600   11.7560 O.2   1204  TMP1204    -0.2088
     19  C5        16.7060   13.1360   12.3580 C.2   1204  TMP1204     0.0891
     20  C5M       17.0330   11.6800   12.4370 C.3   1204  TMP1204     0.0462
     21  C6        15.4400   13.5930   12.5940 C.2   1204  TMP1204     0.0877
@<TRIPOS>BOND
     1     3     1    2
     2    11     9    1
     3    11    12    1
     4    18    17    2
     5    16    17    2
     6    16    14    2
     7    17    19    1
     8     2     1    1
     9    15    14    2
    10    14    13   am
    11     1     5    1
    12     1     4    1
    13    19    20    1
    14    19    21    2
    15     9    10    1
    16     9     7    1
    17    13    21    1
    18    13    12    1
    19     5     6    1
    20    12     8    1
    21     7     6    1
    22     7     8    1
