@<TRIPOS>MOLECULE
1oi9_N20_A_1.pdb
 25 28 0 0 0
SMALL
GASTEIGER

@<TRIPOS>ATOM
      1  C2         7.9430   43.7940   49.8040 C.1   1298  N201298     0.2364
      2  O23        2.8750   40.0740   48.9520 O.3   1298  N201298    -0.2866
      3  C8        10.6830   46.4870   52.0230 C.3   1298  N201298     0.2628
      4  C10        4.9330   45.9430   51.6860 C.3   1298  N201298     0.2081
      5  C11        4.0360   46.1890   52.8930 C.3   1298  N201298     0.0438
      6  C12        2.6070   45.7530   52.5480 C.3   1298  N201298     0.0037
      7  C13        1.6340   45.8910   53.7310 C.3   1298  N201298     0.0001
      8  C14        2.1950   45.3580   55.0540 C.3   1298  N201298     0.0000
      9  C15        3.6340   45.8150   55.3170 C.3   1298  N201298     0.0001
     10  C16        4.5400   45.4600   54.1420 C.3   1298  N201298     0.0037
     11  C19        4.4640   41.3480   50.0690 C.ar  1298  N201298     0.0434
     12  C20        4.0280   40.7240   48.9090 C.ar  1298  N201298     0.1958
     13  C21        4.7660   40.8070   47.7340 C.ar  1298  N201298     0.0434
     14  C22        5.9740   41.5130   47.7500 C.ar  1298  N201298     0.0207
     15  N1         6.9900   44.4610   50.5040 N.2   1298  N201298    -0.2865
     16  C6         7.2750   45.4390   51.3880 C.2   1298  N201298     0.3177
     17  O6         6.2950   46.1090   52.0700 O.2   1298  N201298    -0.4497
     18  C5         8.6840   45.7920   51.5760 C.2   1298  N201298     0.2195
     19  N7         9.3440   46.7070   52.3490 N.2   1298  N201298    -0.2273
     20  N9        10.9380   45.4970   51.0720 N.2   1298  N201298    -0.1806
     21  C4         9.6430   45.0600   50.8010 C.1   1298  N201298     0.1221
     22  N3         9.2660   44.0820   49.9480 N.2   1298  N201298    -0.2702
     23  N2         7.5750   42.8240   48.9260 N.pl3 1298  N201298    -0.1248
     24  C17        6.4030   42.1440   48.9250 C.ar  1298  N201298     0.0837
     25  C18        5.6420   42.0570   50.0830 C.ar  1298  N201298     0.0207
@<TRIPOS>BOND
     1    13    14   ar
     2    13    12   ar
     3    14    24   ar
     4    12     2    1
     5    12    11   ar
     6    24    23    1
     7    24    25   ar
     8    23     1    1
     9     1    22    2
    10     1    15    2
    11    22    21    2
    12    11    25   ar
    13    15    16    2
    14    21    20    2
    15    21    18    1
    16    20     3    1
    17    16    18    1
    18    16    17    1
    19    18    19    2
    20     4    17    1
    21     4     5    1
    22     3    19    1
    23     6     5    1
    24     6     7    1
    25     5    10    1
    26     7     8    1
    27    10     9    1
    28     8     9    1
