@<TRIPOS>MOLECULE
1oif_IFM_A_1.pdb
 10 10 0 0 0
SMALL
GASTEIGER

@<TRIPOS>ATOM
      1  O4        -1.2450   10.9210    6.4200 O.3   1447  IFM1447    -0.2202
      2  C4        -0.8590   10.6970    7.7800 C.3   1447  IFM1447     0.1874
      3  C3         0.0200   11.9210    8.2090 C.3   1447  IFM1447     0.1995
      4  O3         1.1280   12.2160    7.3640 O.3   1447  IFM1447    -0.2189
      5  C2         0.4770   11.8650    9.6770 C.3   1447  IFM1447     0.1241
      6  N         -0.6170   11.5090   10.6020 N.3   1447  IFM1447    -0.2151
      7  C1        -1.4470   10.3550   10.1920 C.3   1447  IFM1447     0.0940
      8  C5        -2.0480   10.5600    8.7840 C.3   1447  IFM1447     0.0834
      9  C6        -2.9910    9.3730    8.4930 C.3   1447  IFM1447     0.1861
     10  O6        -2.2870    8.1680    8.8340 O.3   1447  IFM1447    -0.2203
@<TRIPOS>BOND
     1     1     2    1
     2     4     3    1
     3     2     3    1
     4     2     8    1
     5     3     5    1
     6     9     8    1
     7     9    10    1
     8     8     7    1
     9     5     6    1
    10     7     6    1
