@<TRIPOS>MOLECULE
1oii_AKG_A_1.pdb
 10 9 0 0 0
SMALL
GASTEIGER

@<TRIPOS>ATOM
      1  C1        49.5730  118.7670   32.4920 C.2   1302  AKG1302     0.4219
      2  O1        49.3970  117.6590   32.0360 O.co2 1302  AKG1302    -0.2373
      3  O2        50.6680  119.0500   33.1720 O.co2 1302  AKG1302    -0.2373
      4  C2        48.5300  119.8630   32.2470 C.2   1302  AKG1302     0.2526
      5  O5        48.7270  120.9550   32.7310 O.2   1302  AKG1302    -0.2843
      6  C3        47.3430  119.5790   31.3750 C.3   1302  AKG1302     0.0881
      7  C4        47.7160  120.0560   29.9670 C.3   1302  AKG1302     0.1224
      8  C5        46.5420  119.6540   29.1000 C.2   1302  AKG1302     0.3653
      9  O3        46.4710  119.9170   27.9030 O.co2 1302  AKG1302    -0.2456
     10  O4        45.5560  119.0110   29.6840 O.co2 1302  AKG1302    -0.2456
@<TRIPOS>BOND
     1     9     8   ar
     2     8    10   ar
     3     8     7    1
     4     7     6    1
     5     6     4    1
     6     2     1   ar
     7     4     1    1
     8     4     5    2
     9     1     3   ar
