@<TRIPOS>MOLECULE
1oij_AKG_A_1.pdb
 10 9 0 0 0
SMALL
GASTEIGER

@<TRIPOS>ATOM
      1  C1        47.7300  117.3380   33.8690 C.2   1302  AKG1302     0.4219
      2  O1        46.9640  116.5090   34.3230 O.co2 1302  AKG1302    -0.2373
      3  O2        48.6760  117.8300   34.6850 O.co2 1302  AKG1302    -0.2373
      4  C2        47.7020  117.8930   32.4030 C.2   1302  AKG1302     0.2526
      5  O5        48.4700  118.8380   32.2330 O.2   1302  AKG1302    -0.2843
      6  C3        46.8580  117.4050   31.2170 C.3   1302  AKG1302     0.0881
      7  C4        47.5170  117.7720   29.8640 C.3   1302  AKG1302     0.1224
      8  C5        46.6200  117.7280   28.6340 C.2   1302  AKG1302     0.3653
      9  O3        46.9010  118.2970   27.5860 O.co2 1302  AKG1302    -0.2456
     10  O4        45.4900  117.0590   28.6430 O.co2 1302  AKG1302    -0.2456
@<TRIPOS>BOND
     1     9     8   ar
     2     8    10   ar
     3     8     7    1
     4     7     6    1
     5     6     4    1
     6     5     4    2
     7     4     1    1
     8     1     2   ar
     9     1     3   ar
