@<TRIPOS>MOLECULE
1oik_AKG_A_1.pdb
 10 9 0 0 0
SMALL
GASTEIGER

@<TRIPOS>ATOM
      1  C1        41.7370   72.0190   11.7300 C.2   1301  AKG1301     0.4219
      2  O1        41.8810   71.8890   10.5100 O.co2 1301  AKG1301    -0.2373
      3  O2        40.5900   72.4600   12.1880 O.co2 1301  AKG1301    -0.2373
      4  C2        42.8380   71.6620   12.7630 C.2   1301  AKG1301     0.2526
      5  O5        42.6690   71.8690   13.9540 O.2   1301  AKG1301    -0.2843
      6  C3        44.0830   70.9980   12.2870 C.3   1301  AKG1301     0.0881
      7  C4        43.6990   69.5090   12.2260 C.3   1301  AKG1301     0.1224
      8  C5        44.8740   68.8160   11.5920 C.2   1301  AKG1301     0.3653
      9  O3        44.9710   67.5830   11.5830 O.co2 1301  AKG1301    -0.2456
     10  O4        45.8500   69.5430   11.0530 O.co2 1301  AKG1301    -0.2456
@<TRIPOS>BOND
     1     2     1   ar
     2    10     8   ar
     3     9     8   ar
     4     8     7    1
     5     1     3   ar
     6     1     4    1
     7     7     6    1
     8     6     4    1
     9     4     5    2
