@<TRIPOS>MOLECULE
1oik_C26_A_1.pdb
 13 12 0 0 0
SMALL
GASTEIGER

@<TRIPOS>ATOM
      1  O4        39.5560   77.1350   15.6230 O.3   1300  C261300    -0.2682
      2  S1        40.5110   77.3400   14.5240 S.3   1300  C261300    -0.0001
      3  O2        39.8160   77.1340   13.2190 O.2   1300  C261300    -0.3452
      4  O3        41.0470   78.7290   14.6460 O.2   1300  C261300    -0.3452
      5  O1        41.7360   76.2160   14.6130 O.3   1300  C261300    -0.2412
      6  C1        42.9770   76.3230   13.8830 C.3   1300  C261300     0.1724
      7  C2        44.1940   76.6630   14.7560 C.3   1300  C261300     0.0321
      8  C7        45.4510   76.4570   13.9010 C.3   1300  C261300     0.0026
      9  C8        46.5310   77.5090   14.1040 C.3   1300  C261300     0.0001
     10  C3        44.2440   75.7610   16.0020 C.3   1300  C261300     0.0026
     11  C4        44.8360   76.3910   17.2710 C.3   1300  C261300     0.0001
     12  C5        45.3860   75.3120   18.2120 C.3   1300  C261300     0.0000
     13  C6        46.8310   75.5660   18.5940 C.3   1300  C261300     0.0000
@<TRIPOS>BOND
     1     3     2    2
     2     6     5    1
     3     6     7    1
     4     8     9    1
     5     8     7    1
     6     2     5    1
     7     2     4    2
     8     2     1    1
     9     7    10    1
    10    10    11    1
    11    11    12    1
    12    12    13    1
