@<TRIPOS>MOLECULE
1oim_NOJ_A_1.pdb
 11 11 0 0 0
SMALL
GASTEIGER

@<TRIPOS>ATOM
      1  C1        -0.3660   10.9440   10.7940 C.2   1447  NOJ1447     0.1022
      2  C2         0.5220   11.6790    9.7710 C.3   1447  NOJ1447     0.2251
      3  O2         0.9600   12.8910   10.3390 O.3   1447  NOJ1447    -0.2138
      4  C3        -0.1110   11.9170    8.3970 C.3   1447  NOJ1447     0.2200
      5  O3         1.0000   12.1960    7.5150 O.3   1447  NOJ1447    -0.2172
      6  C4        -0.9790   10.6840    8.0220 C.3   1447  NOJ1447     0.2098
      7  O4        -1.3350   10.7820    6.6500 O.3   1447  NOJ1447    -0.2181
      8  C5        -2.1680   10.6310    9.0120 C.3   1447  NOJ1447     0.1687
      9  N5        -1.7200   10.5370   10.4240 N.2   1447  NOJ1447    -0.2674
     10  C6        -3.1220    9.4430    8.8140 C.3   1447  NOJ1447     0.2089
     11  O6        -2.4070    8.2240    8.9100 O.3   1447  NOJ1447    -0.2182
@<TRIPOS>BOND
     1     7     6    1
     2     5     4    1
     3     6     4    1
     4     6     8    1
     5     4     2    1
     6    10    11    1
     7    10     8    1
     8     8     9    1
     9     2     3    1
    10     2     1    1
    11     9     1    2
