@<TRIPOS>MOLECULE
1oin_G2F_A_1.pdb
 11 11 0 0 0
SMALL
GASTEIGER

@<TRIPOS>ATOM
      1  C1        -0.8090   11.9360   10.5900 C.3   1446  G2F1446     0.1801
      2  C2         0.4300   12.1160    9.6800 C.3   1446  G2F1446     0.2230
      3  C3         0.0420   12.1760    8.1910 C.3   1446  G2F1446     0.2194
      4  C4        -0.8360   10.9640    7.8210 C.3   1446  G2F1446     0.2144
      5  C5        -2.0690   11.0180    8.7510 C.3   1446  G2F1446     0.1810
      6  C6        -3.0040    9.8730    8.4320 C.3   1446  G2F1446     0.2141
      7  O3         1.2360   12.3760    7.3930 O.3   1446  G2F1446    -0.2173
      8  O4        -1.1700   10.9100    6.4150 O.3   1446  G2F1446    -0.2176
      9  O5        -1.6180   10.8310   10.1120 O.3   1446  G2F1446    -0.3479
     10  O6        -2.3550    8.6560    8.8430 O.3   1446  G2F1446    -0.2176
     11  F2         1.0500   13.3090    9.9020 F     1446  G2F1446    -0.2317
@<TRIPOS>BOND
     1     8     4    1
     2     7     3    1
     3     4     3    1
     4     4     5    1
     5     3     2    1
     6     6     5    1
     7     6    10    1
     8     5     9    1
     9     2    11    1
    10     2     1    1
    11     9     1    1
