@<TRIPOS>MOLECULE
1oio_NAG_A_1.pdb
 15 15 0 0 0
SMALL
GASTEIGER

@<TRIPOS>ATOM
      1  C1        27.7900   17.4670   19.6400 C.3   201  NAG201      0.2917
      2  C2        26.4360   17.9450   19.1130 C.3   201  NAG201      0.1871
      3  C3        26.3830   19.4750   19.1040 C.3   201  NAG201      0.2095
      4  C4        26.7780   20.0490   20.4630 C.3   201  NAG201      0.2136
      5  C5        28.1170   19.4580   20.9170 C.3   201  NAG201      0.1835
      6  C6        28.5020   19.9070   22.3090 C.3   201  NAG201      0.2142
      7  C7        25.2150   16.6590   17.4830 C.2   201  NAG201      0.2421
      8  C8        25.0070   16.2910   16.0220 C.3   201  NAG201      0.0964
      9  N2        26.2440   17.4510   17.7650 N.am  201  NAG201     -0.1991
     10  O1        27.7900   16.0880   19.7480 O.3   201  NAG201     -0.1879
     11  O3        25.0670   19.9000   18.7820 O.3   201  NAG201     -0.2183
     12  O4        26.8850   21.4620   20.3610 O.3   201  NAG201     -0.2176
     13  O5        28.0340   18.0160   20.9390 O.3   201  NAG201     -0.3242
     14  O6        27.5490   19.4740   23.2700 O.3   201  NAG201     -0.2176
     15  O7        24.4530   16.2230   18.3400 O.2   201  NAG201     -0.2733
@<TRIPOS>BOND
     1     8     7    1
     2     7     9   am
     3     7    15    2
     4     9     2    1
     5    11     3    1
     6     3     2    1
     7     3     4    1
     8     2     1    1
     9     1    10    1
    10     1    13    1
    11    12     4    1
    12     4     5    1
    13     5    13    1
    14     5     6    1
    15     6    14    1
