@<TRIPOS>MOLECULE
1oip_VIV_A_1.pdb
 31 32 0 0 0
SMALL
GASTEIGER

@<TRIPOS>ATOM
      1  O1       -12.0390    1.5270   18.5860 O.3   1278  VIV1278    -0.4832
      2  O2       -11.1210   -1.9750   14.4630 O.3   1278  VIV1278    -0.2873
      3  C1       -11.1940   10.5260   18.2630 C.3   1278  VIV1278     0.0000
      4  C2       -11.7050    0.2010   15.1790 C.ar  1278  VIV1278     0.0157
      5  C3       -11.9470    1.1070   16.2150 C.ar  1278  VIV1278     0.0107
      6  C4       -11.8160    0.6660   17.5280 C.ar  1278  VIV1278     0.1297
      7  C5       -11.4640   -0.6480   17.8130 C.ar  1278  VIV1278     0.0109
      8  C6       -11.2210   -1.5540   16.7890 C.ar  1278  VIV1278     0.0157
      9  C7       -11.3470   -1.1250   15.4680 C.ar  1278  VIV1278     0.1873
     10  C8       -11.8440    0.6640   13.7370 C.3   1278  VIV1278     0.0341
     11  C9       -12.0670    2.9580   18.3410 C.3   1278  VIV1278     0.1335
     12  C10      -12.3530    2.5540   15.8870 C.3   1278  VIV1278     0.0328
     13  C11      -12.9480    3.2740   17.1430 C.3   1278  VIV1278     0.0448
     14  C12      -11.3340   -1.0760   19.2630 C.3   1278  VIV1278     0.0340
     15  C13      -10.8300   -2.9900   17.1540 C.3   1278  VIV1278     0.0341
     16  C14      -10.6620    3.4180   17.9960 C.3   1278  VIV1278     0.0436
     17  C15      -12.5340    3.6100   19.6710 C.3   1278  VIV1278     0.0400
     18  C16      -12.6170    5.1380   19.5970 C.3   1278  VIV1278     0.0036
     19  C17      -13.1620    5.6770   20.9330 C.3   1278  VIV1278     0.0001
     20  C18      -13.2330    7.2170   20.9410 C.3   1278  VIV1278     0.0000
     21  C19      -13.5400    7.6440   22.3900 C.3   1278  VIV1278     0.0000
     22  C20      -14.3140    7.6970   19.9710 C.3   1278  VIV1278     0.0000
     23  C21      -14.5210    9.2290   19.8820 C.3   1278  VIV1278     0.0000
     24  C22      -13.2050    9.9890   19.6940 C.3   1278  VIV1278     0.0000
     25  C23      -12.4670    9.6710   18.3720 C.3   1278  VIV1278     0.0000
     26  C24      -13.3300    9.8500   17.1150 C.3   1278  VIV1278     0.0000
     27  C25      -12.5620    9.4380   15.8310 C.3   1278  VIV1278     0.0000
     28  C26      -11.9170    8.0300   15.9020 C.3   1278  VIV1278     0.0000
     29  C27      -11.5060    7.5000   14.5110 C.3   1278  VIV1278     0.0000
     30  C28      -10.3530    8.3240   13.9400 C.3   1278  VIV1278     0.0000
     31  C29      -11.1140    6.0110   14.5320 C.3   1278  VIV1278     0.0000
@<TRIPOS>BOND
     1    10     4    1
     2    30    29    1
     3     2     9    1
     4    29    31    1
     5    29    28    1
     6     4     9   ar
     7     4     5   ar
     8     9     8   ar
     9    27    28    1
    10    27    26    1
    11    12     5    1
    12    12    13    1
    13     5     6   ar
    14     8    15    1
    15     8     7   ar
    16    26    25    1
    17    13    11    1
    18     6     7   ar
    19     6     1    1
    20     7    14    1
    21    16    11    1
    22     3    25    1
    23    11     1    1
    24    11    17    1
    25    25    24    1
    26    18    17    1
    27    18    19    1
    28    24    23    1
    29    23    22    1
    30    22    20    1
    31    19    20    1
    32    20    21    1
