@<TRIPOS>MOLECULE
1oiq_HDU_A_1.pdb
 20 22 0 0 0
SMALL
GASTEIGER

@<TRIPOS>ATOM
      1  O20       10.9720   -9.7210   10.7170 O.2   1299  HDU1299    -0.2722
      2  C18       10.3520  -10.5520   11.3910 C.2   1299  HDU1299     0.2558
      3  C19        9.1160  -11.1830   10.8190 C.3   1299  HDU1299     0.0976
      4  N17       10.7340  -10.9250   12.6190 N.am  1299  HDU1299    -0.0995
      5  C15       11.9030  -10.3940   13.2890 C.1   1299  HDU1299     0.1719
      6  N16       12.8410   -9.5420   12.6240 N.2   1299  HDU1299    -0.3384
      7  N14       12.1840  -10.6980   14.6630 N.2   1299  HDU1299    -0.1683
      8  C13       13.2600  -10.1780   15.2460 C.2   1299  HDU1299     0.1141
      9  C12       14.0960   -9.3960   14.5860 C.2   1299  HDU1299     0.0521
     10  C11       13.9020   -9.0800   13.2850 C.2   1299  HDU1299     0.1481
     11  C7        14.8400   -8.1500   12.5670 C.3   1299  HDU1299     0.1806
     12  N6        14.5850   -7.5080   11.2960 N.pl3 1299  HDU1299    -0.2508
     13  C5        15.6850   -6.6890   11.0130 C.2   1299  HDU1299     0.1869
     14  N8        16.6130   -6.7830   12.0620 N.2   1299  HDU1299    -0.3932
     15  C9        16.1650   -7.6280   13.0200 C.2   1299  HDU1299     0.1139
     16  C10       16.9440   -7.9520   14.2620 C.3   1299  HDU1299     0.0638
     17  C4        15.7110   -5.9470    9.8340 C.2   1299  HDU1299     0.0480
     18  C3        14.6450   -6.0130    8.9250 C.2   1299  HDU1299     0.0053
     19  C2        13.5530   -6.8240    9.2270 C.2   1299  HDU1299     0.0163
     20  C1        13.5550   -7.5600   10.4250 C.2   1299  HDU1299     0.0679
@<TRIPOS>BOND
     1    18    19    1
     2    18    17    2
     3    19    20    2
     4    17    13    1
     5    20    12    1
     6     1     2    2
     7     3     2    1
     8    13    12    1
     9    13    14    2
    10    12    11    1
    11     2     4   am
    12    14    15    2
    13    11    15    1
    14    11    10    1
    15     4     5    1
    16     6    10    2
    17     6     5    2
    18    15    16    1
    19    10     9    1
    20     5     7    2
    21     9     8    2
    22     7     8    1
