@<TRIPOS>MOLECULE
1oir_HDY_A_1.pdb
 31 34 0 0 0
SMALL
GASTEIGER

@<TRIPOS>ATOM
      1  C10       -2.3020   29.8690    9.6880 C.3   1298  HDY1298     0.0638
      2  C9        -1.7660   28.4940    9.4240 C.2   1298  HDY1298     0.1139
      3  N8        -2.2330   27.3860   10.0040 N.2   1298  HDY1298    -0.3932
      4  C5        -1.5020   26.3230    9.5490 C.2   1298  HDY1298     0.1869
      5  C4        -1.6700   24.9940    9.8810 C.2   1298  HDY1298     0.0480
      6  C3        -0.8280   24.0660    9.2700 C.2   1298  HDY1298     0.0053
      7  C2         0.1480   24.4680    8.3420 C.2   1298  HDY1298     0.0163
      8  N6        -0.5270   26.6900    8.6190 N.pl3 1298  HDY1298    -0.2508
      9  C1         0.2900   25.8200    8.0020 C.2   1298  HDY1298     0.0679
     10  C7        -0.6580   28.1220    8.4880 C.3   1298  HDY1298     0.1806
     11  C11        0.1940   28.9810    7.6540 C.2   1298  HDY1298     0.1481
     12  C12       -0.1210   30.3060    7.3710 C.2   1298  HDY1298     0.0521
     13  C13        0.7860   31.0350    6.6090 C.2   1298  HDY1298     0.1141
     14  N14        1.9080   30.4360    6.1810 N.2   1298  HDY1298    -0.1683
     15  N16        1.3540   28.4310    7.2300 N.2   1298  HDY1298    -0.3385
     16  C15        2.2080   29.1390    6.4790 C.1   1298  HDY1298     0.1694
     17  N17        3.3630   28.5960    6.0170 N.pl3 1298  HDY1298    -0.1358
     18  C18        3.8220   27.3140    6.0820 C.ar  1298  HDY1298     0.0828
     19  C19        4.4700   26.8310    4.9480 C.ar  1298  HDY1298     0.0205
     20  C20        5.0030   25.5390    4.9040 C.ar  1298  HDY1298     0.0383
     21  C23        3.7210   26.4700    7.2010 C.ar  1298  HDY1298     0.0205
     22  C22        4.2600   25.1700    7.1520 C.ar  1298  HDY1298     0.0383
     23  C21        4.8910   24.6820    5.9990 C.ar  1298  HDY1298     0.1388
     24  O24        5.4450   23.3970    5.9840 O.3   1298  HDY1298    -0.4727
     25  C25        5.0750   22.2240    5.2280 C.3   1298  HDY1298     0.2394
     26  C26        6.3010   21.3080    5.0100 C.3   1298  HDY1298     0.2112
     27  O31        7.4670   21.9350    5.5460 O.3   1298  HDY1298    -0.2176
     28  C27        6.1760   19.9110    5.6520 C.3   1298  HDY1298     0.1094
     29  N28        5.2590   18.9700    4.9860 N.3   1298  HDY1298    -0.2681
     30  C30        6.0290   17.9250    4.3220 C.3   1298  HDY1298     0.0897
     31  C29        4.4410   18.2640    5.9680 C.3   1298  HDY1298     0.0897
@<TRIPOS>BOND
     1    30    29    1
     2    20    19   ar
     3    20    23   ar
     4    19    18   ar
     5    29    28    1
     6    29    31    1
     7    26    25    1
     8    26    27    1
     9    26    28    1
    10    25    24    1
    11    24    23    1
    12    23    22   ar
    13    17    18    1
    14    17    16    1
    15    18    21   ar
    16    14    16    2
    17    14    13    1
    18    16    15    2
    19    13    12    2
    20    22    21   ar
    21    15    11    2
    22    12    11    1
    23    11    10    1
    24     9     7    2
    25     9     8    1
    26     7     6    1
    27    10     8    1
    28    10     2    1
    29     8     4    1
    30     6     5    2
    31     2     1    1
    32     2     3    2
    33     4     5    1
    34     4     3    2
