@<TRIPOS>MOLECULE
1oit_HDT_A_1.pdb
 26 29 0 0 0
SMALL
GASTEIGER

@<TRIPOS>ATOM
      1  C22        8.7010  -11.7790   10.8180 C.ar  1299  HDT1299     0.0187
      2  N1        14.2760   -8.0000   10.5420 N.ar  1299  HDT1299    -0.2866
      3  C2        13.6440   -8.7730    9.6490 C.ar  1299  HDT1299     0.0815
      4  C6        15.0850   -7.0060   10.2360 C.ar  1299  HDT1299     0.1479
      5  C5        15.3610   -6.6730    8.9220 C.ar  1299  HDT1299     0.0374
      6  C4        14.7240   -7.4570    7.9590 C.ar  1299  HDT1299     0.0046
      7  C3        13.8620   -8.5060    8.3010 C.ar  1299  HDT1299     0.0191
      8  C11       13.8370   -9.4040   13.9460 C.2   1299  HDT1299     0.0561
      9  C10       13.4260   -9.0330   12.6760 C.2   1299  HDT1299     0.1633
     10  C9        14.2300   -8.0450   11.8910 C.ar  1299  HDT1299     0.1152
     11  C8        15.0280   -7.0750   12.3850 C.ar  1299  HDT1299     0.1206
     12  C12       13.0600  -10.3220   14.6380 C.2   1299  HDT1299     0.1145
     13  C17        9.7240  -10.8810   11.1420 C.ar  1299  HDT1299     0.0827
     14  C14       11.5570  -10.4680   12.8310 C.1   1299  HDT1299     0.1697
     15  N15       12.3030   -9.5790   12.1380 N.2   1299  HDT1299    -0.3346
     16  C18        9.8970   -9.7540   10.3420 C.ar  1299  HDT1299     0.0187
     17  C19        9.1070   -9.5620    9.2060 C.ar  1299  HDT1299     0.0214
     18  C20        8.1190  -10.4800    8.8680 C.ar  1299  HDT1299     0.1251
     19  O26        6.0810   -9.4490    7.9890 O.2   1299  HDT1299    -0.1503
     20  S23        7.1980  -10.2430    7.5750 S.O2  1299  HDT1299     0.0935
     21  O25        6.7240  -11.4980    7.0520 O.2   1299  HDT1299    -0.1503
     22  N24        8.0040   -9.4540    6.4390 N.3   1299  HDT1299     0.0392
     23  C21        7.9130  -11.5920    9.6840 C.ar  1299  HDT1299     0.0214
     24  N16       10.4440  -11.0810   12.3350 N.pl3 1299  HDT1299    -0.1358
     25  N13       11.9590  -10.8300   14.0680 N.2   1299  HDT1299    -0.1683
     26  N7        15.5600   -6.4310   11.4210 N.ar  1299  HDT1299    -0.2248
@<TRIPOS>BOND
     1    22    20    1
     2    21    20    2
     3    20    19    2
     4    20    18    1
     5     6     7   ar
     6     6     5   ar
     7     7     3   ar
     8    18    17   ar
     9    18    23   ar
    10     5     4   ar
    11    17    16   ar
    12     3     2   ar
    13    23     1   ar
    14     4     2   ar
    15     4    26   ar
    16    16    13   ar
    17     2    10   ar
    18     1    13   ar
    19    13    24    1
    20    26    11   ar
    21    10    11   ar
    22    10     9    1
    23    15     9    2
    24    15    14    2
    25    24    14    1
    26     9     8    1
    27    14    25    2
    28     8    12    2
    29    25    12    1
