@<TRIPOS>MOLECULE
1oiu_N76_A_1.pdb
 28 31 0 0 0
SMALL
GASTEIGER

@<TRIPOS>ATOM
      1  C2         7.9160   43.6120   49.8510 C.1   1298  N761298     0.2364
      2  C8        10.5520   46.4410   52.0420 C.3   1298  N761298     0.2628
      3  C10        4.8670   45.3510   51.9070 C.3   1298  N761298     0.2081
      4  C11        4.0240   45.8620   53.0570 C.3   1298  N761298     0.0438
      5  C12        2.5620   45.5450   52.7500 C.3   1298  N761298     0.0037
      6  C13        1.6820   46.0090   53.9120 C.3   1298  N761298     0.0001
      7  C14        2.1170   45.3790   55.2320 C.3   1298  N761298     0.0000
      8  C15        3.6010   45.6060   55.5280 C.3   1298  N761298     0.0001
      9  C16        4.4730   45.1740   54.3530 C.3   1298  N761298     0.0037
     10  C19        3.9800   40.7090   48.5370 C.ar  1298  N761298     0.0201
     11  C20        4.8080   40.9170   47.4370 C.ar  1298  N761298     0.1264
     12  N2         7.6260   42.6110   48.9930 N.pl3 1298  N761298    -0.1248
     13  C21        6.0320   41.5580   47.6210 C.ar  1298  N761298     0.0374
     14  C22        6.4230   41.9980   48.8840 C.ar  1298  N761298     0.0849
     15  N26        4.0430   38.8600   46.0080 N.3   1298  N761298     0.0392
     16  N1         6.9350   44.2280   50.5510 N.2   1298  N761298    -0.2865
     17  C6         7.1960   45.2310   51.4250 C.2   1298  N761298     0.3177
     18  O6         6.1920   45.8270   52.1090 O.2   1298  N761298    -0.4497
     19  C5         8.5840   45.6720   51.6220 C.2   1298  N761298     0.2195
     20  N7         9.2230   46.6190   52.3980 N.2   1298  N761298    -0.2273
     21  N9        10.8110   45.4370   51.1020 N.2   1298  N761298    -0.1806
     22  C4         9.5550   44.9660   50.8410 C.1   1298  N761298     0.1221
     23  N3         9.2100   43.9690   49.9980 N.2   1298  N761298    -0.2702
     24  C17        5.5980   41.7740   49.9860 C.ar  1298  N761298     0.0175
     25  C18        4.3750   41.1310   49.8100 C.ar  1298  N761298     0.0027
     26  S23        4.3510   40.4270   45.9660 S.O2  1298  N761298     0.0935
     27  O24        5.3810   40.6740   45.0070 O.2   1298  N761298    -0.1503
     28  O25        3.1650   41.1500   45.6150 O.2   1298  N761298    -0.1503
@<TRIPOS>BOND
     1    27    26    2
     2    28    26    2
     3    26    15    1
     4    26    11    1
     5    11    13   ar
     6    11    10   ar
     7    13    14   ar
     8    10    25   ar
     9    14    12    1
    10    14    24   ar
    11    12     1    1
    12    25    24   ar
    13     1    23    2
    14     1    16    2
    15    23    22    2
    16    16    17    2
    17    22    21    2
    18    22    19    1
    19    21     2    1
    20    17    19    1
    21    17    18    1
    22    19    20    2
    23     3    18    1
    24     3     4    1
    25     2    20    1
    26     5     4    1
    27     5     6    1
    28     4     9    1
    29     6     7    1
    30     9     8    1
    31     7     8    1
