@<TRIPOS>MOLECULE
1oiv_GDP_A_1.pdb
 28 30 0 0 0
SMALL
GASTEIGER

@<TRIPOS>ATOM
      1  PB        -6.6170   11.7810   13.3770 P.3   1174  GDP1174     0.5373
      2  O1B       -7.9880   11.2990   13.1060 O.3   1174  GDP1174    -0.1143
      3  O2B       -6.0870   11.6400   14.7690 O.3   1174  GDP1174    -0.1143
      4  O3B       -5.4740   11.0800   12.6340 O.2   1174  GDP1174    -0.2221
      5  O3A       -6.5230   13.4730   13.1930 O.3   1174  GDP1174    -0.2261
      6  PA        -6.9500   14.2780   11.8400 P.3   1174  GDP1174     0.2231
      7  O1A       -5.5570   14.7300   11.5780 O.3   1174  GDP1174    -0.4370
      8  O2A       -7.5870   13.6600   10.6470 O.2   1174  GDP1174    -0.5169
      9  O5'       -7.6490   15.5550   12.4870 O.3   1174  GDP1174    -0.3111
     10  C5'       -8.9930   15.6460   12.9100 C.3   1174  GDP1174     0.1813
     11  C4'       -9.5250   17.0310   12.5220 C.3   1174  GDP1174     0.1799
     12  O4'       -9.0610   18.1490   13.3750 O.3   1174  GDP1174    -0.3326
     13  C3'       -9.1250   17.5450   11.0910 C.3   1174  GDP1174     0.2158
     14  O3'      -10.2700   18.2980   10.6260 O.3   1174  GDP1174    -0.2175
     15  C2'       -7.9410   18.4890   11.3190 C.3   1174  GDP1174     0.2310
     16  O2'       -7.8120   19.5310   10.3630 O.3   1174  GDP1174    -0.2158
     17  C1'       -8.2040   19.0300   12.6940 C.3   1174  GDP1174     0.2293
     18  N9        -6.9260   19.2660   13.4710 N.pl3 1174  GDP1174    -0.2354
     19  C8        -5.7510   18.5540   13.5880 C.3   1174  GDP1174     0.2246
     20  N7        -4.8770   19.1350   14.3580 N.2   1174  GDP1174    -0.2322
     21  C5        -5.4900   20.3050   14.7850 C.2   1174  GDP1174     0.2182
     22  C6        -5.0470   21.3730   15.6360 C.1   1174  GDP1174     0.2372
     23  O6        -3.9440   21.4810   16.2010 O.2   1174  GDP1174    -0.2069
     24  N1        -6.0390   22.3880   15.8010 N.2   1174  GDP1174    -0.2485
     25  C2        -7.2960   22.3730   15.2160 C.1   1174  GDP1174     0.2531
     26  N2        -8.0890   23.4090   15.4850 N.pl3 1174  GDP1174    -0.0226
     27  N3        -7.7220   21.3770   14.4060 N.2   1174  GDP1174    -0.3074
     28  C4        -6.7740   20.4070   14.2520 C.2   1174  GDP1174     0.2300
@<TRIPOS>BOND
     1    16    15    1
     2    14    13    1
     3     8     6    2
     4    13    15    1
     5    13    11    1
     6    15    17    1
     7     7     6    1
     8     6     9    1
     9     6     5    1
    10     9    10    1
    11    11    10    1
    12    11    12    1
    13     4     1    2
    14    17    12    1
    15    17    18    1
    16     2     1    1
    17     5     1    1
    18     1     3    1
    19    18    19    1
    20    18    28    1
    21    19    20    1
    22    28    27    2
    23    28    21    1
    24    20    21    2
    25    27    25    2
    26    21    22    1
    27    25    26    1
    28    25    24    2
    29    22    24    2
    30    22    23    2
