@<TRIPOS>MOLECULE
1oiw_GSP_A_1.pdb
 32 34 0 0 0
SMALL
GASTEIGER

@<TRIPOS>ATOM
      1  PG         9.8810   17.3220    4.4950 P.3   1174  GSP1174     0.4340
      2  O3B       11.1200   16.6980    5.3480 O.3   1174  GSP1174    -0.2405
      3  S1G       10.2990   17.0500    3.0440 S.3   1174  GSP1174     0.0416
      4  O2G        8.5970   16.6600    4.8630 O.3   1174  GSP1174    -0.1305
      5  O3G        9.8570   18.7570    4.7310 O.2   1174  GSP1174    -0.2423
      6  PB        11.4880   16.5750    6.9040 P.3   1174  GSP1174     0.2262
      7  O1B       12.0870   17.8870    7.4110 O.2   1174  GSP1174    -0.5168
      8  O2B       10.2960   16.1230    7.6000 O.3   1174  GSP1174    -0.4369
      9  PA        12.4580   13.8960    7.4290 P.3   1174  GSP1174     0.2189
     10  O1A       12.0840   13.7460    8.8200 O.3   1174  GSP1174    -0.4371
     11  O2A       11.5700   13.2150    6.3900 O.2   1174  GSP1174    -0.5170
     12  O3A       12.5350   15.4270    6.8780 O.3   1174  GSP1174    -0.2701
     13  O5'       14.0440   13.4300    7.3110 O.3   1174  GSP1174    -0.3112
     14  C5'       14.5550   13.5500    5.9110 C.3   1174  GSP1174     0.1813
     15  C4'       15.7600   12.4920    6.0350 C.3   1174  GSP1174     0.1799
     16  O4'       16.7250   12.7910    7.0670 O.3   1174  GSP1174    -0.3326
     17  C3'       15.3710   11.0970    6.2590 C.3   1174  GSP1174     0.2158
     18  O3'       16.0100   10.2110    5.3730 O.3   1174  GSP1174    -0.2175
     19  C2'       15.6140   10.7410    7.7540 C.3   1174  GSP1174     0.2310
     20  O2'       15.8140    9.4630    7.9730 O.3   1174  GSP1174    -0.2158
     21  C1'       16.9850   11.6950    7.9390 C.3   1174  GSP1174     0.2293
     22  N9        17.0740   12.2100    9.3670 N.pl3 1174  GSP1174    -0.2354
     23  C8        16.0240   12.8220   10.0550 C.3   1174  GSP1174     0.2246
     24  N7        16.6670   13.0560   11.2250 N.2   1174  GSP1174    -0.2322
     25  C5        17.9960   12.6340   11.2810 C.2   1174  GSP1174     0.2182
     26  C6        18.8440   12.7300   12.2460 C.1   1174  GSP1174     0.2372
     27  O6        18.9000   13.1680   13.4420 O.2   1174  GSP1174    -0.2069
     28  N1        20.2110   12.1220   11.8480 N.2   1174  GSP1174    -0.2485
     29  C2        20.2760   11.6370   10.6310 C.1   1174  GSP1174     0.2531
     30  N2        21.5920   11.0550   10.2420 N.pl3 1174  GSP1174    -0.0226
     31  N3        19.3880   11.5480    9.6370 N.2   1174  GSP1174    -0.3074
     32  C4        18.2230   12.1110   10.0850 C.2   1174  GSP1174     0.2300
@<TRIPOS>BOND
     1     3     1    1
     2     1     5    2
     3     1     4    1
     4     1     2    1
     5     2     6    1
     6    18    17    1
     7    14    15    1
     8    14    13    1
     9    15    17    1
    10    15    16    1
    11    17    19    1
    12    11     9    2
    13    12     6    1
    14    12     9    1
    15     6     7    2
    16     6     8    1
    17    16    21    1
    18    13     9    1
    19     9    10    1
    20    19    21    1
    21    19    20    1
    22    21    22    1
    23    22    23    1
    24    22    32    1
    25    31    32    2
    26    31    29    2
    27    23    24    1
    28    32    25    1
    29    30    29    1
    30    29    28    2
    31    24    25    2
    32    25    26    1
    33    28    26    2
    34    26    27    2
