@<TRIPOS>MOLECULE
1oix_GDP_A_1.pdb
 28 30 0 0 0
SMALL
GASTEIGER

@<TRIPOS>ATOM
      1  PB        11.9480   16.7410    6.9120 P.3   201  GDP201      0.5373
      2  O1B       12.5320   18.0180    7.4970 O.3   201  GDP201     -0.1143
      3  O2B       12.1710   16.6370    5.3870 O.2   201  GDP201     -0.2221
      4  O3B       10.5900   16.4040    7.4290 O.3   201  GDP201     -0.1143
      5  O3A       13.0190   15.6600    7.5250 O.3   201  GDP201     -0.2261
      6  PA        12.7800   14.0800    7.6740 P.3   201  GDP201      0.2231
      7  O1A       11.9010   13.5430    6.6400 O.2   201  GDP201     -0.5169
      8  O2A       12.4410   13.7410    9.0960 O.3   201  GDP201     -0.4370
      9  O5'       14.3310   13.5390    7.5150 O.3   201  GDP201     -0.3111
     10  C5'       14.9890   13.7740    6.2660 C.3   201  GDP201      0.1813
     11  C4'       16.1430   12.7490    6.2600 C.3   201  GDP201      0.1799
     12  O4'       17.0980   13.0510    7.2410 O.3   201  GDP201     -0.3326
     13  C3'       15.6990   11.3200    6.4970 C.3   201  GDP201      0.2158
     14  O3'       16.5280   10.4300    5.6530 O.3   201  GDP201     -0.2175
     15  C2'       15.9890   11.1230    7.9520 C.3   201  GDP201      0.2310
     16  O2'       16.1640    9.7770    8.3550 O.3   201  GDP201     -0.2158
     17  C1'       17.2270   11.9780    8.1740 C.3   201  GDP201      0.2293
     18  N9        17.3180   12.4520    9.5500 N.pl3 201  GDP201     -0.2354
     19  C8        16.3210   13.0920   10.3040 C.3   201  GDP201      0.2246
     20  N7        16.7980   13.3910   11.4870 N.2   201  GDP201     -0.2322
     21  C5        18.1490   12.9780   11.4980 C.2   201  GDP201      0.2182
     22  C6        19.1400   13.0400   12.4650 C.1   201  GDP201      0.2372
     23  O6        19.0090   13.5180   13.5790 O.2   201  GDP201     -0.2069
     24  N1        20.3990   12.5080   12.1300 N.2   201  GDP201     -0.2485
     25  C2        20.6400   11.9650   10.8970 C.1   201  GDP201      0.2531
     26  N2        21.8730   11.4750   10.5810 N.pl3 201  GDP201     -0.0226
     27  N3        19.6820   11.9080    9.9290 N.2   201  GDP201     -0.3074
     28  C4        18.4420   12.4190   10.2670 C.2   201  GDP201      0.2300
@<TRIPOS>BOND
     1     3     1    2
     2    14    13    1
     3    11    10    1
     4    11    13    1
     5    11    12    1
     6    10     9    1
     7    13    15    1
     8     7     6    2
     9     1     4    1
    10     1     2    1
    11     1     5    1
    12    12    17    1
    13     9     6    1
    14     5     6    1
    15     6     8    1
    16    15    17    1
    17    15    16    1
    18    17    18    1
    19    18    28    1
    20    18    19    1
    21    27    28    2
    22    27    25    2
    23    28    21    1
    24    19    20    1
    25    26    25    1
    26    25    24    2
    27    20    21    2
    28    21    22    1
    29    24    22    2
    30    22    23    2
