@<TRIPOS>MOLECULE
1oiy_N41_A_1.pdb
 27 30 0 0 0
SMALL
GASTEIGER

@<TRIPOS>ATOM
      1  C2         7.8810   43.6980   49.5180 C.1   1298  N411298     0.2364
      2  C10        4.8200   45.4890   51.6160 C.3   1298  N411298     0.2081
      3  C11        3.9450   46.0810   52.7150 C.3   1298  N411298     0.0438
      4  C12        2.4610   45.7880   52.4180 C.3   1298  N411298     0.0037
      5  C13        1.5010   46.0030   53.6110 C.3   1298  N411298     0.0001
      6  C14        2.0960   45.5600   54.9590 C.3   1298  N411298     0.0000
      7  C15        3.5120   46.1240   55.1780 C.3   1298  N411298     0.0001
      8  C16        4.4390   45.5910   54.0960 C.3   1298  N411298     0.0037
      9  C19        4.6900   40.7610   47.3980 C.ar  1298  N411298     0.0060
     10  C20        3.8070   40.8290   48.4620 C.ar  1298  N411298     0.0567
     11  C21        4.2100   41.5200   49.6130 C.ar  1298  N411298     0.0060
     12  C22        5.4670   42.1260   49.7170 C.ar  1298  N411298     0.0175
     13  N25        1.8670   39.6660   49.4840 N.am  1298  N411298    -0.0837
     14  N1         6.8780   44.4040   50.1330 N.2   1298  N411298    -0.2865
     15  C6         7.1250   45.4480   50.9660 C.2   1298  N411298     0.3177
     16  O6         6.0940   46.1500   51.5500 O.2   1298  N411298    -0.4497
     17  C5         8.5350   45.8060   51.2070 C.2   1298  N411298     0.2195
     18  N7         9.1820   46.7570   51.9440 N.2   1298  N411298    -0.2273
     19  N9        10.8140   45.4530   50.8500 N.2   1298  N411298    -0.1806
     20  C4         9.5360   45.0150   50.5430 C.1   1298  N411298     0.1221
     21  N3         9.1970   44.0060   49.7220 N.2   1298  N411298    -0.2702
     22  N2         7.5800   42.6460   48.6920 N.pl3 1298  N411298    -0.1248
     23  C17        6.3480   42.0640   48.6390 C.ar  1298  N411298     0.0835
     24  C18        5.9500   41.3700   47.4870 C.ar  1298  N411298     0.0175
     25  C23        2.4220   40.2080   48.3820 C.2   1298  N411298     0.2842
     26  C8        10.5380   46.5190   51.7020 C.3   1298  N411298     0.2628
     27  O24        1.8160   40.2550   47.3140 O.2   1298  N411298    -0.2667
@<TRIPOS>BOND
     1    27    25    2
     2     9    24   ar
     3     9    10   ar
     4    24    23   ar
     5    25    10    1
     6    25    13   am
     7    10    11   ar
     8    23    22    1
     9    23    12   ar
    10    22     1    1
    11     1    21    2
    12     1    14    2
    13    11    12   ar
    14    21    20    2
    15    14    15    2
    16    20    19    2
    17    20    17    1
    18    19    26    1
    19    15    17    1
    20    15    16    1
    21    17    18    2
    22    16     2    1
    23     2     3    1
    24    26    18    1
    25     4     3    1
    26     4     5    1
    27     3     8    1
    28     5     6    1
    29     8     7    1
    30     6     7    1
