@<TRIPOS>MOLECULE
1oiz_TRT_A_1.pdb
 25 25 0 0 0
SMALL
GASTEIGER

@<TRIPOS>ATOM
      1  C25       40.1410  -16.2690   49.7330 C.3   1274  TRT1274     0.1742
      2  O24       40.0500  -15.2800   50.7660 O.3   1274  TRT1274    -0.3484
      3  C23       38.7910  -15.3120   51.4450 C.3   1274  TRT1274     0.1742
      4  C22       38.0080  -14.0440   51.1320 C.3   1274  TRT1274     0.1742
      5  O21       38.0170  -13.8080   49.7250 O.3   1274  TRT1274    -0.3484
      6  C20       37.8950  -12.4220   49.4130 C.3   1274  TRT1274     0.1742
      7  C19       37.5970  -12.2760   47.9250 C.3   1274  TRT1274     0.1743
      8  O18       38.7410  -11.7750   47.2330 O.3   1274  TRT1274    -0.3471
      9  C17       38.5170  -11.5840   45.8340 C.3   1274  TRT1274     0.1894
     10  C16       37.8570  -10.2280   45.6280 C.3   1274  TRT1274     0.2373
     11  O15       38.1220   -9.7280   44.3220 O.3   1274  TRT1274    -0.4727
     12  C12       37.8690   -8.4150   44.0490 C.ar  1274  TRT1274     0.1387
     13  C13       36.9250   -7.7200   44.8050 C.ar  1274  TRT1274     0.0366
     14  C14       36.6750   -6.3790   44.5330 C.ar  1274  TRT1274    -0.0012
     15  C11       38.5520   -7.7770   43.0180 C.ar  1274  TRT1274     0.0366
     16  C10       38.2960   -6.4350   42.7450 C.ar  1274  TRT1274    -0.0012
     17  C9        37.3630   -5.7200   43.5050 C.ar  1274  TRT1274    -0.0226
     18  C6        37.0760   -4.2650   43.2080 C.3   1274  TRT1274     0.0189
     19  C8        35.5790   -4.1800   42.9420 C.3   1274  TRT1274     0.0044
     20  C7        37.7880   -3.8760   41.9160 C.3   1274  TRT1274     0.0044
     21  C5        37.3970   -3.2840   44.3550 C.3   1274  TRT1274     0.0040
     22  C1        38.7950   -3.1740   44.9940 C.3   1274  TRT1274     0.0003
     23  C2        39.2890   -4.4900   45.6000 C.3   1274  TRT1274     0.0000
     24  C4        38.7050   -2.1640   46.1320 C.3   1274  TRT1274     0.0000
     25  C3        39.8590   -2.6660   44.0390 C.3   1274  TRT1274     0.0000
@<TRIPOS>BOND
     1    20    18    1
     2    16    15   ar
     3    16    17   ar
     4    19    18    1
     5    15    12   ar
     6    18    17    1
     7    18    21    1
     8    17    14   ar
     9    25    22    1
    10    12    11    1
    11    12    13   ar
    12    11    10    1
    13    21    22    1
    14    14    13   ar
    15    22    23    1
    16    22    24    1
    17    10     9    1
    18     9     8    1
    19     8     7    1
    20     7     6    1
    21     6     5    1
    22     5     4    1
    23     1     2    1
    24     2     3    1
    25     4     3    1
