@<TRIPOS>MOLECULE
1oj1_CG2_A_1.pdb
 40 44 0 0 0
SMALL
GASTEIGER

@<TRIPOS>ATOM
      1  N1G        9.3450   44.3000   -1.3770 N.2   1106  CG21106    -0.2485
      2  C2G        8.0250   43.5680   -1.3990 C.1   1106  CG21106     0.2531
      3  N2G        7.9150   42.4870   -2.1770 N.pl3 1106  CG21106    -0.0226
      4  N3G        7.0030   43.9780   -0.6740 N.2   1106  CG21106    -0.3074
      5  C4G        7.2840   45.1150    0.0660 C.2   1106  CG21106     0.2300
      6  C5G        8.4690   45.8610    0.1480 C.2   1106  CG21106     0.2182
      7  C6G        9.5870   45.4620   -0.6030 C.1   1106  CG21106     0.2372
      8  O6G       10.6780   46.0000   -0.6340 O.2   1106  CG21106    -0.2069
      9  N7G        8.3160   46.9340    1.0110 N.2   1106  CG21106    -0.2322
     10  C8G        7.0830   46.8300    1.4400 C.3   1106  CG21106     0.2246
     11  N9G        6.4030   45.7470    0.9060 N.pl3 1106  CG21106    -0.2354
     12  CA'        5.0110   45.3010    1.1510 C.3   1106  CG21106     0.2293
     13  CB'        4.8600   44.2330    2.2500 C.3   1106  CG21106     0.2310
     14  OB'        3.8930   43.2680    1.8420 O.3   1106  CG21106    -0.2158
     15  CC'        4.4430   45.0810    3.4300 C.3   1106  CG21106     0.2158
     16  OC'        3.8340   44.3440    4.4720 O.3   1106  CG21106    -0.2175
     17  CD'        3.5060   46.0780    2.7860 C.3   1106  CG21106     0.1799
     18  OD'        4.1760   46.4050    1.5320 O.3   1106  CG21106    -0.3326
     19  CE'        3.2980   47.3300    3.6080 C.3   1106  CG21106     0.1813
     20  OE'        4.5180   48.0980    3.6890 O.3   1106  CG21106    -0.3114
     21  P          4.5810   49.4430    4.5540 P.3   1106  CG21106     0.2142
     22  O1P        4.0520   49.1610    5.9520 O.3   1106  CG21106    -0.4373
     23  O2P        6.0090   49.9390    4.4110 O.2   1106  CG21106    -0.5172
     24  O5'        3.5910   54.9230   -0.2260 O.3   1106  CG21106    -0.2176
     25  C5'        4.5400   54.1870    0.6180 C.3   1106  CG21106     0.2142
     26  C4'        3.8000   53.2320    1.5590 C.3   1106  CG21106     0.1828
     27  O4'        3.0350   52.2330    0.8060 O.3   1106  CG21106    -0.3319
     28  C3'        4.7380   52.4410    2.4580 C.3   1106  CG21106     0.2131
     29  O3'        4.9110   53.1440    3.7090 O.3   1106  CG21106    -0.2176
     30  C2'        4.0760   51.0480    2.5980 C.3   1106  CG21106     0.2019
     31  O2'        3.6540   50.5460    3.8360 O.3   1106  CG21106    -0.3095
     32  C1'        2.9910   51.0130    1.5190 C.3   1106  CG21106     0.2371
     33  N1U        3.1460   49.8810    0.5610 N.am  1106  CG21106    -0.1779
     34  C2U        2.0630   48.8900    0.3930 C.1   1106  CG21106     0.2756
     35  O2U        1.0110   48.9500    1.0210 O.2   1106  CG21106    -0.1925
     36  N3U        2.2850   47.7830   -0.5810 N.2   1106  CG21106    -0.3024
     37  C4U        3.4030   47.6760   -1.2820 C.2   1106  CG21106     0.2346
     38  C5U        4.4750   48.5750   -1.1760 C.2   1106  CG21106     0.0687
     39  C6U        4.3870   49.6490   -0.3010 C.2   1106  CG21106     0.0836
     40  N4C        3.4750   46.5880   -2.1600 N.pl3 1106  CG21106    -0.0921
@<TRIPOS>BOND
     1     3     2    1
     2    40    37    1
     3     2     1    2
     4     2     4    2
     5     1     7    2
     6    37    38    1
     7    37    36    2
     8    38    39    2
     9     4     5    2
    10     8     7    2
    11     7     6    1
    12    36    34    2
    13    39    33    1
    14    24    25    1
    15     5     6    1
    16     5    11    1
    17     6     9    2
    18    34    33   am
    19    34    35    2
    20    33    32    1
    21    25    26    1
    22    27    32    1
    23    27    26    1
    24    11    12    1
    25    11    10    1
    26     9    10    1
    27    12    18    1
    28    12    13    1
    29    32    30    1
    30    18    17    1
    31    26    28    1
    32    14    13    1
    33    13    15    1
    34    28    30    1
    35    28    29    1
    36    30    31    1
    37    17    15    1
    38    17    19    1
    39    15    16    1
    40    19    20    1
    41    20    21    1
    42    31    21    1
    43    23    21    2
    44    21    22    1
