@<TRIPOS>MOLECULE
1oj4_ANP_A_1.pdb
 30 32 0 0 0
SMALL
GASTEIGER

@<TRIPOS>ATOM
      1  PG        26.3730   17.5530   21.1840 P.3   1285  ANP1285     0.4884
      2  O1G       25.2420   16.8620   20.2490 O.2   1285  ANP1285    -0.2331
      3  O2G       27.6190   18.0310   20.2620 O.3   1285  ANP1285    -0.1240
      4  O3G       26.8830   16.4240   22.2460 O.3   1285  ANP1285    -0.1240
      5  PB        26.0170   20.6270   21.7290 P.3   1285  ANP1285     0.4681
      6  O1B       25.5100   21.0020   20.2670 O.2   1285  ANP1285    -0.2351
      7  O2B       25.1880   21.4250   22.8280 O.3   1285  ANP1285    -0.1253
      8  N3B       25.7410   18.9260   22.0800 N.3   1285  ANP1285    -0.0162
      9  PA        28.7440   20.1980   22.5440 P.3   1285  ANP1285     0.3735
     10  O1A       30.0730   20.3220   21.6640 O.3   1285  ANP1285    -0.1443
     11  O3A       27.5670   21.0620   21.8410 O.3   1285  ANP1285    -0.2175
     12  O5'       28.9480   20.9020   23.9820 O.3   1285  ANP1285    -0.2938
     13  C5'       27.8490   21.1830   24.8450 C.3   1285  ANP1285     0.1830
     14  C4'       28.1860   22.5130   25.4890 C.3   1285  ANP1285     0.1822
     15  O4'       27.7250   23.6110   24.6880 O.3   1285  ANP1285    -0.3135
     16  C3'       27.5340   22.6980   26.8410 C.3   1285  ANP1285     0.2184
     17  O3'       28.3220   22.1380   27.8800 O.3   1285  ANP1285    -0.2174
     18  C2'       27.4150   24.2040   26.9590 C.3   1285  ANP1285     0.2570
     19  O2'       28.4050   24.7240   27.8250 O.3   1285  ANP1285    -0.2130
     20  C1'       27.5980   24.7510   25.5460 C.3   1285  ANP1285     0.3186
     21  N9        26.4530   25.6210   25.1480 N.pl3 1285  ANP1285    -0.1439
     22  C8        26.5280   26.9310   24.7770 C.3   1285  ANP1285     0.3377
     23  N7        25.2980   27.4670   24.4630 N.2   1285  ANP1285    -0.2095
     24  C5        24.4060   26.4810   24.6370 C.2   1285  ANP1285     0.2526
     25  C6        22.9410   26.2710   24.5140 C.2   1285  ANP1285     0.4393
     26  N6        22.1350   27.2910   24.1150 N.pl3 1285  ANP1285     0.2180
     27  N1        22.4190   25.0510   24.8090 N.2   1285  ANP1285     0.0021
     28  C2        23.1740   23.9980   25.2030 C.3   1285  ANP1285     0.5254
     29  N3        24.5120   24.0680   25.3410 N.2   1285  ANP1285    -0.0055
     30  C4        25.1610   25.3280   25.0720 C.2   1285  ANP1285     0.3518
@<TRIPOS>BOND
     1     2     1    2
     2     3     1    1
     3     6     5    2
     4     1     8    1
     5     1     4    1
     6    10     9    1
     7     5    11    1
     8     5     8    1
     9     5     7    1
    10    11     9    1
    11     9    12    1
    12    12    13    1
    13    26    25    1
    14    23    24    2
    15    23    22    1
    16    25    24    1
    17    25    27    2
    18    24    30    1
    19    15    14    1
    20    15    20    1
    21    22    21    1
    22    27    28    1
    23    13    14    1
    24    30    21    1
    25    30    29    2
    26    21    20    1
    27    28    29    1
    28    14    16    1
    29    20    18    1
    30    16    18    1
    31    16    17    1
    32    18    19    1
