@<TRIPOS>MOLECULE
1oj4_CDM_A_1.pdb
 33 34 0 0 0
SMALL
GASTEIGER

@<TRIPOS>ATOM
      1  N1        37.1200   16.6810   17.5200 N.am  1284  CDM1284    -0.1778
      2  C2        37.9110   15.8720   16.6250 C.1   1284  CDM1284     0.2756
      3  N3        37.4050   15.5430   15.3210 N.2   1284  CDM1284    -0.3024
      4  C4        36.1120   16.0290   14.9210 C.2   1284  CDM1284     0.2346
      5  C5        35.3130   16.8440   15.8190 C.2   1284  CDM1284     0.0687
      6  C6        35.8050   17.1590   17.1380 C.2   1284  CDM1284     0.0836
      7  O2        39.1700   15.4000   17.0230 O.2   1284  CDM1284    -0.1925
      8  N4        35.6260   15.6990   13.6130 N.pl3 1284  CDM1284    -0.0921
      9  C1'       37.5870   17.0500   18.8540 C.3   1284  CDM1284     0.2400
     10  C2'       38.5230   18.2220   18.6370 C.3   1284  CDM1284     0.2319
     11  O2'       39.5910   18.1080   19.5530 O.3   1284  CDM1284    -0.2157
     12  C3'       37.6690   19.4290   18.9390 C.3   1284  CDM1284     0.2158
     13  C4'       36.8010   18.9000   20.0690 C.3   1284  CDM1284     0.1799
     14  O4'       36.5190   17.5450   19.6780 O.3   1284  CDM1284    -0.3320
     15  O3'       38.4490   20.5650   19.2860 O.3   1284  CDM1284    -0.2175
     16  C5'       35.5110   19.6670   20.2840 C.3   1284  CDM1284     0.1813
     17  O5'       34.9970   19.9980   19.0080 O.3   1284  CDM1284    -0.3112
     18  PA        33.4850   20.5030   18.8120 P.3   1284  CDM1284     0.2189
     19  O1A       32.5880   19.7830   19.7950 O.3   1284  CDM1284    -0.4371
     20  O2A       33.4870   22.0100   18.7330 O.2   1284  CDM1284    -0.5170
     21  O3A       33.2100   19.9120   17.3530 O.3   1284  CDM1284    -0.2703
     22  PB        31.7340   19.8460   16.7300 P.3   1284  CDM1284     0.2189
     23  O1B       31.7080   20.8990   15.6410 O.2   1284  CDM1284    -0.5170
     24  O2B       30.7000   19.8390   17.8480 O.3   1284  CDM1284    -0.4371
     25  O3B       31.7680   18.3810   16.0290 O.3   1284  CDM1284    -0.3111
     26  C1M       31.2970   17.1940   16.6850 C.3   1284  CDM1284     0.1845
     27  C2M       30.2770   16.5070   15.7680 C.3   1284  CDM1284     0.2120
     28  O2M       30.8120   16.3950   14.4490 O.3   1284  CDM1284    -0.2177
     29  C3M       29.8860   15.1230   16.2680 C.3   1284  CDM1284     0.1873
     30  C4M       28.8670   14.4900   15.3180 C.3   1284  CDM1284     0.2148
     31  C5M       31.1270   14.2370   16.3360 C.3   1284  CDM1284     0.0384
     32  O3M       29.3250   15.2520   17.5760 O.3   1284  CDM1284    -0.2202
     33  O4M       27.5650   15.0620   15.4260 O.3   1284  CDM1284    -0.2176
@<TRIPOS>BOND
     1     8     4    1
     2    28    27    1
     3     4     3    2
     4     4     5    1
     5    30    33    1
     6    30    29    1
     7     3     2    2
     8    23    22    2
     9    27    29    1
    10    27    26    1
    11     5     6    2
    12    25    26    1
    13    25    22    1
    14    29    31    1
    15    29    32    1
    16     2     7    2
    17     2     1   am
    18    22    21    1
    19    22    24    1
    20     6     1    1
    21    21    18    1
    22     1     9    1
    23    10     9    1
    24    10    12    1
    25    10    11    1
    26    20    18    2
    27    18    17    1
    28    18    19    1
    29     9    14    1
    30    12    15    1
    31    12    13    1
    32    17    16    1
    33    14    13    1
    34    13    16    1
