@<TRIPOS>MOLECULE
1oj6_HEM_A_1.pdb
 43 50 0 0 0
SMALL
GASTEIGER

@<TRIPOS>ATOM
      1 FE         30.6030   47.7930   62.0820 Fe    1150  HEM1150     0.0000
      2  CHA       32.5680   50.5850   61.7990 C.2   1150  HEM1150     0.0000
      3  CHB       33.2820   46.0580   63.3490 C.2   1150  HEM1150     0.0000
      4  CHC       28.7850   44.9270   62.1340 C.2   1150  HEM1150     0.0000
      5  CHD       27.9200   49.5600   60.9110 C.2   1150  HEM1150     0.0000
      6  NA        32.5300   48.2200   62.4610 N.2   1150  HEM1150     0.0000
      7  C1A       33.1300   49.4580   62.3400 C.2   1150  HEM1150     0.0000
      8  C2A       34.4630   49.3790   62.8890 C.2   1150  HEM1150     0.0000
      9  C3A       34.6590   48.1320   63.3190 C.2   1150  HEM1150     0.0000
     10  C4A       33.4600   47.3850   63.0520 C.2   1150  HEM1150     0.0000
     11  CMA       35.9440   47.5660   63.9900 C.3   1150  HEM1150     0.0000
     12  CAA       35.4620   50.5490   62.9670 C.3   1150  HEM1150     0.0000
     13  CBA       35.3540   51.2110   64.3530 C.3   1150  HEM1150     0.0000
     14  CGA       34.1070   52.0800   64.4740 C.2   1150  HEM1150     0.0000
     15  O1A       33.8560   52.9280   63.5700 O.co2 1150  HEM1150     0.0000
     16  O2A       33.3600   51.9400   65.4900 O.co2 1150  HEM1150     0.0000
     17  NB        30.9700   45.8380   62.6330 N.ar  1150  HEM1150     0.0000
     18  C1B       32.1430   45.3410   63.1400 C.ar  1150  HEM1150     0.0000
     19  C2B       31.9780   43.9390   63.4150 C.ar  1150  HEM1150     0.0000
     20  C3B       30.7340   43.6150   63.0770 C.ar  1150  HEM1150     0.0000
     21  C4B       30.0800   44.8200   62.5830 C.ar  1150  HEM1150     0.0000
     22  CMB       33.0710   43.0110   64.0000 C.3   1150  HEM1150     0.0000
     23  CAB       30.0970   42.2140   63.1960 C.2   1150  HEM1150     0.0000
     24  CBB       29.5820   41.6210   62.1210 C.2   1150  HEM1150     0.0000
     25  NC        28.7330   47.3370   61.6350 N.2   1150  HEM1150     0.0000
     26  C1C       28.1810   46.0680   61.6830 C.2   1150  HEM1150     0.0000
     27  C2C       26.8400   46.1540   61.1540 C.2   1150  HEM1150     0.0000
     28  C3C       26.6120   47.4290   60.8240 C.2   1150  HEM1150     0.0000
     29  C4C       27.7890   48.1930   61.1140 C.2   1150  HEM1150     0.0000
     30  CMC       25.8590   44.9800   61.0230 C.3   1150  HEM1150     0.0000
     31  CAC       25.3270   48.0170   60.2330 C.2   1150  HEM1150     0.0000
     32  CBC       24.8350   47.5200   59.1020 C.2   1150  HEM1150     0.0000
     33  ND        30.2930   49.7660   61.4360 N.ar  1150  HEM1150     0.0000
     34  C1D       29.0800   50.2740   61.0250 C.ar  1150  HEM1150     0.0000
     35  C2D       29.2190   51.6760   60.7490 C.ar  1150  HEM1150     0.0000
     36  C3D       30.6680   51.9960   61.0430 C.ar  1150  HEM1150     0.0000
     37  C4D       31.2640   50.7520   61.4520 C.ar  1150  HEM1150     0.0000
     38  CMD       28.1060   52.6410   60.2780 C.3   1150  HEM1150     0.0000
     39  CAD       31.3790   53.3480   60.8840 C.3   1150  HEM1150     0.0000
     40  CBD       31.9130   53.3800   59.4480 C.3   1150  HEM1150     0.0000
     41  CGD       32.7770   54.5970   59.2370 C.2   1150  HEM1150     0.0000
     42  O1D       32.4480   55.4190   58.3460 O.co2 1150  HEM1150     0.0000
     43  O2D       33.7970   54.7380   59.9550 O.co2 1150  HEM1150     0.0000
@<TRIPOS>BOND
     1    42    41   ar
     2    32    31    2
     3    41    40    1
     4    41    43   ar
     5    40    39    1
     6    31    28    1
     7    38    35    1
     8    35    34   ar
     9    35    36   ar
    10    28    29    1
    11    28    27    2
    12    39    36    1
    13     5    34    2
    14     5    29    1
    15    30    27    1
    16    34    33   ar
    17    36    37   ar
    18    29    25    2
    19    27    26    1
    20    33    37   ar
    21    33     1    1
    22    37     2    2
    23    25    26    1
    24    25     1    1
    25    26     4    2
    26     2     7    1
    27     1     6    1
    28     1    17    1
    29    24    23    2
    30     4    21    1
    31     7     6    2
    32     7     8    1
    33     6    10    1
    34    21    17   ar
    35    21    20   ar
    36    17    18   ar
    37     8    12    1
    38     8     9    2
    39    12    13    1
    40    10     9    1
    41    10     3    2
    42    20    23    1
    43    20    19   ar
    44    18     3    1
    45    18    19   ar
    46     9    11    1
    47    19    22    1
    48    15    14   ar
    49    13    14    1
    50    14    16   ar
