@<TRIPOS>MOLECULE
1oj7_NZQ_A_1.pdb
 50 54 0 0 0
SMALL
GASTEIGER

@<TRIPOS>ATOM
      1  O1X       98.5300   -4.3850   24.3140 O.2   1388  NZQ1388    -0.2224
      2  P2B       99.4010   -3.9960   25.4620 P.3   1388  NZQ1388     0.5328
      3  O2X       99.6360   -2.4710   25.5100 O.3   1388  NZQ1388    -0.1145
      4  O3X      100.7270   -4.7650   25.3860 O.3   1388  NZQ1388    -0.1145
      5  O2B       98.6120   -4.4070   26.8040 O.3   1388  NZQ1388    -0.2630
      6  C2B       98.2840   -5.7490   27.0650 C.3   1388  NZQ1388     0.2314
      7  C3B       96.8040   -6.0540   26.8950 C.3   1388  NZQ1388     0.2157
      8  O3B       96.0230   -4.8770   26.9410 O.3   1388  NZQ1388    -0.2175
      9  C1B       98.5350   -6.0660   28.5300 C.3   1388  NZQ1388     0.3158
     10  N9A       99.9110   -6.5180   28.7740 N.pl3 1388  NZQ1388    -0.1439
     11  C8A      100.4740   -7.7040   28.3830 C.3   1388  NZQ1388     0.3377
     12  N7A      101.6790   -7.8120   28.9800 N.2   1388  NZQ1388    -0.2095
     13  C5A      101.8310   -6.7930   29.8550 C.2   1388  NZQ1388     0.2526
     14  C4A      100.7520   -5.9340   29.6840 C.2   1388  NZQ1388     0.3518
     15  N3A      100.6520   -4.7880   30.4140 N.2   1388  NZQ1388    -0.0055
     16  C2A      101.6660   -4.4450   31.2970 C.3   1388  NZQ1388     0.5254
     17  N1A      102.7950   -5.2370   31.4100 N.2   1388  NZQ1388     0.0021
     18  C6A      102.8410   -6.4600   30.7620 C.2   1388  NZQ1388     0.4393
     19  N6A      103.6930   -7.3880   31.1930 N.pl3 1388  NZQ1388     0.2180
     20  O4B       97.5980   -7.0520   28.9020 O.3   1388  NZQ1388    -0.3136
     21  C4B       96.4360   -6.9380   28.0880 C.3   1388  NZQ1388     0.1820
     22  C5B       95.9240   -8.3150   27.6950 C.3   1388  NZQ1388     0.1813
     23  O5B       96.8200   -8.9260   26.7940 O.3   1388  NZQ1388    -0.3112
     24  PA        96.3720  -10.2690   26.0440 P.3   1388  NZQ1388     0.2189
     25  O1A       97.5260  -10.7000   25.2170 O.2   1388  NZQ1388    -0.5170
     26  O2A       95.0610  -10.0700   25.2780 O.3   1388  NZQ1388    -0.4371
     27  O3        96.1040  -11.2440   27.3000 O.3   1388  NZQ1388    -0.2703
     28  PN        96.1620  -12.8410   27.3980 P.3   1388  NZQ1388     0.2189
     29  O1N       97.5610  -13.3160   27.5330 O.2   1388  NZQ1388    -0.5170
     30  O2N       95.2130  -13.2540   28.4760 O.3   1388  NZQ1388    -0.4371
     31  O5D       95.5960  -13.3810   25.9930 O.3   1388  NZQ1388    -0.3112
     32  C5D       94.1990  -13.4490   25.7700 C.3   1388  NZQ1388     0.1813
     33  C4D       93.9130  -14.0800   24.4110 C.3   1388  NZQ1388     0.1799
     34  O4D       94.3340  -15.4400   24.3800 O.3   1388  NZQ1388    -0.3326
     35  C1D       93.2890  -16.2500   23.8670 C.3   1388  NZQ1388     0.2278
     36  C2D       92.0150  -15.5200   24.3020 C.3   1388  NZQ1388     0.2310
     37  O2D       90.8640  -15.8970   23.5630 O.3   1388  NZQ1388    -0.2158
     38  C3D       92.4190  -14.0780   24.0910 C.3   1388  NZQ1388     0.2158
     39  O3D       92.2300  -13.6620   22.7490 O.3   1388  NZQ1388    -0.2175
     40  N1N       93.4280  -17.6630   24.2850 N.pl3 1388  NZQ1388    -0.2564
     41  C2N       94.4510  -18.3900   23.7130 C.2   1388  NZQ1388     0.0653
     42  C3N       94.5160  -19.7350   23.8500 C.2   1388  NZQ1388     0.0517
     43  C7N       95.5800  -20.5300   23.1340 C.2   1388  NZQ1388     0.2815
     44  N7N       96.4340  -19.9400   22.2930 N.am  1388  NZQ1388    -0.0839
     45  O7N       95.6850  -21.9030   23.4010 O.2   1388  NZQ1388    -0.2670
     46  C4N       93.4820  -20.4510   24.6450 C.3   1388  NZQ1388     0.0698
     47  C5N       92.9640  -19.5360   25.6920 C.3   1388  NZQ1388     0.2060
     48  O5N       91.9060  -20.1220   26.4150 O.3   1388  NZQ1388    -0.2181
     49  C6N       92.4780  -18.2760   25.0870 C.3   1388  NZQ1388     0.2606
     50  O6N       91.2340  -18.5230   24.4500 O.3   1388  NZQ1388    -0.1978
@<TRIPOS>BOND
     1    44    43   am
     2    39    38    1
     3    43    45    2
     4    43    42    1
     5    37    36    1
     6    41    42    2
     7    41    40    1
     8    42    46    1
     9    35    40    1
    10    35    36    1
    11    35    34    1
    12    38    36    1
    13    38    33    1
    14    40    49    1
    15     1     2    2
    16    34    33    1
    17    33    32    1
    18    50    49    1
    19    46    47    1
    20    49    47    1
    21    25    24    2
    22    26    24    1
    23     4     2    1
    24     2     3    1
    25     2     5    1
    26    47    48    1
    27    32    31    1
    28    31    28    1
    29    24    23    1
    30    24    27    1
    31    23    22    1
    32     5     6    1
    33     7     8    1
    34     7     6    1
    35     7    21    1
    36     6     9    1
    37    27    28    1
    38    28    29    2
    39    28    30    1
    40    22    21    1
    41    21    20    1
    42    11    10    1
    43    11    12    1
    44     9    10    1
    45     9    20    1
    46    10    14    1
    47    12    13    2
    48    14    13    1
    49    14    15    2
    50    13    18    1
    51    15    16    1
    52    18    19    1
    53    18    17    2
    54    16    17    1
