@<TRIPOS>MOLECULE
1oj9_1PB_A_1.pdb
 16 17 0 0 0
SMALL
GASTEIGER

@<TRIPOS>ATOM
      1  CP        53.5870  154.1470   24.8910 C.ar  1503  1PB1503    -0.0000
      2  CA        51.0070  159.1010   29.9650 C.3   1503  1PB1503     0.0520
      3  CB        50.8760  157.7400   29.7020 C.2   1503  1PB1503    -0.0256
      4  CC        51.9540  157.0270   28.8940 C.2   1503  1PB1503    -0.0256
      5  CD        51.7350  155.7290   28.4490 C.3   1503  1PB1503     0.0520
      6  CG        49.9620  159.8460   30.7690 C.ar  1503  1PB1503    -0.0178
      7  CH        48.6000  159.6190   30.5590 C.ar  1503  1PB1503    -0.0039
      8  CI        47.6450  160.3140   31.3030 C.ar  1503  1PB1503    -0.0003
      9  C1        52.3930  155.1910   27.1930 C.ar  1503  1PB1503    -0.0178
     10  CJ        48.0530  161.2390   32.2600 C.ar  1503  1PB1503    -0.0000
     11  CK        49.4140  161.4680   32.4670 C.ar  1503  1PB1503    -0.0003
     12  CL        50.3690  160.7770   31.7230 C.ar  1503  1PB1503    -0.0039
     13  CN        53.0210  156.0450   26.2800 C.ar  1503  1PB1503    -0.0039
     14  CO        53.6190  155.5200   25.1320 C.ar  1503  1PB1503    -0.0003
     15  CQ        52.9620  153.2970   25.8020 C.ar  1503  1PB1503    -0.0003
     16  CR        52.3640  153.8170   26.9490 C.ar  1503  1PB1503    -0.0039
@<TRIPOS>BOND
     1     1    14   ar
     2     1    15   ar
     3    14    13   ar
     4    15    16   ar
     5    13     9   ar
     6    16     9   ar
     7     9     5    1
     8     5     4    1
     9     4     3    2
    10     3     2    1
    11     2     6    1
    12     7     6   ar
    13     7     8   ar
    14     6    12   ar
    15     8    10   ar
    16    12    11   ar
    17    10    11   ar
