@<TRIPOS>MOLECULE
1oja_ISN_A_1.pdb
 11 12 0 0 0
SMALL
GASTEIGER

@<TRIPOS>ATOM
      1  C1        52.7230  154.0750   25.5650 C.ar  601  ISN601      0.0820
      2  C2        52.2290  154.8330   26.6200 C.ar  601  ISN601      0.0066
      3  C3        51.5570  154.1000   27.6050 C.ar  601  ISN601      0.0003
      4  C4        51.3970  152.7040   27.5340 C.ar  601  ISN601      0.0027
      5  C5        51.8960  151.9280   26.4830 C.ar  601  ISN601      0.0332
      6  N1        53.1310  152.1130   24.3690 N.2   601  ISN601     -0.3303
      7  C6        52.5650  152.6130   25.4860 C.ar  601  ISN601      0.1483
      8  C7        53.4730  154.4330   24.3640 C.2   601  ISN601      0.2911
      9  C10       53.6770  153.1270   23.6750 C.1   601  ISN601      0.2450
     10  O8        53.8630  155.5980   23.9850 O.2   601  ISN601     -0.2727
     11  O11       54.2980  152.9850   22.5690 O.2   601  ISN601     -0.2060
@<TRIPOS>BOND
     1    11     9    2
     2     9     8    1
     3     9     6    2
     4    10     8    1
     5     8     1    2
     6     6     7    2
     7     7     1   ar
     8     7     5   ar
     9     1     2   ar
    10     5     4   ar
    11     2     3   ar
    12     4     3   ar
