@<TRIPOS>MOLECULE
1ojc_LAZ_A_1.pdb
 13 13 0 0 0
SMALL
GASTEIGER

@<TRIPOS>ATOM
      1  O7        52.1680  151.3050   25.7230 O.2   1503  LAZ1503    -0.2684
      2  C7        52.6330  152.3900   25.3860 C.2   1503  LAZ1503     0.2649
      3  N8        53.3500  152.5050   24.1290 N.am  1503  LAZ1503    -0.1989
      4  C9        53.9470  151.3410   23.4960 C.3   1503  LAZ1503     0.1509
      5  C10       54.4510  151.7230   22.1120 C.3   1503  LAZ1503     0.2054
      6  O10       55.1850  152.9300   22.2490 O.3   1503  LAZ1503    -0.2184
      7  C6        52.4980  153.5980   26.2760 C.ar  1503  LAZ1503     0.0551
      8  C5        52.0920  153.4540   27.5970 C.ar  1503  LAZ1503     0.0054
      9  C4        51.9830  154.5670   28.4290 C.ar  1503  LAZ1503     0.0115
     10  C3        52.2740  155.8370   27.9490 C.ar  1503  LAZ1503     0.0577
     11 CL3        52.1300  157.2510   29.0320 Cl    1503  LAZ1503    -0.0822
     12  C2        52.6780  155.9860   26.6230 C.ar  1503  LAZ1503     0.0115
     13  C1        52.7900  154.8720   25.7930 C.ar  1503  LAZ1503     0.0054
@<TRIPOS>BOND
     1     5     6    1
     2     5     4    1
     3     4     3    1
     4     3     2   am
     5     2     1    2
     6     2     7    1
     7    13     7   ar
     8    13    12   ar
     9     7     8   ar
    10    12    10   ar
    11     8     9   ar
    12    10     9   ar
    13    10    11    1
