@<TRIPOS>MOLECULE
1ojd_LDA_A_1.pdb
 16 15 0 0 0
SMALL
GASTEIGER

@<TRIPOS>ATOM
      1  N1         5.6990   14.7690    9.9400 N.4   601  LDA601      0.4277
      2  O1         6.5990   15.6290   10.1130 O.3   601  LDA601     -0.2898
      3  CM1        4.3480   15.3140   10.1410 C.3   601  LDA601     -0.0454
      4  CM2        5.7500   14.3240    8.5530 C.3   601  LDA601     -0.0454
      5  C1         5.9610   13.6440   10.8260 C.3   601  LDA601     -0.0278
      6  C2         5.3360   13.9660   12.1730 C.3   601  LDA601     -0.0173
      7  C3         5.7860   12.9760   13.2000 C.3   601  LDA601     -0.0020
      8  C4         5.6050   13.6480   14.5320 C.3   601  LDA601     -0.0001
      9  C5         5.6470   12.5740   15.5880 C.3   601  LDA601     -0.0000
     10  C6         4.9930   13.1350   16.8290 C.3   601  LDA601     -0.0000
     11  C7         5.8520   12.7750   18.0160 C.3   601  LDA601      0.0000
     12  C8         5.0430   12.4970   19.2660 C.3   601  LDA601      0.0000
     13  C9         4.8270   11.0000   19.4420 C.3   601  LDA601      0.0000
     14  C10        4.1180   10.7650   20.7650 C.3   601  LDA601      0.0000
     15  C11        4.9180   11.5220   21.8000 C.3   601  LDA601      0.0000
     16  C12        5.7870   10.4930   22.4850 C.3   601  LDA601      0.0000
@<TRIPOS>BOND
     1     4     1    1
     2     1     2    1
     3     1     3    1
     4     1     5    1
     5     5     6    1
     6     6     7    1
     7     7     8    1
     8     8     9    1
     9     9    10    1
    10    10    11    1
    11    11    12    1
    12    12    13    1
    13    13    14    1
    14    14    15    1
    15    15    16    1
