@<TRIPOS>MOLECULE
1ojj_GLC_A_1.pdb
 12 12 0 0 0
SMALL
GASTEIGER

@<TRIPOS>ATOM
      1  C1        14.1340   -4.8420    9.9540 C.3   1401  GLC1401     0.3024
      2  C2        12.8820   -4.7560   10.8210 C.3   1401  GLC1401     0.2434
      3  C3        12.4350   -3.3070   10.9430 C.3   1401  GLC1401     0.2199
      4  C4        13.5730   -2.4170   11.4510 C.3   1401  GLC1401     0.2144
      5  C5        14.7420   -2.5680   10.4990 C.3   1401  GLC1401     0.1836
      6  C6        15.9590   -1.7110   10.8480 C.3   1401  GLC1401     0.2142
      7  O1        13.8250   -4.6490    8.5680 O.3   1401  GLC1401    -0.1869
      8  O2        11.9650   -5.6200   10.1660 O.3   1401  GLC1401    -0.2148
      9  O3        11.3030   -3.2820   11.7900 O.3   1401  GLC1401    -0.2174
     10  O4        13.0770   -1.0840   11.3740 O.3   1401  GLC1401    -0.2176
     11  O5        15.1350   -3.9480   10.4090 O.3   1401  GLC1401    -0.3236
     12  O6        16.4580   -2.0150   12.1400 O.3   1401  GLC1401    -0.2176
@<TRIPOS>BOND
     1     7     1    1
     2     1    11    1
     3     1     2    1
     4     8     2    1
     5    11     5    1
     6     5     6    1
     7     5     4    1
     8     2     3    1
     9     6    12    1
    10     3     4    1
    11     3     9    1
    12    10     4    1
