@<TRIPOS>MOLECULE
1ojj_BGC_A_1.pdb
 12 12 0 0 0
SMALL
GASTEIGER

@<TRIPOS>ATOM
      1  C2        16.1100  -14.3970   17.7140 C.3   1400  BGC1400     0.2434
      2  C3        15.3980  -13.2800   16.9530 C.3   1400  BGC1400     0.2199
      3  C4        16.3240  -12.5470   15.9910 C.3   1400  BGC1400     0.2144
      4  C5        17.2740  -13.4790   15.2370 C.3   1400  BGC1400     0.1836
      5  C6        18.4170  -12.6810   14.6160 C.3   1400  BGC1400     0.2142
      6  C1        16.9180  -15.2570   16.7590 C.3   1400  BGC1400     0.3024
      7  O1        17.6090  -16.2710   17.4560 O.3   1400  BGC1400    -0.1869
      8  O2        15.1450  -15.2160   18.3360 O.3   1400  BGC1400    -0.2148
      9  O3        14.8480  -12.3410   17.8490 O.3   1400  BGC1400    -0.2174
     10  O4        15.5450  -11.8320   15.0420 O.3   1400  BGC1400    -0.2176
     11  O5        17.8540  -14.4370   16.1070 O.3   1400  BGC1400    -0.3236
     12  O6        19.1860  -13.5090   13.7470 O.3   1400  BGC1400    -0.2176
@<TRIPOS>BOND
     1    12     5    1
     2     5     4    1
     3    10     3    1
     4     4     3    1
     5     4    11    1
     6     3     2    1
     7    11     6    1
     8     6     7    1
     9     6     1    1
    10     2     1    1
    11     2     9    1
    12     1     8    1
