@<TRIPOS>MOLECULE
1ojj_GAL_A_1.pdb
 11 11 0 0 0
SMALL
GASTEIGER

@<TRIPOS>ATOM
      1  C1        13.2890   -0.2740   12.5260 C.3   1402  GAL1402     0.1777
      2  C2        13.2000    1.1820   12.1520 C.3   1402  GAL1402     0.2141
      3  C3        13.2790    2.0670   13.3740 C.3   1402  GAL1402     0.2173
      4  C4        12.2730    1.6150   14.4130 C.3   1402  GAL1402     0.2142
      5  C5        12.4370    0.1280   14.6750 C.3   1402  GAL1402     0.1810
      6  C6        11.4650   -0.3930   15.7120 C.3   1402  GAL1402     0.2141
      7  O2        14.2700    1.5030   11.2630 O.3   1402  GAL1402    -0.2176
      8  O3        13.0250    3.4050   12.9390 O.3   1402  GAL1402    -0.2175
      9  O4        10.9300    1.8710   14.0310 O.3   1402  GAL1402    -0.2176
     10  O5        12.2650   -0.5870   13.4570 O.3   1402  GAL1402    -0.3481
     11  O6        11.7500   -1.7300   16.1410 O.3   1402  GAL1402    -0.2176
@<TRIPOS>BOND
     1     7     2    1
     2     2     1    1
     3     2     3    1
     4     1    10    1
     5     8     3    1
     6     3     4    1
     7    10     5    1
     8     9     4    1
     9     4     5    1
    10     5     6    1
    11     6    11    1
