@<TRIPOS>MOLECULE
1ojk_GLC_A_1.pdb
 12 12 0 0 0
SMALL
GASTEIGER

@<TRIPOS>ATOM
      1  C1        14.1620   -4.7620    9.9740 C.3   1400  GLC1400     0.3024
      2  C2        12.9000   -4.6750   10.8210 C.3   1400  GLC1400     0.2434
      3  C3        12.4320   -3.2200   10.9430 C.3   1400  GLC1400     0.2199
      4  C4        13.5800   -2.3270   11.4470 C.3   1400  GLC1400     0.2144
      5  C5        14.7570   -2.4800   10.4950 C.3   1400  GLC1400     0.1836
      6  C6        15.9840   -1.6570   10.8640 C.3   1400  GLC1400     0.2142
      7  O1        13.8600   -4.5200    8.6020 O.3   1400  GLC1400    -0.1869
      8  O2        11.9480   -5.4900   10.1610 O.3   1400  GLC1400    -0.2148
      9  O3        11.3110   -3.1490   11.8130 O.3   1400  GLC1400    -0.2174
     10  O4        13.1040   -0.9780   11.3850 O.3   1400  GLC1400    -0.2176
     11  O5        15.1590   -3.8460   10.4080 O.3   1400  GLC1400    -0.3236
     12  O6        16.4550   -2.0410   12.1360 O.3   1400  GLC1400    -0.2176
@<TRIPOS>BOND
     1     7     1    1
     2     1    11    1
     3     1     2    1
     4     8     2    1
     5    11     5    1
     6     5     6    1
     7     5     4    1
     8     2     3    1
     9     6    12    1
    10     3     4    1
    11     3     9    1
    12    10     4    1
