@<TRIPOS>MOLECULE
1ojk_BGC_A_1.pdb
 11 11 0 0 0
SMALL
GASTEIGER

@<TRIPOS>ATOM
      1  C2        13.2050    1.2560   12.2040 C.3   1401  BGC1401     0.2141
      2  C3        13.2170    2.1840   13.4030 C.3   1401  BGC1401     0.2173
      3  C4        12.2140    1.7290   14.4500 C.3   1401  BGC1401     0.2142
      4  C5        12.3400    0.2250   14.7160 C.3   1401  BGC1401     0.1810
      5  C6        11.2640   -0.3050   15.6510 C.3   1401  BGC1401     0.2141
      6  C1        13.2590   -0.2130   12.5850 C.3   1401  BGC1401     0.1777
      7  O2        14.2580    1.6020   11.3120 O.3   1401  BGC1401    -0.2176
      8  O3        12.9240    3.5070   12.9870 O.3   1401  BGC1401    -0.2175
      9  O4        12.4010    2.4860   15.6500 O.3   1401  BGC1401    -0.2176
     10  O5        12.2110   -0.4780   13.4850 O.3   1401  BGC1401    -0.3481
     11  O6        11.4880   -1.6520   16.0460 O.3   1401  BGC1401    -0.2176
@<TRIPOS>BOND
     1     7     1    1
     2     1     6    1
     3     1     2    1
     4     6    10    1
     5     8     2    1
     6     2     3    1
     7    10     4    1
     8     3     4    1
     9     3     9    1
    10     4     5    1
    11     5    11    1
