@<TRIPOS>MOLECULE
1ojl_ATP_E_1.pdb
 31 33 0 0 0
SMALL
GASTEIGER

@<TRIPOS>ATOM
      1  PG       -38.2350  -36.7050  -17.3110 P.3   1442  ATP1442     0.5373
      2  O1G      -38.1390  -35.3720  -16.6670 O.3   1442  ATP1442    -0.1143
      3  O2G      -39.6720  -36.9040  -17.8060 O.3   1442  ATP1442    -0.1143
      4  O3G      -37.2840  -36.8050  -18.5280 O.2   1442  ATP1442    -0.2221
      5  PB       -37.0910  -39.1640  -16.4790 P.3   1442  ATP1442     0.2277
      6  O1B      -37.2600  -40.0190  -15.2840 O.3   1442  ATP1442    -0.4368
      7  O2B      -37.6490  -39.8830  -17.7250 O.2   1442  ATP1442    -0.5168
      8  O3B      -37.8540  -37.7800  -16.1830 O.3   1442  ATP1442    -0.2258
      9  PA       -34.7970  -37.4320  -16.5940 P.3   1442  ATP1442     0.2189
     10  O1A      -35.1450  -36.6100  -17.7590 O.2   1442  ATP1442    -0.5170
     11  O2A      -35.0790  -36.7920  -15.2220 O.3   1442  ATP1442    -0.4371
     12  O3A      -35.5070  -38.8770  -16.6810 O.3   1442  ATP1442    -0.2700
     13  O5'      -33.2160  -37.6720  -16.7690 O.3   1442  ATP1442    -0.3112
     14  C5'      -32.7250  -38.7900  -16.1050 C.3   1442  ATP1442     0.1813
     15  C4'      -31.2550  -38.7490  -15.8200 C.3   1442  ATP1442     0.1821
     16  O4'      -30.9850  -37.8020  -14.8160 O.3   1442  ATP1442    -0.3135
     17  C3'      -31.1130  -40.1170  -15.1940 C.3   1442  ATP1442     0.2184
     18  O3'      -30.4760  -41.0210  -16.0670 O.3   1442  ATP1442    -0.2174
     19  C2'      -30.3970  -39.9220  -13.8800 C.3   1442  ATP1442     0.2570
     20  O2'      -29.0660  -40.3490  -14.0190 O.3   1442  ATP1442    -0.2130
     21  C1'      -30.4610  -38.4150  -13.6460 C.3   1442  ATP1442     0.3186
     22  N9       -31.3020  -38.0850  -12.4760 N.pl3 1442  ATP1442    -0.1439
     23  C8       -32.5770  -37.5820  -12.4860 C.3   1442  ATP1442     0.3377
     24  N7       -32.9800  -37.4080  -11.2010 N.2   1442  ATP1442    -0.2095
     25  C5       -31.9830  -37.7900  -10.3720 C.2   1442  ATP1442     0.2526
     26  C6       -31.8600  -37.8210   -8.9870 C.2   1442  ATP1442     0.4393
     27  N6       -32.8290  -37.3630   -8.1950 N.pl3 1442  ATP1442     0.2180
     28  N1       -30.6830  -38.2760   -8.4320 N.2   1442  ATP1442     0.0021
     29  C2       -29.6400  -38.6910   -9.2340 C.3   1442  ATP1442     0.5254
     30  N3       -29.7740  -38.6550  -10.6020 N.2   1442  ATP1442    -0.0055
     31  C4       -30.9240  -38.2140  -11.1640 C.2   1442  ATP1442     0.3518
@<TRIPOS>BOND
     1     4     1    2
     2     3     1    1
     3    10     9    2
     4     7     5    2
     5     1     2    1
     6     1     8    1
     7    13     9    1
     8    13    14    1
     9    12     9    1
    10    12     5    1
    11     9    11    1
    12     5     8    1
    13     5     6    1
    14    14    15    1
    15    18    17    1
    16    15    17    1
    17    15    16    1
    18    17    19    1
    19    16    21    1
    20    20    19    1
    21    19    21    1
    22    21    22    1
    23    23    22    1
    24    23    24    1
    25    22    31    1
    26    24    25    2
    27    31    30    2
    28    31    25    1
    29    30    29    1
    30    25    26    1
    31    29    28    1
    32    26    28    2
    33    26    27    1
