@<TRIPOS>MOLECULE
1ojm_GCD_A_1.pdb
 11 11 0 0 0
SMALL
GASTEIGER

@<TRIPOS>ATOM
      1  C1         5.1660   41.4690   29.9610 C.3   900  GCD900      0.2413
      2  C2         3.8990   41.5120   30.7430 C.3   900  GCD900      0.2297
      3  O2         4.0080   40.5870   31.8800 O.3   900  GCD900     -0.2160
      4  C3         2.7630   40.9880   29.7800 C.3   900  GCD900      0.2111
      5  O3         1.5640   41.1610   30.5310 O.3   900  GCD900     -0.2153
      6  C4         2.7910   41.3950   28.2920 C.2   900  GCD900      0.0526
      7  C5         3.8530   42.1200   27.8390 C.2   900  GCD900      0.2164
      8  O5         4.9760   42.4550   28.8070 O.2   900  GCD900     -0.4664
      9  C6         4.0230   42.5970   26.4210 C.2   900  GCD900      0.4208
     10  O6A        3.2000   42.1430   25.5430 O.co2 900  GCD900     -0.2371
     11  O6B        5.0040   43.4120   26.3130 O.co2 900  GCD900     -0.2371
@<TRIPOS>BOND
     1    10     9   ar
     2    11     9   ar
     3     9     7    1
     4     7     6    2
     5     7     8    1
     6     6     4    1
     7     8     1    1
     8     4     5    1
     9     4     2    1
    10     1     2    1
    11     2     3    1
