@<TRIPOS>MOLECULE
1ojn_GCD_A_1.pdb
 11 11 0 0 0
SMALL
GASTEIGER

@<TRIPOS>ATOM
      1  C1         4.9970   41.6000   31.2980 C.3   900  GCD900      0.2413
      2  C2         3.7200   41.7170   32.0640 C.3   900  GCD900      0.2297
      3  O2         3.7900   40.8200   33.2170 O.3   900  GCD900     -0.2160
      4  C3         2.5700   41.1930   31.1030 C.3   900  GCD900      0.2111
      5  O3         1.3800   41.4410   31.8860 O.3   900  GCD900     -0.2153
      6  C4         2.5870   41.5650   29.5960 C.2   900  GCD900      0.0526
      7  C5         3.6670   42.2730   29.1270 C.2   900  GCD900      0.2164
      8  O5         4.8070   42.6060   30.1160 O.2   900  GCD900     -0.4664
      9  C6         3.8510   42.7230   27.6920 C.2   900  GCD900      0.4208
     10  O6B        4.9350   43.3870   27.5390 O.co2 900  GCD900     -0.2371
     11  O6A        2.9320   42.4100   26.8420 O.co2 900  GCD900     -0.2371
@<TRIPOS>BOND
     1    11     9   ar
     2    10     9   ar
     3     9     7    1
     4     7     6    2
     5     7     8    1
     6     6     4    1
     7     8     1    1
     8     4     5    1
     9     4     2    1
    10     1     2    1
    11     2     3    1
