@<TRIPOS>MOLECULE
1ojn_NG6_A_1.pdb
 19 19 0 0 0
SMALL
GASTEIGER

@<TRIPOS>ATOM
      1  C1         9.6440   40.8970   31.8310 C.3   901  NG6901      0.2917
      2  C2         8.1990   40.9950   32.3920 C.3   901  NG6901      0.1871
      3  C3         7.4120   42.0170   31.5340 C.3   901  NG6901      0.2095
      4  C4         8.1160   43.4510   31.5780 C.3   901  NG6901      0.2135
      5  C5         9.5490   43.3140   31.0320 C.3   901  NG6901      0.1826
      6  C6        10.2940   44.6530   31.0740 C.3   901  NG6901      0.2046
      7  C7         6.8670   39.1310   33.5660 C.2   901  NG6901      0.2421
      8  C8         6.1690   37.8110   33.3640 C.3   901  NG6901      0.0964
      9  N          7.4660   39.6440   32.3530 N.am  901  NG6901     -0.1991
     10  O1        10.3920   39.9790   32.5990 O.3   901  NG6901     -0.1879
     11  O3         6.0710   42.0610   32.0690 O.3   901  NG6901     -0.2183
     12  O4         8.0150   43.8620   32.9030 O.3   901  NG6901     -0.2176
     13  O5        10.3090   42.2650   31.8490 O.3   901  NG6901     -0.3243
     14  O6        10.1310   45.6030   32.2830 O.3   901  NG6901     -0.2384
     15  O7         6.9140   39.7310   34.6850 O.2   901  NG6901     -0.2733
     16  S          9.6850   46.9270   32.7510 S.3   901  NG6901     -0.0001
     17  O1S        8.2600   47.0730   32.4610 O.2   901  NG6901     -0.3452
     18  O2S       10.4540   47.9920   32.0500 O.2   901  NG6901     -0.3452
     19  O3S        9.9000   47.0410   34.2150 O.3   901  NG6901     -0.2682
@<TRIPOS>BOND
     1     5     6    1
     2     5     4    1
     3     5    13    1
     4     6    14    1
     5     3     4    1
     6     3    11    1
     7     3     2    1
     8     4    12    1
     9     1    13    1
    10     1     2    1
    11     1    10    1
    12    18    16    2
    13    14    16    1
    14     9     2    1
    15     9     7   am
    16    17    16    2
    17    16    19    1
    18     8     7    1
    19     7    15    2
