@<TRIPOS>MOLECULE
1ojo_ASG_A_1.pdb
 19 19 0 0 0
SMALL
GASTEIGER

@<TRIPOS>ATOM
      1  C1         9.6200   40.6250   31.6900 C.3   901  ASG901      0.2917
      2  C2         8.1620   40.7150   32.1720 C.3   901  ASG901      0.1871
      3  C3         7.4010   41.6910   31.2730 C.3   901  ASG901      0.2086
      4  C4         8.0660   43.1380   31.2680 C.3   901  ASG901      0.2048
      5  C5         9.5230   43.0110   30.8090 C.3   901  ASG901      0.1826
      6  C6        10.2080   44.3710   30.8310 C.3   901  ASG901      0.2142
      7  C7         6.8510   38.8840   33.3230 C.2   901  ASG901      0.2421
      8  C8         6.1650   37.5620   33.0960 C.3   901  ASG901      0.0964
      9  O1        10.3270   39.7330   32.5280 O.3   901  ASG901     -0.1879
     10  N          7.4460   39.3800   32.1270 N.am  901  ASG901     -0.1991
     11  O3         6.0500   41.7050   31.7600 O.3   901  ASG901     -0.2183
     12  O4         7.8800   43.6700   32.5410 O.3   901  ASG901     -0.2384
     13  O5        10.2570   42.0060   31.7190 O.3   901  ASG901     -0.3243
     14  O6        11.6390   44.2670   30.5890 O.3   901  ASG901     -0.2176
     15  O7         6.8760   39.4710   34.4440 O.2   901  ASG901     -0.2733
     16  OSA        7.6850   45.9580   31.7750 O.2   901  ASG901     -0.3452
     17  OSB        7.1550   45.4240   34.0710 O.3   901  ASG901     -0.2682
     18  OSC        5.6880   44.6960   32.3010 O.2   901  ASG901     -0.3452
     19  S          7.1050   44.9400   32.6700 S.3   901  ASG901     -0.0001
@<TRIPOS>BOND
     1    14     6    1
     2     5     6    1
     3     5     4    1
     4     5    13    1
     5     4     3    1
     6     4    12    1
     7     3    11    1
     8     3     2    1
     9     1    13    1
    10     1     2    1
    11     1     9    1
    12    16    19    2
    13    10     2    1
    14    10     7   am
    15    18    19    2
    16    12    19    1
    17    19    17    1
    18     8     7    1
    19     7    15    2
