@<TRIPOS>MOLECULE
1ojo_GCD_A_1.pdb
 11 11 0 0 0
SMALL
GASTEIGER

@<TRIPOS>ATOM
      1  C1         4.9800   41.2440   31.0040 C.3   900  GCD900      0.2413
      2  C2         3.7240   41.3530   31.7940 C.3   900  GCD900      0.2297
      3  O2         3.8140   40.4420   32.9400 O.3   900  GCD900     -0.2160
      4  C3         2.5580   40.8350   30.8610 C.3   900  GCD900      0.2111
      5  O3         1.4050   41.0970   31.6780 O.3   900  GCD900     -0.2153
      6  C4         2.5500   41.2060   29.3540 C.2   900  GCD900      0.0526
      7  C5         3.6280   41.9110   28.8710 C.2   900  GCD900      0.2164
      8  O5         4.7760   42.2500   29.8370 O.2   900  GCD900     -0.4664
      9  C6         3.8050   42.3630   27.4480 C.2   900  GCD900      0.4208
     10  O6B        3.0900   41.7970   26.5520 O.co2 900  GCD900     -0.2371
     11  O6A        4.6890   43.2780   27.3650 O.co2 900  GCD900     -0.2371
@<TRIPOS>BOND
     1    10     9   ar
     2    11     9   ar
     3     9     7    1
     4     7     6    2
     5     7     8    1
     6     6     4    1
     7     8     1    1
     8     4     5    1
     9     4     2    1
    10     1     2    1
    11     2     3    1
