@<TRIPOS>MOLECULE
1ojp_NG6_A_1.pdb
 19 19 0 0 0
SMALL
GASTEIGER

@<TRIPOS>ATOM
      1  C1        74.0140   62.7730   31.3050 C.3   901  NG6901      0.2917
      2  C2        75.4400   62.6840   31.9130 C.3   901  NG6901      0.1871
      3  C3        76.2560   61.6330   31.1060 C.3   901  NG6901      0.2095
      4  C4        75.5510   60.1990   31.1660 C.3   901  NG6901      0.2135
      5  C5        74.1330   60.3230   30.5810 C.3   901  NG6901      0.1826
      6  C6        73.3830   58.9840   30.6300 C.3   901  NG6901      0.2046
      7  C7        76.7990   64.5210   33.0760 C.2   901  NG6901      0.2421
      8  C8        77.4920   65.8440   32.8760 C.3   901  NG6901      0.0964
      9  N         76.1710   64.0300   31.8670 N.am  901  NG6901     -0.1991
     10  O1        73.2410   63.7160   32.0130 O.3   901  NG6901     -0.1879
     11  O3        77.5890   61.5940   31.6710 O.3   901  NG6901     -0.2183
     12  O4        75.6110   59.8080   32.5090 O.3   901  NG6901     -0.2176
     13  O5        73.3450   61.4070   31.3400 O.3   901  NG6901     -0.3243
     14  O6        73.5400   58.0210   31.8240 O.3   901  NG6901     -0.2384
     15  O7        76.7760   63.8960   34.1910 O.2   901  NG6901     -0.2733
     16  S         73.9900   56.6940   32.2880 S.3   901  NG6901     -0.0001
     17  O2S       75.4420   56.5500   32.0120 O.2   901  NG6901     -0.3452
     18  O3S       73.2410   55.6370   31.5680 O.2   901  NG6901     -0.3452
     19  O1S       73.7480   56.5730   33.7490 O.3   901  NG6901     -0.2682
@<TRIPOS>BOND
     1     5     6    1
     2     5     4    1
     3     5    13    1
     4     6    14    1
     5     3     4    1
     6     3    11    1
     7     3     2    1
     8     4    12    1
     9     1    13    1
    10     1     2    1
    11     1    10    1
    12    18    16    2
    13    14    16    1
    14     9     2    1
    15     9     7   am
    16    17    16    2
    17    16    19    1
    18     8     7    1
    19     7    15    2
