@<TRIPOS>MOLECULE
1ojp_GCD_A_1.pdb
 11 11 0 0 0
SMALL
GASTEIGER

@<TRIPOS>ATOM
      1  C1        78.6780   62.0610   30.9120 C.3   900  GCD900      0.2413
      2  C2        79.9500   61.9480   31.6910 C.3   900  GCD900      0.2297
      3  O2        79.8630   62.8380   32.8540 O.3   900  GCD900     -0.2160
      4  C3        81.1120   62.4800   30.7390 C.3   900  GCD900      0.2111
      5  O3        82.3010   62.2400   31.5320 O.3   900  GCD900     -0.2153
      6  C4        81.1100   62.1030   29.2270 C.2   900  GCD900      0.0526
      7  C5        80.0300   61.3920   28.7510 C.2   900  GCD900      0.2164
      8  O5        78.8820   61.0630   29.7290 O.2   900  GCD900     -0.4664
      9  C6        79.8420   60.9180   27.3200 C.2   900  GCD900      0.4208
     10  O6B       80.7650   61.1900   26.4540 O.co2 900  GCD900     -0.2371
     11  O6A       78.7310   60.2900   27.1850 O.co2 900  GCD900     -0.2371
@<TRIPOS>BOND
     1    10     9   ar
     2    11     9   ar
     3     9     7    1
     4     7     6    2
     5     7     8    1
     6     6     4    1
     7     8     1    1
     8     4     5    1
     9     4     2    1
    10     1     2    1
    11     2     3    1
