@<TRIPOS>MOLECULE
1okc_LDM_A_1.pdb
 18 17 0 0 0
SMALL
GASTEIGER

@<TRIPOS>ATOM
      1  N1         2.6090   28.0070    9.3320 N.4   903  LDM903      0.4277
      2  O1         2.3930   27.6320    8.1770 O.3   903  LDM903     -0.2898
      3  C1         3.5670   27.1040   10.0920 C.3   903  LDM903     -0.0260
      4  C3         3.4560   25.1260   11.7950 C.3   903  LDM903      0.1132
      5  C4         3.5240   23.0320   13.0370 C.2   903  LDM903      0.2414
      6  C5         3.3540   21.5040   13.0010 C.3   903  LDM903      0.0868
      7  C7         1.8530   19.7070   13.9820 C.3   903  LDM903      0.0005
      8  C8         1.0660   19.2210   15.2690 C.3   903  LDM903      0.0000
      9  C10        0.3090   17.0690   16.3900 C.3   903  LDM903      0.0000
     10  C11       -1.0000   16.4910   15.8320 C.3   903  LDM903      0.0000
     11  C12       -1.8150   15.8480   16.9520 C.3   903  LDM903      0.0000
     12  CM1        3.2000   29.3300    9.2380 C.3   903  LDM903     -0.0454
     13  CM2        1.4490   28.3160   10.1270 C.3   903  LDM903     -0.0454
     14  C2         3.1560   25.5870   10.3280 C.3   903  LDM903      0.0062
     15  C9         1.0460   17.6890   15.1860 C.3   903  LDM903      0.0000
     16  N2         3.3170   23.6810   11.8760 N.am  903  LDM903     -0.2055
     17  O2         3.8420   23.6100   14.0980 O.2   903  LDM903     -0.2733
     18  C6         2.5710   21.0010   14.2270 C.3   903  LDM903      0.0096
@<TRIPOS>BOND
     1     2     1    1
     2    12     1    1
     3     1     3    1
     4     1    13    1
     5     3    14    1
     6    14     4    1
     7     4    16    1
     8    16     5   am
     9     6     5    1
    10     6    18    1
    11     5    17    2
    12     7    18    1
    13     7     8    1
    14    15     8    1
    15    15     9    1
    16    10     9    1
    17    10    11    1
