@<TRIPOS>MOLECULE
1oke_FUL_A_1.pdb
 10 10 0 0 0
SMALL
GASTEIGER

@<TRIPOS>ATOM
      1  C1       -27.5000   68.7640   70.5810 C.3   1398  FUL1398     0.1776
      2  C2       -26.5650   69.6020   71.4450 C.3   1398  FUL1398     0.2141
      3  C3       -27.2550   69.9250   72.7560 C.3   1398  FUL1398     0.2172
      4  C4       -27.5320   68.6080   73.4640 C.3   1398  FUL1398     0.2116
      5  C5       -28.4220   67.7150   72.5780 C.3   1398  FUL1398     0.1483
      6  C6       -28.5850   66.3180   73.1460 C.3   1398  FUL1398     0.0349
      7  O2       -26.2220   70.7940   70.7680 O.3   1398  FUL1398    -0.2176
      8  O3       -26.4180   70.7540   73.5590 O.3   1398  FUL1398    -0.2175
      9  O4       -26.2960   67.9620   73.7210 O.3   1398  FUL1398    -0.2177
     10  O5       -27.8500   67.5560   71.2650 O.3   1398  FUL1398    -0.3508
@<TRIPOS>BOND
     1     1    10    1
     2     1     2    1
     3     7     2    1
     4    10     5    1
     5     2     3    1
     6     5     6    1
     7     5     4    1
     8     3     4    1
     9     3     8    1
    10     4     9    1
