@<TRIPOS>MOLECULE
1oke_BOG_A_1.pdb
 20 20 0 0 0
SMALL
GASTEIGER

@<TRIPOS>ATOM
      1  C1       -14.2580   79.9530   45.3020 C.3   1400  BOG1400     0.2695
      2  O1       -13.0740   79.3440   45.8140 O.3   1400  BOG1400    -0.3286
      3  C2       -15.1530   78.7530   44.8660 C.3   1400  BOG1400     0.2406
      4  O2       -14.5080   78.0560   43.7980 O.3   1400  BOG1400    -0.2149
      5  C3       -16.5830   79.2170   44.4340 C.3   1400  BOG1400     0.2198
      6  O3       -17.4930   78.1210   44.4100 O.3   1400  BOG1400    -0.2174
      7  C4       -17.1660   80.2670   45.4110 C.3   1400  BOG1400     0.2144
      8  O4       -18.3330   80.8550   44.8440 O.3   1400  BOG1400    -0.2176
      9  C5       -16.1440   81.3610   45.7370 C.3   1400  BOG1400     0.1835
     10  O5       -14.9530   80.7590   46.2810 O.3   1400  BOG1400    -0.3256
     11  C6       -16.6550   82.3310   46.7840 C.3   1400  BOG1400     0.2142
     12  O6       -18.0170   82.6940   46.5270 O.3   1400  BOG1400    -0.2176
     13  C1'      -12.3420   80.4090   46.7790 C.3   1400  BOG1400     0.1449
     14  C2'      -11.0040   80.7850   46.0430 C.3   1400  BOG1400     0.0322
     15  C3'       -9.9780   81.3400   47.0940 C.3   1400  BOG1400     0.0026
     16  C4'       -8.7630   80.4030   47.2360 C.3   1400  BOG1400     0.0001
     17  C5'       -7.4690   81.0530   46.6900 C.3   1400  BOG1400     0.0000
     18  C6'       -6.6270   80.0570   45.8400 C.3   1400  BOG1400     0.0000
     19  C7'       -6.1050   78.8630   46.6850 C.3   1400  BOG1400     0.0000
     20  C8'       -4.6500   79.1090   47.0980 C.3   1400  BOG1400     0.0000
@<TRIPOS>BOND
     1     4     3    1
     2     6     5    1
     3     5     3    1
     4     5     7    1
     5     8     7    1
     6     3     1    1
     7     1     2    1
     8     1    10    1
     9     7     9    1
    10     9    10    1
    11     9    11    1
    12     2    13    1
    13    18    19    1
    14    18    17    1
    15    14    13    1
    16    14    15    1
    17    12    11    1
    18    19    20    1
    19    17    16    1
    20    15    16    1
