@<TRIPOS>MOLECULE
1okl_MNS_A_1.pdb
 17 18 0 0 0
SMALL
GASTEIGER

@<TRIPOS>ATOM
      1  C1        -5.2670    2.0110   15.7090 C.ar  862  MNS862      0.1250
      2  C2        -4.5510    1.5230   14.5980 C.ar  862  MNS862      0.0200
      3  C3        -4.0850    2.4330   13.6540 C.ar  862  MNS862      0.0014
      4  C4        -4.3270    3.8040   13.8100 C.ar  862  MNS862      0.0013
      5  C4A       -5.0370    4.3650   14.8970 C.ar  862  MNS862      0.0146
      6  C5        -5.2940    5.7660   15.0740 C.ar  862  MNS862      0.0479
      7  C6        -6.0160    6.1860   16.2070 C.ar  862  MNS862      0.0145
      8  C7        -6.4910    5.2760   17.1660 C.ar  862  MNS862      0.0013
      9  C8        -6.2330    3.9050   16.9830 C.ar  862  MNS862      0.0014
     10  C8A       -5.5130    3.4240   15.8650 C.ar  862  MNS862      0.0199
     11  N         -4.7820    6.7640   14.0340 N.pl3 862  MNS862     -0.3041
     12  CM1       -3.5760    6.8600   14.1100 C.3   862  MNS862      0.1122
     13  CM2       -5.4690    6.6220   12.9000 C.3   862  MNS862      0.1122
     14  S         -5.8600    0.9290   16.8970 S.O2  862  MNS862      0.0935
     15  O1S       -7.3490    1.0470   16.9670 O.2   862  MNS862     -0.1503
     16  O2S       -5.2510    1.2730   18.2200 O.2   862  MNS862     -0.1503
     17  N3S       -5.4860   -0.4700   16.5240 N.3   862  MNS862      0.0392
@<TRIPOS>BOND
     1    13    11    1
     2     3     4   ar
     3     3     2   ar
     4     4     5   ar
     5    11    12    1
     6    11     6    1
     7     2     1   ar
     8     5     6   ar
     9     5    10   ar
    10     6     7   ar
    11     1    10   ar
    12     1    14    1
    13    10     9   ar
    14     7     8   ar
    15    17    14    1
    16    14    15    2
    17    14    16    2
    18     9     8   ar
