@<TRIPOS>MOLECULE
1okm_SAB_A_1.pdb
 18 18 0 0 0
SMALL
GASTEIGER

@<TRIPOS>ATOM
      1  C1        -4.6220    4.4630   14.6630 C.ar  555  SAB555      0.0551
      2  C2        -3.7740    3.4010   14.8250 C.ar  555  SAB555      0.0059
      3  C3        -4.2120    2.2590   15.5740 C.ar  555  SAB555      0.0202
      4  C4        -5.5310    2.2360   16.1440 C.ar  555  SAB555      0.1251
      5  C5        -6.3690    3.3820   15.9300 C.ar  555  SAB555      0.0202
      6  C6        -5.8860    4.4990   15.1780 C.ar  555  SAB555      0.0059
      7  C7        -4.1490    5.6240   13.9260 C.2   555  SAB555      0.2648
      8  O7        -4.7400    6.6270   13.7020 O.2   555  SAB555     -0.2684
      9  N         -2.7930    5.5650   13.4120 N.am  555  SAB555     -0.2017
     10  C1'       -2.3250    6.6220   12.5270 C.3   555  SAB555      0.1155
     11  C2'       -1.8310    7.8870   13.0870 C.3   555  SAB555      0.0250
     12  C3'       -1.2520    7.7410   14.3840 C.3   555  SAB555      0.0223
     13  C4'       -1.4040    8.9380   15.1510 C.3   555  SAB555      0.1094
     14  N4'       -0.3210    9.9210   14.8530 N.3   555  SAB555     -0.1314
     15  S         -6.0600    0.9440   17.0300 S.O2  555  SAB555      0.0935
     16  O1S       -5.6140    0.9170   18.3280 O.2   555  SAB555     -0.1503
     17  O2S       -7.5650    1.0530   16.8410 O.2   555  SAB555     -0.1503
     18  N3S       -5.4810   -0.1960   16.3680 N.3   555  SAB555      0.0392
@<TRIPOS>BOND
     1    10    11    1
     2    10     9    1
     3    11    12    1
     4     9     7   am
     5     8     7    2
     6     7     1    1
     7    12    13    1
     8     1     2   ar
     9     1     6   ar
    10     2     3   ar
    11    14    13    1
    12     6     5   ar
    13     3     4   ar
    14     5     4   ar
    15     4    15    1
    16    18    15    1
    17    17    15    2
    18    15    16    2
