@<TRIPOS>MOLECULE
1okn_STB_A_1.pdb
 20 20 0 0 0
SMALL
GASTEIGER

@<TRIPOS>ATOM
      1  C1        -4.6220    4.9500   14.8240 C.ar  555  STB555      0.0551
      2  C2        -6.0210    4.9390   15.1990 C.ar  555  STB555      0.0059
      3  C3        -6.5670    3.8090   15.9350 C.ar  555  STB555      0.0202
      4  C4        -5.7180    2.6830   16.2980 C.ar  555  STB555      0.1251
      5  C5        -4.3200    2.6980   15.9010 C.ar  555  STB555      0.0202
      6  C6        -3.7740    3.8270   15.1690 C.ar  555  STB555      0.0059
      7  C7        -4.0490    6.1280   14.1730 C.2   555  STB555      0.2648
      8  O7        -4.6450    7.0690   13.7800 O.2   555  STB555     -0.2684
      9  N         -2.5940    6.1780   13.9940 N.am  555  STB555     -0.2017
     10  C1'       -2.0070    7.3690   13.3300 C.3   555  STB555      0.1155
     11  C2'       -1.2470    8.2460   14.3370 C.3   555  STB555      0.0249
     12  C3'       -1.2300    9.7200   13.9000 C.3   555  STB555      0.0207
     13  C4'       -0.7650   10.6520   15.0400 C.3   555  STB555      0.0898
     14  N5'        0.5640   11.2410   14.7340 N.3   555  STB555     -0.2054
     15  C6'        1.4610   10.7260   15.7660 C.3   555  STB555      0.1567
     16  S7'        3.1670   10.5750   15.6130 S.3   555  STB555     -0.0614
     17  S         -6.3180    1.4120   17.2350 S.O2  555  STB555      0.0935
     18  O1S       -6.0270    1.5050   18.5920 O.2   555  STB555     -0.1503
     19  O2S       -7.8340    1.4730   16.8990 O.2   555  STB555     -0.1503
     20  N3S       -5.6240    0.2080   16.7330 N.3   555  STB555      0.0392
@<TRIPOS>BOND
     1    10     9    1
     2    10    11    1
     3     8     7    2
     4    12    11    1
     5    12    13    1
     6     9     7   am
     7     7     1    1
     8    14    13    1
     9    14    15    1
    10     1     6   ar
    11     1     2   ar
    12     6     5   ar
    13     2     3   ar
    14    16    15    1
    15     5     4   ar
    16     3     4   ar
    17     4    17    1
    18    20    17    1
    19    19    17    2
    20    17    18    2
