@<TRIPOS>MOLECULE
1oko_GLA_B_1.pdb
 12 12 0 0 0
SMALL
GASTEIGER

@<TRIPOS>ATOM
      1  C1        -6.1560   12.3500   48.9670 C.3   901  GLA901      0.3024
      2  C2        -6.8970   13.4500   48.2460 C.3   901  GLA901      0.2434
      3  C3        -8.2630   12.9250   47.8180 C.3   901  GLA901      0.2199
      4  C4        -8.1130   11.6400   47.0210 C.3   901  GLA901      0.2144
      5  C5        -7.2040   10.6450   47.7440 C.3   901  GLA901      0.1836
      6  C6        -6.9460    9.3890   46.8920 C.3   901  GLA901      0.2142
      7  O1        -6.8830   11.9300   50.1420 O.3   901  GLA901     -0.1869
      8  O2        -7.0880   14.5640   49.0920 O.3   901  GLA901     -0.2148
      9  O3        -8.9480   13.9230   47.1060 O.3   901  GLA901     -0.2174
     10  O4        -7.5930   11.9850   45.7480 O.3   901  GLA901     -0.2176
     11  O5        -5.9820   11.2360   48.0980 O.3   901  GLA901     -0.3236
     12  O6        -6.2440    8.3910   47.5980 O.3   901  GLA901     -0.2176
@<TRIPOS>BOND
     1    10     4    1
     2     6    12    1
     3     6     5    1
     4     4     5    1
     5     4     3    1
     6     9     3    1
     7     5    11    1
     8     3     2    1
     9    11     1    1
    10     2     1    1
    11     2     8    1
    12     1     7    1
