@<TRIPOS>MOLECULE
1oko_GAL_A_1.pdb
 12 12 0 0 0
SMALL
GASTEIGER

@<TRIPOS>ATOM
      1  C1        22.0980   16.8310   45.2590 C.3   901  GAL901      0.3024
      2  C2        22.7590   15.4870   45.0500 C.3   901  GAL901      0.2434
      3  C3        24.0340   15.6740   44.2630 C.3   901  GAL901      0.2199
      4  C4        23.6870   16.3310   42.9410 C.3   901  GAL901      0.2144
      5  C5        22.8490   17.5710   43.1540 C.3   901  GAL901      0.1836
      6  C6        22.2680   18.0340   41.8290 C.3   901  GAL901      0.2142
      7  O1        20.9250   16.6420   46.0140 O.3   901  GAL901     -0.1869
      8  O2        23.0760   14.8160   46.2410 O.3   901  GAL901     -0.2148
      9  O3        24.5430   14.3910   44.0140 O.3   901  GAL901     -0.2174
     10  O4        22.9930   15.4110   42.1280 O.3   901  GAL901     -0.2176
     11  O5        21.7270   17.3070   43.9640 O.3   901  GAL901     -0.3236
     12  O6        21.7260   19.3220   42.0160 O.3   901  GAL901     -0.2176
@<TRIPOS>BOND
     1     6    12    1
     2     6     5    1
     3    10     4    1
     4     4     5    1
     5     4     3    1
     6     5    11    1
     7    11     1    1
     8     9     3    1
     9     3     2    1
    10     2     1    1
    11     2     8    1
    12     1     7    1
