@<TRIPOS>MOLECULE
1okv_III_E_1.pdb
 50 50 0 0 0
SMALL
GASTEIGER

@<TRIPOS>ATOM
      1  N         35.8970   21.6700   -1.4110 N.3    30  ARG30      -0.1231
      2  CA        37.0910   21.2880   -0.6230 C.3    30  ARG30       0.1694
      3  C         37.5280   22.4120    0.3190 C.2    30  ARG30       0.2592
      4  O         37.1800   23.5700    0.0830 O.2    30  ARG30      -0.2718
      5  CB        38.2560   20.9670   -1.5860 C.3    30  ARG30       0.0321
      6  CG        38.5140   22.0400   -2.6470 C.3    30  ARG30       0.0489
      7  CD        39.9360   22.0380   -3.2310 C.3    30  ARG30       0.2205
      8  NE        39.9490   22.6470   -4.5570 N.pl3  30  ARG30      -0.0865
      9  CZ        40.7750   23.6140   -4.9520 C.cat  30  ARG30       0.5346
     10  NH1       41.7890   24.0390   -4.2060 N.pl3  30  ARG30       0.1354
     11  NH2       40.6260   24.1270   -6.1590 N.pl3  30  ARG30       0.1354
     12  N         38.1400   22.0560    1.4500 N.am   31  ARG31      -0.1966
     13  CA        38.7900   23.0490    2.2770 C.3    31  ARG31       0.1729
     14  C         39.8680   23.6780    1.4200 C.2    31  ARG31       0.2616
     15  O         40.5350   22.9590    0.6880 O.2    31  ARG31      -0.2715
     16  CB        39.4380   22.4240    3.5060 C.3    31  ARG31       0.0348
     17  CG        40.1880   23.4580    4.3810 C.3    31  ARG31       0.0492
     18  CD        40.8220   22.8800    5.6310 C.3    31  ARG31       0.2205
     19  NE        42.2850   22.8760    5.5680 N.pl3  31  ARG31      -0.0865
     20  CZ        43.0380   21.8320    5.2390 C.cat  31  ARG31       0.5346
     21  NH1       44.3550   21.9520    5.3040 N.pl3  31  ARG31       0.1354
     22  NH2       42.5080   20.6580    4.8930 N.pl3  31  ARG31       0.1354
     23  N         39.9880   25.0030    1.4600 N.am   32  LEU32      -0.1963
     24  CA        40.9480   25.6730    0.6130 C.3    32  LEU32       0.1728
     25  C         42.3290   25.7510    1.2490 C.2    32  LEU32       0.2616
     26  O         42.5550   26.2690    2.3480 O.2    32  LEU32      -0.2715
     27  CB        40.4990   27.0290    0.0800 C.3    32  LEU32       0.0311
     28  CG        39.5510   26.9080   -1.1200 C.3    32  LEU32       0.0022
     29  CD1       39.0990   28.3020   -1.5710 C.3    32  LEU32       0.0001
     30  CD2       40.1250   26.1190   -2.3040 C.3    32  LEU32       0.0001
     31  N         43.2840   25.2170    0.5180 N.am   33  ILE33      -0.1963
     32  CA        44.5970   25.2000    1.0680 C.3    33  ILE33       0.1727
     33  C         45.2730   26.5450    0.8570 C.2    33  ILE33       0.2616
     34  O         45.6660   26.8950   -0.2550 O.2    33  ILE33      -0.2715
     35  CB        45.3560   23.9800    0.5650 C.3    33  ILE33       0.0290
     36  CG1       45.7500   23.1680    1.7940 C.3    33  ILE33       0.0022
     37  CG2       46.5360   24.3440   -0.3710 C.3    33  ILE33       0.0023
     38  CD1       46.2880   24.0390    2.9450 C.3    33  ILE33       0.0001
     39  N         45.4210   27.2760    1.9590 N.am   34  PHE34      -0.1959
     40  CA        46.0160   28.6080    1.9750 C.3    34  PHE34       0.1787
     41  C         47.2860   28.5880    2.7980 C.2    34  PHE34       0.2809
     42  O         47.2510   28.1760    3.9550 O.2    34  PHE34      -0.2698
     43  CB        45.0240   29.5750    2.6310 C.3    34  PHE34       0.0575
     44  CG        43.8330   29.8880    1.7820 C.ar   34  PHE34      -0.0200
     45  CD1       42.5660   29.6470    2.2450 C.ar   34  PHE34      -0.0042
     46  CD2       43.9830   30.4230    0.5190 C.ar   34  PHE34      -0.0042
     47  CE1       41.4820   29.9330    1.4550 C.ar   34  PHE34      -0.0003
     48  CE2       42.9130   30.7090   -0.2600 C.ar   34  PHE34      -0.0003
     49  CZ        41.6660   30.4550    0.1950 C.ar   34  PHE34      -0.0000
     50  N         48.3800   29.0910    2.2350 N.am   35  NH235      -0.0863
@<TRIPOS>BOND
     1    11     9    1
     2     9     8    2
     3     9    10    1
     4     8     7    1
     5     7     6    1
     6     6     5    1
     7    30    28    1
     8     5     2    1
     9    29    28    1
    10     1     2    1
    11    28    27    1
    12     2     3    1
    13    37    35    1
    14    48    49   ar
    15    48    46   ar
    16    34    33    2
    17    27    24    1
    18     4     3    2
    19    49    47   ar
    20     3    12   am
    21    31    32    1
    22    31    25   am
    23    46    44   ar
    24    35    32    1
    25    35    36    1
    26    24    25    1
    27    24    23    1
    28    15    14    2
    29    33    32    1
    30    33    39   am
    31    25    26    2
    32    14    23   am
    33    14    13    1
    34    12    13    1
    35    47    45   ar
    36    44    45   ar
    37    44    43    1
    38    36    38    1
    39    39    40    1
    40    40    43    1
    41    40    41    1
    42    50    41   am
    43    13    16    1
    44    41    42    2
    45    16    17    1
    46    17    18    1
    47    22    20    1
    48    20    21    1
    49    20    19    2
    50    19    18    1
