@<TRIPOS>MOLECULE
1oky_STU_A_1.pdb
 35 42 0 0 0
SMALL
GASTEIGER

@<TRIPOS>ATOM
      1  O4        82.8890   19.8450   13.9800 O.3   1368  STU1368    -0.3186
      2  C25       84.2780   19.5950   13.6580 C.3   1368  STU1368     0.2078
      3  C24       84.8470   20.5230   12.5590 C.3   1368  STU1368     0.0739
      4  C23       83.7480   21.4550   12.0550 C.3   1368  STU1368     0.1086
      5  C22       82.5570   20.6210   11.6100 C.3   1368  STU1368     0.1761
      6  C21       81.9390   19.9300   12.8720 C.3   1368  STU1368     0.1915
      7  C26       80.7910   20.8240   13.4030 C.3   1368  STU1368     0.0566
      8  N2        81.4560   18.6890   12.5280 N.ar  1368  STU1368    -0.3054
      9  C18       82.1620   17.5250   12.6060 C.ar  1368  STU1368     0.0774
     10  C19       83.5010   17.2790   12.9720 C.ar  1368  STU1368     0.0783
     11  C6        84.0490   16.0220   12.8990 C.ar  1368  STU1368     0.0293
     12  C7        83.2170   14.9360   12.4400 C.ar  1368  STU1368     0.0822
     13  C10       81.9340   15.2170   12.0980 C.ar  1368  STU1368     0.0154
     14  C11       81.3610   16.5220   12.1640 C.ar  1368  STU1368     0.0173
     15  C12       80.1540   17.0530   11.8120 C.ar  1368  STU1368     0.0171
     16  C17       80.1720   18.4500   12.0230 C.ar  1368  STU1368     0.0617
     17  C16       79.0390   19.2190   11.6900 C.ar  1368  STU1368     0.0172
     18  C15       77.9010   18.5690   11.1480 C.ar  1368  STU1368     0.0015
     19  C14       77.8990   17.1580   10.9460 C.ar  1368  STU1368     0.0001
     20  C13       79.0350   16.3860   11.2820 C.ar  1368  STU1368     0.0015
     21  C9        81.3250   14.0980   11.6890 C.3   1368  STU1368     0.1650
     22  N1        82.2810   13.0800   11.7860 N.2   1368  STU1368    -0.1976
     23  C8        83.4570   13.6030   12.2610 C.1   1368  STU1368     0.1501
     24  O5        84.4930   12.9810   12.5040 O.2   1368  STU1368    -0.2222
     25  C5        85.3640   16.1270   13.2480 C.ar  1368  STU1368     0.0180
     26  C20       85.6630   17.4770   13.5610 C.ar  1368  STU1368     0.0618
     27  C1        86.9680   17.8380   13.9420 C.ar  1368  STU1368     0.0172
     28  C2        87.9610   16.8310   14.0070 C.ar  1368  STU1368     0.0015
     29  C3        87.6450   15.4760   13.6890 C.ar  1368  STU1368     0.0001
     30  C4        86.3290   15.1170   13.3060 C.ar  1368  STU1368     0.0015
     31  N3        84.4620   18.1500   13.3760 N.ar  1368  STU1368    -0.3039
     32  O6        83.0910   19.6450   10.6910 O.3   1368  STU1368    -0.3478
     33  C27       82.1780   19.4040    9.6140 C.3   1368  STU1368     0.1743
     34  N4        84.2510   22.2420   10.9160 N.3   1368  STU1368    -0.2152
     35  C28       83.7160   23.5440   10.4810 C.3   1368  STU1368     0.1075
@<TRIPOS>BOND
     1    33    32    1
     2    35    34    1
     3    32     5    1
     4    34     4    1
     5    19    18   ar
     6    19    20   ar
     7    18    17   ar
     8    20    15   ar
     9     5     4    1
    10     5     6    1
    11    21    22    1
    12    21    13    1
    13    17    16   ar
    14    22    23    2
    15    15    16   ar
    16    15    14   ar
    17    16     8   ar
    18     4     3    1
    19    13    14   ar
    20    13    12   ar
    21    14     9   ar
    22    23    12    1
    23    23    24    2
    24    12    11   ar
    25     8     9   ar
    26     8     6    1
    27     3     2    1
    28     9    10   ar
    29     6     7    1
    30     6     1    1
    31    11    10   ar
    32    11    25   ar
    33    10    31   ar
    34    25    30   ar
    35    25    26   ar
    36    30    29   ar
    37    31    26   ar
    38    31     2    1
    39    26    27   ar
    40     2     1    1
    41    29    28   ar
    42    27    28   ar
