@<TRIPOS>MOLECULE
1okz_UCN_A_1.pdb
 36 43 0 0 0
SMALL
GASTEIGER

@<TRIPOS>ATOM
      1  O37       80.9020   13.8910   10.2140 O.3   1370  UCN1370    -0.1902
      2  C9        81.1280   13.7990   11.6220 C.3   1370  UCN1370     0.2876
      3  N1        82.2770   12.9040   11.8560 N.2   1370  UCN1370    -0.1663
      4  C8        83.4030   13.4720   12.2900 C.1   1370  UCN1370     0.1525
      5  O5        84.4710   12.8950   12.4800 O.2   1370  UCN1370    -0.2222
      6  C7        83.1300   14.8290   12.4390 C.ar  1370  UCN1370     0.0847
      7  C6        83.9320   15.8670   12.9040 C.ar  1370  UCN1370     0.0294
      8  C5        85.2640   15.9880   13.2780 C.ar  1370  UCN1370     0.0180
      9  C20       85.5230   17.3170   13.6100 C.ar  1370  UCN1370     0.0618
     10  C1        86.8070   17.6820   14.0000 C.ar  1370  UCN1370     0.0172
     11  C2        87.8030   16.7080   14.0470 C.ar  1370  UCN1370     0.0015
     12  C3        87.5260   15.3840   13.7140 C.ar  1370  UCN1370     0.0001
     13  C4        86.2440   15.0030   13.3240 C.ar  1370  UCN1370     0.0015
     14  N3        84.3650   17.9640   13.4380 N.ar  1370  UCN1370    -0.3039
     15  C19       83.4040   17.1440   13.0140 C.ar  1370  UCN1370     0.0783
     16  C18       82.0830   17.4070   12.6570 C.ar  1370  UCN1370     0.0774
     17  N2        81.3980   18.5470   12.5510 N.ar  1370  UCN1370    -0.3054
     18  C17       80.1850   18.3440   12.0140 C.ar  1370  UCN1370     0.0617
     19  C12       80.1070   16.9730   11.7830 C.ar  1370  UCN1370     0.0171
     20  C13       78.9990   16.3660   11.1960 C.ar  1370  UCN1370     0.0015
     21  C14       77.9300   17.1800   10.8300 C.ar  1370  UCN1370     0.0001
     22  C15       77.9880   18.5550   11.0530 C.ar  1370  UCN1370     0.0015
     23  C16       79.1070   19.1410   11.6430 C.ar  1370  UCN1370     0.0172
     24  C11       81.2900   16.3770   12.1870 C.ar  1370  UCN1370     0.0197
     25  C10       81.8110   15.0870   12.0830 C.ar  1370  UCN1370     0.0442
     26  C21       81.8530   19.7470   12.9370 C.3   1370  UCN1370     0.1915
     27  O4        82.7900   19.6320   14.0170 O.3   1370  UCN1370    -0.3186
     28  C25       84.1780   19.4050   13.7150 C.3   1370  UCN1370     0.2078
     29  C24       84.7390   20.2940   12.6000 C.3   1370  UCN1370     0.0739
     30  C23       83.6610   21.2910   12.1770 C.3   1370  UCN1370     0.1086
     31  N4        84.1710   22.1330   11.0850 N.3   1370  UCN1370    -0.2152
     32  C28       83.6830   23.4790   10.7510 C.3   1370  UCN1370     0.1075
     33  C22       82.4190   20.5120   11.7330 C.3   1370  UCN1370     0.1761
     34  O6        82.8350   19.5730   10.7300 O.3   1370  UCN1370    -0.3478
     35  C27       82.2230   19.8780    9.4730 C.3   1370  UCN1370     0.1743
     36  C26       80.7320   20.6110   13.5240 C.3   1370  UCN1370     0.0566
@<TRIPOS>BOND
     1    35    34    1
     2     1     2    1
     3    34    33    1
     4    32    31    1
     5    21    22   ar
     6    21    20   ar
     7    22    23   ar
     8    31    30    1
     9    20    19   ar
    10     2     3    1
    11     2    25    1
    12    23    18   ar
    13    33    30    1
    14    33    26    1
    15    19    18   ar
    16    19    24   ar
    17     3     4    2
    18    18    17   ar
    19    25    24   ar
    20    25     6   ar
    21    30    29    1
    22    24    16   ar
    23     4     6    1
    24     4     5    2
    25     6     7   ar
    26    17    16   ar
    27    17    26    1
    28    29    28    1
    29    16    15   ar
    30     7    15   ar
    31     7     8   ar
    32    26    36    1
    33    26    27    1
    34    15    14   ar
    35     8    13   ar
    36     8     9   ar
    37    13    12   ar
    38    14     9   ar
    39    14    28    1
    40     9    10   ar
    41    12    11   ar
    42    28    27    1
    43    10    11   ar
