@<TRIPOS>MOLECULE
1ol5_ADP_A_1.pdb
 27 29 0 0 0
SMALL
GASTEIGER

@<TRIPOS>ATOM
      1  PB       193.7880  175.8240   12.4320 P.3   1388  ADP1388     0.5373
      2  O1B      193.8840  176.3520   13.7920 O.3   1388  ADP1388    -0.1143
      3  O2B      193.5660  176.8370   11.3940 O.2   1388  ADP1388    -0.2221
      4  O3B      194.9790  174.9080   12.1320 O.3   1388  ADP1388    -0.1143
      5  PA       191.7480  174.0630   13.5450 P.3   1388  ADP1388     0.2231
      6  O1A      190.6110  174.9010   14.0320 O.3   1388  ADP1388    -0.4370
      7  O2A      191.3570  172.7550   12.9540 O.2   1388  ADP1388    -0.5169
      8  O3A      192.5320  174.8740   12.4500 O.3   1388  ADP1388    -0.2261
      9  O5'      192.6420  173.9060   14.8390 O.3   1388  ADP1388    -0.3111
     10  C5'      193.7680  172.9650   14.8690 C.3   1388  ADP1388     0.1813
     11  C4'      193.5940  171.6230   15.6400 C.3   1388  ADP1388     0.1821
     12  O4'      192.9230  171.8420   16.8970 O.3   1388  ADP1388    -0.3135
     13  C3'      192.7510  170.4940   14.9970 C.3   1388  ADP1388     0.2184
     14  O3'      193.5610  169.8240   14.0380 O.3   1388  ADP1388    -0.2174
     15  C2'      192.3690  169.6590   16.2180 C.3   1388  ADP1388     0.2570
     16  O2'      193.4230  168.7490   16.6150 O.3   1388  ADP1388    -0.2130
     17  C1'      192.1520  170.7040   17.3120 C.3   1388  ADP1388     0.3186
     18  N9       190.7110  171.1690   17.4450 N.pl3 1388  ADP1388    -0.1439
     19  C8       190.1690  172.2370   16.8080 C.3   1388  ADP1388     0.3377
     20  N7       188.8770  172.4310   17.1080 N.2   1388  ADP1388    -0.2095
     21  C5       188.5960  171.4080   17.9610 C.2   1388  ADP1388     0.2526
     22  C6       187.3770  171.0710   18.6520 C.2   1388  ADP1388     0.4393
     23  N6       186.2600  171.6960   18.5630 N.pl3 1388  ADP1388     0.2180
     24  N1       187.4740  169.9350   19.4540 N.2   1388  ADP1388     0.0021
     25  C2       188.6420  169.1980   19.5950 C.3   1388  ADP1388     0.5254
     26  N3       189.7730  169.5120   18.9820 N.2   1388  ADP1388    -0.0055
     27  C4       189.7160  170.6100   18.1620 C.2   1388  ADP1388     0.3518
@<TRIPOS>BOND
     1     3     1    2
     2     4     1    1
     3     1     8    1
     4     1     2    1
     5     8     5    1
     6     7     5    2
     7     5     6    1
     8     5     9    1
     9    14    13    1
    10     9    10    1
    11    10    11    1
    12    13    11    1
    13    13    15    1
    14    11    12    1
    15    15    16    1
    16    15    17    1
    17    19    20    1
    18    19    18    1
    19    12    17    1
    20    20    21    2
    21    17    18    1
    22    18    27    1
    23    21    27    1
    24    21    22    1
    25    27    26    2
    26    23    22    1
    27    22    24    2
    28    26    25    1
    29    24    25    1
