@<TRIPOS>MOLECULE
1ol6_ATP_A_1.pdb
 31 33 0 0 0
SMALL
GASTEIGER

@<TRIPOS>ATOM
      1  PG       209.7460   28.0400 -102.3920 P.3   1388  ATP1388     0.5373
      2  O1G      210.7250   28.8620 -103.1480 O.2   1388  ATP1388    -0.2221
      3  O2G      208.5640   28.8300 -101.8740 O.3   1388  ATP1388    -0.1143
      4  O3G      210.4060   27.4730 -101.2470 O.3   1388  ATP1388    -0.1143
      5  PB       209.8410   25.3570 -103.8250 P.3   1388  ATP1388     0.2277
      6  O1B      210.2620   25.3680 -105.2320 O.2   1388  ATP1388    -0.5168
      7  O2B      210.8190   24.9320 -102.8330 O.3   1388  ATP1388    -0.4368
      8  O3B      209.2600   26.7950 -103.3760 O.3   1388  ATP1388    -0.2258
      9  PA       207.1570   24.6850 -103.0460 P.3   1388  ATP1388     0.2189
     10  O1A      207.2120   24.9830 -101.6070 O.3   1388  ATP1388    -0.4371
     11  O2A      206.4770   25.7010 -103.8250 O.2   1388  ATP1388    -0.5170
     12  O3A      208.6200   24.4220 -103.6270 O.3   1388  ATP1388    -0.2700
     13  O5'      206.5000   23.2620 -103.3000 O.3   1388  ATP1388    -0.3112
     14  C5'      206.3620   22.9090 -104.7140 C.3   1388  ATP1388     0.1813
     15  C4'      204.9290   22.5130 -105.0580 C.3   1388  ATP1388     0.1821
     16  O4'      204.6170   21.3070 -104.2950 O.3   1388  ATP1388    -0.3135
     17  C3'      203.8360   23.4840 -104.6230 C.3   1388  ATP1388     0.2184
     18  O3'      203.6050   24.4740 -105.5490 O.3   1388  ATP1388    -0.2174
     19  C2'      202.6350   22.5570 -104.3390 C.3   1388  ATP1388     0.2570
     20  O2'      201.8600   22.1920 -105.4510 O.3   1388  ATP1388    -0.2130
     21  C1'      203.2920   21.3480 -103.7900 C.3   1388  ATP1388     0.3186
     22  N9       203.3070   21.3080 -102.3170 N.pl3 1388  ATP1388    -0.1439
     23  C8       204.2610   22.0090 -101.5850 C.3   1388  ATP1388     0.3377
     24  N7       203.9740   22.1310 -100.2980 N.2   1388  ATP1388    -0.2095
     25  C5       202.7900   21.4090 -100.1500 C.2   1388  ATP1388     0.2526
     26  C6       201.9510   21.0420  -99.0060 C.2   1388  ATP1388     0.4393
     27  N6       202.2360   21.2800  -97.7300 N.pl3 1388  ATP1388     0.2180
     28  N1       200.7670   20.4350  -99.2930 N.2   1388  ATP1388     0.0021
     29  C2       200.4680   20.1450 -100.5870 C.3   1388  ATP1388     0.5254
     30  N3       201.2980   20.1270 -101.6200 N.2   1388  ATP1388    -0.0055
     31  C4       202.3330   20.9840 -101.4120 C.2   1388  ATP1388     0.3518
@<TRIPOS>BOND
     1    18    17    1
     2    20    19    1
     3     6     5    2
     4    15    14    1
     5    15    17    1
     6    15    16    1
     7    14    13    1
     8    17    19    1
     9    19    21    1
    10    16    21    1
    11     5    12    1
    12     5     8    1
    13     5     7    1
    14    11     9    2
    15    21    22    1
    16    12     9    1
    17     8     1    1
    18    13     9    1
    19     2     1    2
    20     9    10    1
    21     1     3    1
    22     1     4    1
    23    22    23    1
    24    22    31    1
    25    30    31    2
    26    30    29    1
    27    23    24    1
    28    31    25    1
    29    29    28    1
    30    24    25    2
    31    25    26    1
    32    28    26    2
    33    26    27    1
