@<TRIPOS>MOLECULE
1ol7_ADP_A_1.pdb
 27 29 0 0 0
SMALL
GASTEIGER

@<TRIPOS>ATOM
      1  PB       257.4160  -68.5530  107.6490 P.3   531  ADP531      0.5373
      2  O1B      258.5450  -67.7760  107.1910 O.3   531  ADP531     -0.1143
      3  O2B      257.2090  -69.8800  106.8790 O.2   531  ADP531     -0.2221
      4  O3B      257.4220  -68.7560  109.2260 O.3   531  ADP531     -0.1143
      5  PA       256.0770  -66.2040  106.6160 P.3   531  ADP531      0.2231
      6  O1A      256.8420  -66.1230  105.3730 O.2   531  ADP531     -0.5169
      7  O2A      254.5510  -65.8600  106.4610 O.3   531  ADP531     -0.4370
      8  O3A      256.1620  -67.6430  107.2610 O.3   531  ADP531     -0.2261
      9  O5'      256.8920  -65.2430  107.6570 O.3   531  ADP531     -0.3111
     10  C5'      256.4420  -65.2180  109.0850 C.3   531  ADP531      0.1813
     11  C4'      255.8560  -63.8980  109.5560 C.3   531  ADP531      0.1821
     12  O4'      256.5420  -62.8680  108.8180 O.3   531  ADP531     -0.3135
     13  C3'      254.3720  -63.6200  109.2920 C.3   531  ADP531      0.2184
     14  O3'      253.6580  -64.1610  110.3470 O.3   531  ADP531     -0.2174
     15  C2'      254.3370  -62.0800  109.1810 C.3   531  ADP531      0.2570
     16  O2'      254.1480  -61.3990  110.4230 O.3   531  ADP531     -0.2130
     17  C1'      255.7100  -61.7160  108.5970 C.3   531  ADP531      0.3186
     18  N9       255.6660  -61.4360  107.1620 N.pl3 531  ADP531     -0.1439
     19  C8       255.9460  -62.3020  106.1360 C.3   531  ADP531      0.3377
     20  N7       255.8110  -61.7340  104.8970 N.2   531  ADP531     -0.2095
     21  C5       255.4180  -60.4640  105.1770 C.2   531  ADP531      0.2526
     22  C6       255.1220  -59.3370  104.2790 C.2   531  ADP531      0.4393
     23  N6       255.1510  -59.4000  102.9490 N.pl3 531  ADP531      0.2180
     24  N1       254.7620  -58.1530  104.9640 N.2   531  ADP531      0.0021
     25  C2       254.7250  -58.0570  106.3640 C.3   531  ADP531      0.5254
     26  N3       254.9920  -59.0700  107.1880 N.2   531  ADP531     -0.0055
     27  C4       255.3510  -60.2450  106.5740 C.2   531  ADP531      0.3518
@<TRIPOS>BOND
     1    23    22    1
     2    22    24    2
     3    22    21    1
     4    20    21    2
     5    20    19    1
     6    24    25    1
     7    21    27    1
     8     6     5    2
     9    19    18    1
    10    25    26    1
    11     7     5    1
    12    27    18    1
    13    27    26    2
    14     5     8    1
    15     5     9    1
    16     3     1    2
    17    18    17    1
    18     2     1    1
    19     8     1    1
    20     1     4    1
    21     9    10    1
    22    17    12    1
    23    17    15    1
    24    12    11    1
    25    10    11    1
    26    15    13    1
    27    15    16    1
    28    13    11    1
    29    13    14    1
