@<TRIPOS>MOLECULE
1ola_III_B_1.pdb
 28 28 0 0 0
SMALL
GASTEIGER

@<TRIPOS>ATOM
      1  N         17.4650  -23.8630   57.7740 N.3     1  VAL1       -0.1231
      2  CA        17.3880  -22.4330   57.6700 C.3     1  VAL1        0.1692
      3  C         16.5590  -21.7960   58.7870 C.2     1  VAL1        0.2592
      4  O         15.5310  -22.3740   59.1980 O.2     1  VAL1       -0.2718
      5  CB        16.6060  -22.0370   56.3540 C.3     1  VAL1        0.0266
      6  CG1       17.4710  -21.7730   55.1400 C.3     1  VAL1        0.0020
      7  CG2       15.4020  -22.8880   56.0190 C.3     1  VAL1        0.0020
      8  N         16.9040  -20.5510   59.0610 N.am    2  LYS2       -0.1966
      9  CA        16.1050  -19.7670   60.0190 C.3     2  LYS2        0.1713
     10  C         14.9800  -19.0130   59.3150 C.2     2  LYS2        0.2458
     11  O         15.2210  -18.2180   58.3740 O.2     2  LYS2       -0.2730
     12  CB        16.9790  -18.7040   60.7290 C.3     2  LYS2        0.0311
     13  CG        18.3550  -19.2670   61.0900 C.3     2  LYS2        0.0038
     14  CD        18.4050  -19.9370   62.4930 C.3     2  LYS2        0.0206
     15  CE        19.7910  -19.8910   63.1170 C.3     2  LYS2        0.1093
     16  NZ        20.2200  -21.0710   63.9200 N.3     2  LYS2       -0.1314
     17  N         13.7580  -19.2170   59.8010 N.am    3  PRO3       -0.2716
     18  CA        12.5400  -18.5760   59.3360 C.3     3  PRO3        0.1536
     19  C         12.3710  -17.2190   60.0480 C.2     3  PRO3        0.2600
     20  O         12.5980  -17.0440   61.2680 O.2     3  PRO3       -0.2715
     21  CB        11.3270  -19.4320   59.7770 C.3     3  PRO3        0.0310
     22  CG        11.9730  -20.5790   60.5250 C.3     3  PRO3        0.0237
     23  CD        13.4330  -20.2110   60.8500 C.3     3  PRO3        0.0939
     24  N         11.9030  -16.2970   59.2170 N.am    4  GLY4       -0.1918
     25  CA        11.6230  -14.9180   59.6240 C.3     4  GLY4        0.2285
     26  C         10.3340  -14.9120   60.4750 C.2     4  GLY4        0.3865
     27  O         10.2360  -13.8790   61.2000 O.co2   4  GLY4       -0.2437
     28  OXT        9.5550  -15.8770   60.3940 O.co2   4  GLY4       -0.2437
@<TRIPOS>BOND
     1     6     5    1
     2     7     5    1
     3     5     2    1
     4     2     1    1
     5     2     3    1
     6    11    10    2
     7     3     8   am
     8     3     4    2
     9     8     9    1
    10    24    25    1
    11    24    19   am
    12    10    17   am
    13    10     9    1
    14    18    21    1
    15    18    17    1
    16    18    19    1
    17    25    26    1
    18    21    22    1
    19    17    23    1
    20     9    12    1
    21    19    20    2
    22    28    26   ar
    23    26    27   ar
    24    22    23    1
    25    12    13    1
    26    13    14    1
    27    14    15    1
    28    15    16    1
