@<TRIPOS>MOLECULE
1olc_III_B_1.pdb
 33 32 0 0 0
SMALL
GASTEIGER

@<TRIPOS>ATOM
      1  N          6.8180   17.0800   15.2630 N.3     1  LYS1       -0.1231
      2  CA         6.4060   18.3910   14.6950 C.3     1  LYS1        0.1693
      3  C          5.1930   18.9020   15.4660 C.2     1  LYS1        0.2592
      4  O          4.3960   18.0550   15.9290 O.2     1  LYS1       -0.2718
      5  CB         6.1210   18.2770   13.1750 C.3     1  LYS1        0.0285
      6  CG         5.3480   17.0560   12.7390 C.3     1  LYS1        0.0035
      7  CD         5.2030   16.9170   11.2160 C.3     1  LYS1        0.0206
      8  CE         6.4020   16.2160   10.5680 C.3     1  LYS1        0.1093
      9  NZ         6.4910   14.8360   11.1040 N.3     1  LYS1       -0.1314
     10  N          5.0510   20.1940   15.6680 N.am    2  LYS2       -0.1966
     11  CA         3.9110   20.8350   16.3400 C.3     2  LYS2        0.1728
     12  C          2.6900   20.8210   15.4520 C.2     2  LYS2        0.2616
     13  O          2.6930   21.1870   14.2620 O.2     2  LYS2       -0.2715
     14  CB         4.3220   22.2890   16.7840 C.3     2  LYS2        0.0311
     15  CG         5.4640   22.1830   17.8060 C.3     2  LYS2        0.0038
     16  CD         5.7060   23.2320   18.7930 C.3     2  LYS2        0.0206
     17  CE         6.0770   22.8220   20.2340 C.3     2  LYS2        0.1093
     18  NZ         7.3330   22.0440   20.3070 N.3     2  LYS2       -0.1314
     19  N          1.5380   20.3010   15.9760 N.am    3  LYS3       -0.1963
     20  CA         0.3610   20.1590   15.1950 C.3     3  LYS3        0.1728
     21  C         -0.6230   21.3100   15.4330 C.2     3  LYS3        0.2617
     22  O         -1.2260   21.4070   16.5200 O.2     3  LYS3       -0.2715
     23  CB        -0.4640   18.8500   15.5670 C.3     3  LYS3        0.0311
     24  CG        -1.2900   18.6270   14.2470 C.3     3  LYS3        0.0038
     25  CD        -2.4740   17.7770   14.5040 C.3     3  LYS3        0.0206
     26  CE        -3.2590   17.5100   13.2250 C.3     3  LYS3        0.1093
     27  NZ        -4.1530   18.6390   12.8830 N.3     3  LYS3       -0.1314
     28  N         -0.7910   22.1230   14.4010 N.am    4  ALA4       -0.1942
     29  CA        -1.7810   23.2220   14.4770 C.3     4  ALA4        0.1979
     30  C         -3.2070   22.6110   14.5690 C.2     4  ALA4        0.3842
     31  O         -4.1080   23.1660   15.2320 O.co2   4  ALA4       -0.2437
     32  CB        -1.7060   24.1110   13.2310 C.3     4  ALA4        0.0356
     33  OXT       -3.3560   21.5940   13.8740 O.co2   4  ALA4       -0.2437
@<TRIPOS>BOND
     1     8     9    1
     2     8     7    1
     3     7     6    1
     4     6     5    1
     5    27    26    1
     6     5     2    1
     7    26    25    1
     8    32    29    1
     9    33    30   ar
    10    24    25    1
    11    24    23    1
    12    13    12    2
    13    28    29    1
    14    28    21   am
    15    29    30    1
    16    30    31   ar
    17     2     1    1
    18     2     3    1
    19    20    21    1
    20    20    23    1
    21    20    19    1
    22    21    22    2
    23    12    19   am
    24    12    11    1
    25     3    10   am
    26     3     4    2
    27    10    11    1
    28    11    14    1
    29    14    15    1
    30    15    16    1
    31    16    17    1
    32    17    18    1
