@<TRIPOS>MOLECULE
1olm_VTQ_A_1.pdb
 32 32 0 0 0
SMALL
GASTEIGER

@<TRIPOS>ATOM
      1  O3       -12.3620   26.2250   29.1380 O.3   1322  VTQ1322    -0.2257
      2  C9       -12.0700   24.8510   28.8450 C.3   1322  VTQ1322     0.1270
      3  C14      -12.7200   23.9280   29.8690 C.3   1322  VTQ1322     0.0329
      4  C11      -12.6360   24.5510   27.4720 C.3   1322  VTQ1322     0.0352
      5  C10      -11.9020   25.3330   26.3910 C.3   1322  VTQ1322     0.0319
      6  C3       -12.8810   25.3920   25.2500 C.2   1322  VTQ1322     0.0156
      7  C2       -12.6140   24.8030   24.0210 C.2   1322  VTQ1322     0.0158
      8  C8       -11.3070   24.0810   23.7870 C.3   1322  VTQ1322     0.0341
      9  C4       -14.0790   26.0520   25.4710 C.2   1322  VTQ1322     0.1873
     10  O1       -14.2910   26.5650   26.5710 O.2   1322  VTQ1322    -0.2873
     11  C5       -15.0250   26.1380   24.4650 C.2   1322  VTQ1322     0.0158
     12  C12      -16.3180   26.8680   24.7330 C.3   1322  VTQ1322     0.0341
     13  C6       -14.7650   25.5550   23.2230 C.2   1322  VTQ1322     0.0158
     14  C13      -15.7900   25.6410   22.1140 C.3   1322  VTQ1322     0.0341
     15  C7       -13.5620   24.8890   23.0020 C.2   1322  VTQ1322     0.1873
     16  O2       -13.3390   24.3760   21.9040 O.2   1322  VTQ1322    -0.2873
     17  C15      -10.5610   24.6020   28.8540 C.3   1322  VTQ1322     0.0304
     18  C16      -10.2360   23.1160   28.9740 C.3   1322  VTQ1322     0.0025
     19  C17       -8.7290   22.8900   29.0360 C.3   1322  VTQ1322     0.0001
     20  C18       -8.3910   21.4270   29.2950 C.3   1322  VTQ1322     0.0000
     21  C19       -6.9080   21.2100   29.5550 C.3   1322  VTQ1322     0.0000
     22  C20       -8.8120   20.6100   28.0870 C.3   1322  VTQ1322     0.0000
     23  C21       -8.0310   19.3030   28.0560 C.3   1322  VTQ1322     0.0000
     24  C22       -8.6320   18.5080   26.8920 C.3   1322  VTQ1322     0.0000
     25  C23       -7.9780   17.1400   26.8200 C.3   1322  VTQ1322     0.0000
     26  C1        -6.5140   17.3390   26.4310 C.3   1322  VTQ1322     0.0000
     27  C24       -8.7380   16.2040   25.8670 C.3   1322  VTQ1322     0.0000
     28  C25       -9.3490   16.8470   24.6320 C.3   1322  VTQ1322     0.0000
     29  C26      -10.2850   15.8570   23.9540 C.3   1322  VTQ1322     0.0000
     30  C27      -10.0690   15.7800   22.4580 C.3   1322  VTQ1322     0.0000
     31  C28       -9.9600   14.3200   22.0310 C.3   1322  VTQ1322     0.0000
     32  C29      -11.1820   16.4700   21.6850 C.3   1322  VTQ1322     0.0000
@<TRIPOS>BOND
     1    32    30    1
     2    16    15    2
     3    31    30    1
     4    14    13    1
     5    30    29    1
     6    15    13    1
     7    15     7    1
     8    13    11    2
     9     8     7    1
    10    29    28    1
    11     7     6    2
    12    11    12    1
    13    11     9    1
    14    28    27    1
    15     6     9    1
    16     6     5    1
    17     9    10    2
    18    27    25    1
    19     5     4    1
    20    26    25    1
    21    25    24    1
    22    24    23    1
    23     4     2    1
    24    23    22    1
    25    22    20    1
    26     2    17    1
    27     2     1    1
    28     2     3    1
    29    17    18    1
    30    18    19    1
    31    19    20    1
    32    20    21    1
