@<TRIPOS>MOLECULE
1olt_SAM_A_1.pdb
 27 29 0 0 0
SMALL
GASTEIGER

@<TRIPOS>ATOM
      1  N         19.4990   58.6020    9.7860 N.3   501  SAM501     -0.1208
      2  CA        20.0760   58.1220    8.5380 C.3   501  SAM501      0.1952
      3  C         20.1440   56.5940    8.4230 C.2   501  SAM501      0.3819
      4  O         20.0740   55.8880    9.4880 O.co2 501  SAM501     -0.2441
      5  OXT       20.1900   56.1710    7.2860 O.co2 501  SAM501     -0.2441
      6  CB        21.5090   58.6870    8.4850 C.3   501  SAM501      0.0414
      7  C4'       25.3100   56.5480   11.2170 C.3   501  SAM501      0.1622
      8  O4'       25.8190   56.1740   12.4910 O.3   501  SAM501     -0.3153
      9  C3'       24.4270   55.3760   10.8600 C.3   501  SAM501      0.2168
     10  O3'       24.0930   55.3050    9.4690 O.3   501  SAM501     -0.2175
     11  C2'       25.1920   54.1720   11.4250 C.3   501  SAM501      0.2569
     12  O2'       26.0220   53.5800   10.4260 O.3   501  SAM501     -0.2130
     13  C1'       26.0730   54.7860   12.4850 C.3   501  SAM501      0.3185
     14  N9        25.8120   54.2920   13.8220 N.pl3 501  SAM501     -0.1439
     15  C8        24.7340   54.6520   14.5890 C.3   501  SAM501      0.3377
     16  N7        24.8180   54.0410   15.7670 N.2   501  SAM501     -0.2095
     17  C5        25.9710   53.2990   15.7660 C.2   501  SAM501      0.2526
     18  C6        26.5740   52.4660   16.7240 C.2   501  SAM501      0.4393
     19  N6        26.0590   52.2610   17.9360 N.pl3 501  SAM501      0.2180
     20  N1        27.7510   51.8560   16.3920 N.2   501  SAM501      0.0021
     21  C2        28.3190   52.0570   15.1290 C.3   501  SAM501      0.5254
     22  N3        27.7480   52.8650   14.2060 N.2   501  SAM501     -0.0055
     23  C4        26.5830   53.4630   14.5290 C.2   501  SAM501      0.3518
     24  CG        22.6680   57.9670    9.1200 C.3   501  SAM501      0.0503
     25  SD        22.7120   57.9680   10.8940 S.3   501  SAM501     -0.1761
     26  CE        22.5960   59.7000   11.3610 C.3   501  SAM501      0.0590
     27  C5'       24.5600   57.9270   11.2080 C.3   501  SAM501      0.0806
@<TRIPOS>BOND
     1     5     3   ar
     2     3     2    1
     3     3     4   ar
     4     6     2    1
     5     6    24    1
     6     2     1    1
     7    24    25    1
     8    10     9    1
     9    12    11    1
    10     9     7    1
    11     9    11    1
    12    25    27    1
    13    25    26    1
    14    27     7    1
    15     7     8    1
    16    11    13    1
    17    13     8    1
    18    13    14    1
    19    14    23    1
    20    14    15    1
    21    22    23    2
    22    22    21    1
    23    23    17    1
    24    15    16    1
    25    21    20    1
    26    17    16    2
    27    17    18    1
    28    20    18    2
    29    18    19    1
