@<TRIPOS>MOLECULE
1olx_TDP_A_1.pdb
 26 27 0 0 0
SMALL
GASTEIGER

@<TRIPOS>ATOM
      1  N1'       77.2010    0.5650   11.6500 N.2   601  TDP601     -0.1861
      2  C2'       77.4630    1.7830   12.1580 C.1   601  TDP601      0.0663
      3  C2A       77.5550    1.8660   13.6830 C.3   601  TDP601      0.1291
      4  N3'       77.6430    2.8940   11.3810 N.2   601  TDP601     -0.3368
      5  C4'       77.5410    2.7130   10.0480 C.2   601  TDP601      0.2292
      6  N4'       77.7330    3.8440    9.3150 N.pl3 601  TDP601     -0.0925
      7  C5'       77.2660    1.4320    9.4140 C.2   601  TDP601      0.0654
      8  C6'       77.0990    0.3750   10.3200 C.2   601  TDP601      0.1115
      9  C35       77.1590    1.2490    7.8810 C.3   601  TDP601      0.1237
     10  N3        75.9320    1.8660    7.3190 N.pl3 601  TDP601     -0.2970
     11  C2        75.9500    3.1120    6.7310 C.3   601  TDP601      0.1543
     12  S1        74.3290    3.5720    6.2000 S.3   601  TDP601     -0.0951
     13  C5        73.6800    2.0570    6.7790 C.2   601  TDP601      0.0164
     14  C4        74.5830    1.2170    7.3540 C.2   601  TDP601      0.0279
     15  C4A       74.3140   -0.1720    7.9600 C.3   601  TDP601      0.0473
     16  C5A       72.1800    1.9210    6.5600 C.3   601  TDP601      0.0661
     17  C5B       71.3880    2.7750    7.5860 C.3   601  TDP601      0.1544
     18  O5G       69.9990    2.6740    7.2480 O.3   601  TDP601     -0.3134
     19  P1        68.9720    3.7060    7.7490 P.3   601  TDP601      0.2230
     20  O11       69.0130    4.9850    6.8360 O.3   601  TDP601     -0.2261
     21  O12       69.2770    4.0940    9.1750 O.3   601  TDP601     -0.4370
     22  O13       67.6420    3.0380    7.6400 O.2   601  TDP601     -0.5169
     23  P2        68.7590    5.2370    5.2700 P.3   601  TDP601      0.5373
     24  O21       68.2420    6.6700    5.2020 O.3   601  TDP601     -0.1143
     25  O22       70.1080    5.0990    4.6290 O.2   601  TDP601     -0.2221
     26  O23       67.7570    4.2830    4.7560 O.3   601  TDP601     -0.1143
@<TRIPOS>BOND
     1    25    23    2
     2    26    23    1
     3    24    23    1
     4    23    20    1
     5    12    11    1
     6    12    13    1
     7    16    13    1
     8    16    17    1
     9    11    10    1
    10    13    14    2
    11    20    19    1
    12    18    17    1
    13    18    19    1
    14    10    14    1
    15    10     9    1
    16    14    15    1
    17    22    19    2
    18    19    21    1
    19     9     7    1
    20     6     5    1
    21     7     5    1
    22     7     8    2
    23     5     4    2
    24     8     1    1
    25     4     2    2
    26     1     2    2
    27     2     3    1
