@<TRIPOS>MOLECULE
1om1_IQA_A_1.pdb
 22 25 0 0 0
SMALL
GASTEIGER

@<TRIPOS>ATOM
      1  O21       23.8570    7.3150   14.0900 O.co2 338  IQA338     -0.2405
      2  C20       24.5430    6.4110   14.9470 C.2   338  IQA338      0.3881
      3  O22       25.3990    5.5830   14.4000 O.co2 338  IQA338     -0.2405
      4  C18       24.2740    6.4130   16.4580 C.2   338  IQA338      0.0903
      5  C5        23.2490    7.3080   17.3260 C.ar  338  IQA338      0.0558
      6  C8        22.9800    6.9520   18.5770 C.ar  338  IQA338      0.2122
      7  N11       23.5250    5.8420   19.2160 N.2   338  IQA338     -0.3144
      8  C10       23.1860    5.5330   20.5550 C.1   338  IQA338      0.2075
      9  O19       23.7030    4.5200   21.0930 O.2   338  IQA338     -0.2092
     10  C12       22.2270    6.3940   21.3240 C.ar  338  IQA338      0.1108
     11  C17       21.8850    6.0760   22.6850 C.ar  338  IQA338      0.0141
     12  C16       20.9700    6.8950   23.4230 C.ar  338  IQA338      0.0009
     13  C15       20.3850    8.0360   22.8270 C.ar  338  IQA338      0.0015
     14  C14       20.7110    8.3770   21.4610 C.ar  338  IQA338      0.0184
     15  C13       21.6440    7.5680   20.6640 C.ar  338  IQA338      0.0781
     16  N9        22.0490    7.8370   19.2380 N.ar  338  IQA338     -0.2806
     17  C7        21.7140    8.8400   18.2880 C.ar  338  IQA338      0.0664
     18  C6        22.4400    8.5520   17.0800 C.ar  338  IQA338      0.0204
     19  C4        22.3050    9.4130   15.9120 C.ar  338  IQA338      0.0016
     20  C1        21.4230   10.5590   16.0080 C.ar  338  IQA338      0.0001
     21  C2        20.7080   10.8340   17.2070 C.ar  338  IQA338      0.0015
     22  C3        20.8380    9.9880   18.3580 C.ar  338  IQA338      0.0176
@<TRIPOS>BOND
     1     1     2   ar
     2     3     2   ar
     3     2     4    1
     4    19    20   ar
     5    19    18   ar
     6    20    21   ar
     7     4     5    2
     8    18     5   ar
     9    18    17   ar
    10    21    22   ar
    11     5     6   ar
    12    17    22   ar
    13    17    16   ar
    14     6     7    2
    15     6    16   ar
    16     7     8    2
    17    16    15    1
    18     8     9    2
    19     8    10    1
    20    15    10   ar
    21    15    14   ar
    22    10    11   ar
    23    14    13   ar
    24    11    12   ar
    25    13    12   ar
