@<TRIPOS>MOLECULE
1om4_ARG_B_1.pdb
 12 11 0 0 0
SMALL
GASTEIGER

@<TRIPOS>ATOM
      1  N          9.8620   -1.3090   26.2220 N.3   770  ARG770     -0.1208
      2  CA         9.2790   -1.5290   24.8630 C.3   770  ARG770      0.1944
      3  C          9.0840   -3.0400   24.6470 C.2   770  ARG770      0.3819
      4  O          8.5990   -3.4350   23.5710 O.co2 770  ARG770     -0.2441
      5  CB        10.2200   -0.9410   23.7790 C.3   770  ARG770      0.0343
      6  CG        10.4880    0.5690   23.9000 C.3   770  ARG770      0.0490
      7  CD        11.7780    0.9720   23.1650 C.3   770  ARG770      0.2205
      8  NE        12.9590    0.2390   23.6520 N.pl3 770  ARG770     -0.0865
      9  CZ        14.2070    0.3360   23.1750 C.cat 770  ARG770      0.5346
     10  NH1       14.5070    1.1500   22.1650 N.pl3 770  ARG770      0.1354
     11  NH2       15.1670   -0.3990   23.7220 N.pl3 770  ARG770      0.1354
     12  OXT        9.4180   -3.8270   25.5620 O.co2 770  ARG770     -0.2441
@<TRIPOS>BOND
     1    10     9    1
     2     7     8    1
     3     7     6    1
     4     9     8    2
     5     9    11    1
     6     4     3   ar
     7     5     6    1
     8     5     2    1
     9     3     2    1
    10     3    12   ar
    11     2     1    1
