@<TRIPOS>MOLECULE
1om4_H4B_A_1.pdb
 17 18 0 0 0
SMALL
GASTEIGER

@<TRIPOS>ATOM
      1  N1        10.0520    2.4980   33.8760 N.2   760  H4B760     -0.2683
      2  C2        10.2060    2.1130   32.5800 C.1   760  H4B760      0.2608
      3  N2        11.4000    1.9620   32.0180 N.pl3 760  H4B760     -0.0220
      4  N3         9.0810    1.8770   31.8480 N.2   760  H4B760     -0.2474
      5  C4         7.7590    2.0130   32.3370 C.1   760  H4B760      0.2441
      6  O4         6.8090    1.7710   31.5800 O.2   760  H4B760     -0.2063
      7  C4A        7.6890    2.4210   33.6870 C.2   760  H4B760      0.2463
      8  C8A        8.8190    2.6640   34.4600 C.1   760  H4B760      0.1270
      9  N5         6.3550    2.5940   34.2540 N.2   760  H4B760     -0.2460
     10  N8         8.7530    3.0440   35.7430 N.2   760  H4B760     -0.2054
     11  C6         6.3240    3.5620   35.4410 C.3   760  H4B760      0.1627
     12  C7         7.4550    3.2240   36.4100 C.3   760  H4B760      0.1643
     13  C9         4.9030    3.4670   36.0370 C.3   760  H4B760      0.2063
     14  O9         4.5180    2.1610   36.4320 O.3   760  H4B760     -0.2183
     15  C10        4.7080    4.4000   37.2510 C.3   760  H4B760      0.1842
     16  C11        3.2760    4.4590   37.6630 C.3   760  H4B760      0.0383
     17  O10        5.1410    5.6810   36.7940 O.3   760  H4B760     -0.2204
@<TRIPOS>BOND
     1     6     5    2
     2     4     5    2
     3     4     2    2
     4     3     2    1
     5     5     7    1
     6     2     1    2
     7     7     9    2
     8     7     8    1
     9     1     8    2
    10     9    11    1
    11     8    10    2
    12    11    13    1
    13    11    12    1
    14    10    12    1
    15    13    14    1
    16    13    15    1
    17    17    15    1
    18    15    16    1
