@<TRIPOS>MOLECULE
1om5_H4B_A_1.pdb
 17 18 0 0 0
SMALL
GASTEIGER

@<TRIPOS>ATOM
      1  N1         9.6870    2.5670   33.9570 N.2   760  H4B760     -0.2683
      2  C2         9.8420    2.1010   32.7060 C.1   760  H4B760      0.2608
      3  N2        11.0370    1.9160   32.1640 N.pl3 760  H4B760     -0.0220
      4  N3         8.7260    1.8170   31.9960 N.2   760  H4B760     -0.2474
      5  C4         7.4000    1.9690   32.4700 C.1   760  H4B760      0.2441
      6  O4         6.4490    1.6720   31.7220 O.2   760  H4B760     -0.2063
      7  C4A        7.3300    2.4690   33.7940 C.2   760  H4B760      0.2463
      8  C8A        8.4570    2.7570   34.5370 C.1   760  H4B760      0.1270
      9  N5         5.9970    2.6670   34.3750 N.2   760  H4B760     -0.2460
     10  N8         8.4040    3.2250   35.7840 N.2   760  H4B760     -0.2054
     11  C6         5.9800    3.7200   35.5020 C.3   760  H4B760      0.1627
     12  C7         7.1290    3.4470   36.4580 C.3   760  H4B760      0.1643
     13  C9         4.5840    3.6510   36.1440 C.3   760  H4B760      0.2063
     14  O9         4.2390    2.3590   36.6220 O.3   760  H4B760     -0.2183
     15  C10        4.4140    4.6550   37.3080 C.3   760  H4B760      0.1842
     16  C11        3.0000    4.7110   37.7590 C.3   760  H4B760      0.0383
     17  O10        4.7990    5.9220   36.7740 O.3   760  H4B760     -0.2204
@<TRIPOS>BOND
     1     6     5    2
     2     4     5    2
     3     4     2    2
     4     3     2    1
     5     5     7    1
     6     2     1    2
     7     7     9    2
     8     7     8    1
     9     1     8    2
    10     9    11    1
    11     8    10    2
    12    11    13    1
    13    11    12    1
    14    10    12    1
    15    13    14    1
    16    13    15    1
    17    17    15    1
    18    15    16    1
