@<TRIPOS>MOLECULE
1om5_HEM_A_1.pdb
 43 50 0 0 0
SMALL
GASTEIGER

@<TRIPOS>ATOM
      1 FE         15.4930    4.2640   24.6830 Fe    750  HEM750      0.0000
      2  CHA       12.7150    4.5200   26.7920 C.2   750  HEM750      0.0000
      3  CHB       16.4380    1.4740   26.3840 C.2   750  HEM750      0.0000
      4  CHC       17.5060    3.4150   22.0750 C.2   750  HEM750      0.0000
      5  CHD       14.2690    6.9570   22.8780 C.2   750  HEM750      0.0000
      6  NA        14.7820    3.2740   26.2870 N.2   750  HEM750      0.0000
      7  C1A       13.6070    3.4970   27.0370 C.2   750  HEM750      0.0000
      8  C2A       13.4840    2.5750   28.1510 C.2   750  HEM750      0.0000
      9  C3A       14.5870    1.7880   28.0690 C.2   750  HEM750      0.0000
     10  C4A       15.3500    2.1830   26.9080 C.2   750  HEM750      0.0000
     11  CMA       14.8370    0.6230   28.9940 C.3   750  HEM750      0.0000
     12  CAA       12.2660    2.3300   29.0560 C.3   750  HEM750      0.0000
     13  CBA       11.4300    1.3790   28.2280 C.3   750  HEM750      0.0000
     14  CGA       10.0290    1.1790   28.7620 C.2   750  HEM750      0.0000
     15  O1A        9.9060    0.8310   29.9550 O.co2 750  HEM750      0.0000
     16  O2A        9.0580    1.3540   27.9840 O.co2 750  HEM750      0.0000
     17  NB        16.8500    2.8760   24.3890 N.ar  750  HEM750      0.0000
     18  C1B       17.1510    1.8030   25.2230 C.ar  750  HEM750      0.0000
     19  C2B       18.1910    0.9660   24.6690 C.ar  750  HEM750      0.0000
     20  C3B       18.4990    1.4960   23.4670 C.ar  750  HEM750      0.0000
     21  C4B       17.6670    2.6900   23.2900 C.ar  750  HEM750      0.0000
     22  CMB       18.7420   -0.3320   25.2700 C.3   750  HEM750      0.0000
     23  CAB       19.3580    0.8520   22.5660 C.2   750  HEM750      0.0000
     24  CBB       20.1100    1.4390   21.5870 C.2   750  HEM750      0.0000
     25  NC        15.7680    4.9710   22.8350 N.2   750  HEM750      0.0000
     26  C1C       16.6000    4.4630   21.8540 C.2   750  HEM750      0.0000
     27  C2C       16.5540    5.2620   20.6440 C.2   750  HEM750      0.0000
     28  C3C       15.7530    6.3510   20.9390 C.2   750  HEM750      0.0000
     29  C4C       15.2400    6.1430   22.2630 C.2   750  HEM750      0.0000
     30  CMC       17.2530    4.9630   19.3010 C.3   750  HEM750      0.0000
     31  CAC       15.5020    7.4760   20.1390 C.2   750  HEM750      0.0000
     32  CBC       16.2760    7.9060   19.1030 C.2   750  HEM750      0.0000
     33  ND        13.9180    5.5150   24.8710 N.ar  750  HEM750      0.0000
     34  C1D       13.6150    6.6430   24.0740 C.ar  750  HEM750      0.0000
     35  C2D       12.4430    7.3230   24.5580 C.ar  750  HEM750      0.0000
     36  C3D       12.0270    6.6040   25.6360 C.ar  750  HEM750      0.0000
     37  C4D       12.8890    5.4800   25.8070 C.ar  750  HEM750      0.0000
     38  CMD       11.7540    8.5880   24.0750 C.3   750  HEM750      0.0000
     39  CAD       10.8510    6.9420   26.4980 C.3   750  HEM750      0.0000
     40  CBD        9.5980    6.5580   25.7390 C.3   750  HEM750      0.0000
     41  CGD        8.3890    6.4720   26.6350 C.2   750  HEM750      0.0000
     42  O1D        8.1720    7.4170   27.4160 O.co2 750  HEM750      0.0000
     43  O2D        7.6590    5.4620   26.5540 O.co2 750  HEM750      0.0000
@<TRIPOS>BOND
     1    32    31    2
     2    30    27    1
     3    31    28    1
     4    27    28    2
     5    27    26    1
     6    28    29    1
     7    24    23    2
     8    26     4    2
     9    26    25    1
    10     4    21    1
    11    29    25    2
    12    29     5    1
    13    23    20    1
    14    25     1    1
    15     5    34    2
    16    21    20   ar
    17    21    17   ar
    18    20    19   ar
    19    34    35   ar
    20    34    33   ar
    21    38    35    1
    22    17     1    1
    23    17    18   ar
    24    35    36   ar
    25    19    18   ar
    26    19    22    1
    27     1    33    1
    28     1     6    1
    29    33    37   ar
    30    18     3    1
    31    36    37   ar
    32    36    39    1
    33    40    39    1
    34    40    41    1
    35    37     2    2
    36     6    10    1
    37     6     7    2
    38     3    10    2
    39    43    41   ar
    40    41    42   ar
    41     2     7    1
    42    10     9    1
    43     7     8    1
    44    16    14   ar
    45     9     8    2
    46     9    11    1
    47     8    12    1
    48    13    14    1
    49    13    12    1
    50    14    15   ar
