@<TRIPOS>MOLECULE
1om5_INE_A_1.pdb
 13 14 0 0 0
SMALL
GASTEIGER

@<TRIPOS>ATOM
      1  N1        15.0840    0.0200   23.2900 N.2   790  INE790     -0.1498
      2  N2        15.2790    0.7750   22.1470 N.2   790  INE790     -0.1452
      3  C3        14.0470    1.5240   21.9650 C.2   790  INE790      0.1239
      4  C4        11.9330    1.5250   23.3730 C.2   790  INE790     -0.0138
      5  C5        11.3260    0.9840   24.4970 C.2   790  INE790     -0.0021
      6  C6        11.9890    0.0720   25.2750 C.2   790  INE790      0.0251
      7  C7        13.2700   -0.3220   24.9510 C.2   790  INE790      0.1587
      8  C8        13.8990    0.2220   23.8030 C.2   790  INE790      0.1127
      9  C9        13.2380    1.1370   23.0210 C.3   790  INE790      0.1139
     10  N10       13.9090   -1.2040   25.7040 N.pl3 790  INE790      0.0589
     11  O11       13.3750   -1.6740   26.7120 O.2   790  INE790     -0.1261
     12  O12       15.0340   -1.5480   25.4040 O.2   790  INE790     -0.1261
     13 BR         13.6340    2.7220   20.5240 Br    790  INE790     -0.0302
@<TRIPOS>BOND
     1    13     3    1
     2     3     2    2
     3     3     9    1
     4     2     1    1
     5     9     4    1
     6     9     8    1
     7     1     8    2
     8     4     5    2
     9     8     7    1
    10     5     6    1
    11     7     6    2
    12     7    10    1
    13    12    10    2
    14    10    11    2
