@<TRIPOS>MOLECULE
1omo_NAD_A_1.pdb
 44 48 0 0 0
SMALL
GASTEIGER

@<TRIPOS>ATOM
      1  PA        47.4400    9.2940   55.3490 P.3   400  NAD400      0.2189
      2  O1A       48.0450   10.6370   55.5290 O.2   400  NAD400     -0.5170
      3  O2A       46.1210    8.9730   56.0650 O.3   400  NAD400     -0.4371
      4  O5B       48.3920    7.9720   55.6230 O.3   400  NAD400     -0.3112
      5  C5B       49.8790    8.0520   55.6230 C.3   400  NAD400      0.1813
      6  C4B       50.3480    7.6230   57.0380 C.3   400  NAD400      0.1821
      7  O4B       51.8380    7.6810   56.9230 O.3   400  NAD400     -0.3135
      8  C3B       50.0500    8.6260   58.2510 C.3   400  NAD400      0.2184
      9  O3B       49.3450    7.9280   59.3530 O.3   400  NAD400     -0.2174
     10  C2B       51.4260    9.1960   58.6730 C.3   400  NAD400      0.2570
     11  O2B       51.6160    9.6280   59.9710 O.3   400  NAD400     -0.2130
     12  C1B       52.3630    8.0520   58.1760 C.3   400  NAD400      0.3186
     13  N9A       53.6870    8.4910   57.8450 N.pl3 400  NAD400     -0.1439
     14  C8A       54.1570    9.6260   57.2150 C.3   400  NAD400      0.3377
     15  N7A       55.4660    9.6470   57.0800 N.2   400  NAD400     -0.2095
     16  C5A       55.9450    8.5310   57.6130 C.2   400  NAD400      0.2526
     17  C6A       57.3060    8.0080   57.7390 C.2   400  NAD400      0.4393
     18  N6A       58.3460    8.6770   57.3120 N.pl3 400  NAD400      0.2180
     19  N1A       57.3970    6.7730   58.3570 N.2   400  NAD400      0.0021
     20  C2A       56.3350    6.0710   58.8180 C.3   400  NAD400      0.5254
     21  N3A       55.0050    6.5390   58.7230 N.2   400  NAD400     -0.0055
     22  C4A       54.8610    7.7660   58.0960 C.2   400  NAD400      0.3518
     23  O3        47.2240    8.7540   53.7890 O.3   400  NAD400     -0.2703
     24  PN        46.5440    7.3730   53.0700 P.3   400  NAD400      0.2189
     25  O1N       46.2730    6.3780   54.1680 O.3   400  NAD400     -0.4371
     26  O2N       45.4740    7.8130   52.0910 O.2   400  NAD400     -0.5170
     27  O5D       47.9200    6.8790   52.2310 O.3   400  NAD400     -0.3112
     28  C5D       48.5870    8.1370   51.5630 C.3   400  NAD400      0.1813
     29  C4D       49.6960    7.7660   50.6340 C.3   400  NAD400      0.1799
     30  O4D       49.1200    6.7750   49.6130 O.3   400  NAD400     -0.3327
     31  C3D       50.2580    8.9330   49.7620 C.3   400  NAD400      0.2158
     32  O3D       51.6100    8.6890   49.3310 O.3   400  NAD400     -0.2175
     33  C2D       49.2450    8.9270   48.6130 C.3   400  NAD400      0.2309
     34  O2D       49.5260    9.8200   47.5860 O.3   400  NAD400     -0.2158
     35  C1D       49.2220    7.3660   48.2550 C.3   400  NAD400      0.2263
     36  N1N       48.0240    6.7530   47.5830 N.pl3 400  NAD400     -0.2787
     37  C2N       48.3950    5.9460   46.4210 C.3   400  NAD400      0.1244
     38  C3N       47.3020    5.1840   45.8700 C.2   400  NAD400      0.0544
     39  C7N       47.7270    4.2910   44.5560 C.2   400  NAD400      0.2818
     40  O7N       46.8200    3.9720   43.7350 O.2   400  NAD400     -0.2670
     41  N7N       49.0410    3.9200   44.4250 N.am  400  NAD400     -0.0839
     42  C4N       45.9710    5.1430   46.3490 C.2   400  NAD400      0.0033
     43  C5N       45.7500    5.9890   47.5110 C.2   400  NAD400      0.0157
     44  C6N       46.7530    6.7670   48.1110 C.2   400  NAD400      0.0633
@<TRIPOS>BOND
     1    40    39    2
     2    41    39   am
     3    39    38    1
     4    38    42    2
     5    38    37    1
     6    42    43    1
     7    37    36    1
     8    43    44    2
     9    36    44    1
    10    36    35    1
    11    34    33    1
    12    35    33    1
    13    35    30    1
    14    33    31    1
    15    32    31    1
    16    30    29    1
    17    31    29    1
    18    29    28    1
    19    28    27    1
    20    26    24    2
    21    27    24    1
    22    24    23    1
    23    24    25    1
    24    23     1    1
    25     1     2    2
    26     1     4    1
    27     1     3    1
    28     4     5    1
    29     5     6    1
    30     7     6    1
    31     7    12    1
    32     6     8    1
    33    15    14    1
    34    15    16    2
    35    14    13    1
    36    18    17    1
    37    16    17    1
    38    16    22    1
    39    17    19    2
    40    13    22    1
    41    13    12    1
    42    22    21    2
    43    12    10    1
    44     8    10    1
    45     8     9    1
    46    19    20    1
    47    10    11    1
    48    21    20    1
