@<TRIPOS>MOLECULE
1omz_UD2_A_1.pdb
 39 41 0 0 0
SMALL
GASTEIGER

@<TRIPOS>ATOM
      1  C1'      -21.8400  -55.9540  -41.7710 C.3   405  UD2405      0.2633
      2  C2'      -22.8550  -56.6480  -40.8240 C.3   405  UD2405      0.1845
      3  C3'      -23.9630  -57.3320  -41.6600 C.3   405  UD2405      0.2094
      4  C4'      -24.6790  -56.2650  -42.5310 C.3   405  UD2405      0.2136
      5  C5'      -23.6270  -55.5920  -43.4640 C.3   405  UD2405      0.1834
      6  C6'      -24.2040  -54.4890  -44.3500 C.3   405  UD2405      0.2142
      7  C7'      -21.3950  -57.2570  -38.9110 C.2   405  UD2405      0.2420
      8  C8'      -21.1630  -58.3170  -37.8420 C.3   405  UD2405      0.0964
      9  N2'      -22.1490  -57.6210  -39.9650 N.am  405  UD2405     -0.1992
     10  O1'      -20.9890  -56.9380  -42.3840 O.3   405  UD2405     -0.2864
     11  O3'      -24.9010  -57.9560  -40.7980 O.3   405  UD2405     -0.2183
     12  O4'      -25.2950  -55.2740  -41.6930 O.3   405  UD2405     -0.2176
     13  O5'      -22.5150  -55.0150  -42.6830 O.3   405  UD2405     -0.3260
     14  O6'      -23.5460  -54.4300  -45.6100 O.3   405  UD2405     -0.2176
     15  O7'      -20.8850  -56.1290  -38.7770 O.2   405  UD2405     -0.2733
     16  N1       -24.2940  -60.0630  -48.2840 N.am  405  UD2405     -0.1766
     17  C2       -25.2180  -60.2000  -49.3430 C.1   405  UD2405      0.2845
     18  N3       -24.8550  -59.4920  -50.5000 N.2   405  UD2405     -0.2452
     19  C4       -23.6990  -58.6940  -50.6850 C.1   405  UD2405      0.2182
     20  C5       -22.8110  -58.6100  -49.5470 C.2   405  UD2405      0.1242
     21  C6       -23.1200  -59.2720  -48.4220 C.2   405  UD2405      0.0929
     22  O2       -26.2460  -60.8690  -49.2730 O.2   405  UD2405     -0.1918
     23  O4       -23.4980  -58.1300  -51.7470 O.2   405  UD2405     -0.2085
     24  C1B      -24.5950  -60.7800  -47.0120 C.3   405  UD2405      0.2401
     25  C2B      -23.4560  -61.7440  -46.6720 C.3   405  UD2405      0.2319
     26  O2'      -23.5780  -63.0190  -47.2760 O.3   405  UD2405     -0.2157
     27  C3B      -23.4630  -61.7920  -45.1520 C.3   405  UD2405      0.2158
     28  C4B      -24.0080  -60.4270  -44.7410 C.3   405  UD2405      0.1799
     29  O4B      -24.6990  -59.8590  -45.9020 O.3   405  UD2405     -0.3320
     30  O3B      -24.3180  -62.8120  -44.5940 O.3   405  UD2405     -0.2175
     31  C5B      -22.9010  -59.4890  -44.3040 C.3   405  UD2405      0.1813
     32  O5B      -21.9440  -59.3210  -45.3360 O.3   405  UD2405     -0.3112
     33  PA       -20.3930  -59.1220  -45.0210 P.3   405  UD2405      0.2189
     34  O1A      -19.9470  -59.8710  -43.8110 O.3   405  UD2405     -0.4371
     35  O2A      -19.6120  -59.3270  -46.2410 O.2   405  UD2405     -0.5170
     36  O3A      -20.2220  -57.5900  -44.6800 O.3   405  UD2405     -0.2703
     37  PB       -19.7830  -56.7240  -43.4420 P.3   405  UD2405      0.2208
     38  O1B      -18.6420  -57.3850  -42.8030 O.3   405  UD2405     -0.4371
     39  O2B      -19.7750  -55.2880  -43.8690 O.2   405  UD2405     -0.5170
@<TRIPOS>BOND
     1    23    19    2
     2    19    18    2
     3    19    20    1
     4    18    17    2
     5    20    21    2
     6    17    22    2
     7    17    16   am
     8    21    16    1
     9    16    24    1
    10    26    25    1
    11    24    25    1
    12    24    29    1
    13    25    27    1
    14    35    33    2
    15    29    28    1
    16    14     6    1
    17    32    33    1
    18    32    31    1
    19    27    28    1
    20    27    30    1
    21    33    36    1
    22    33    34    1
    23    28    31    1
    24    36    37    1
    25     6     5    1
    26    39    37    2
    27     5    13    1
    28     5     4    1
    29    37    38    1
    30    37    10    1
    31    13     1    1
    32     4    12    1
    33     4     3    1
    34    10     1    1
    35     1     2    1
    36     3     2    1
    37     3    11    1
    38     2     9    1
    39     9     7   am
    40     7    15    2
    41     7     8    1
