@<TRIPOS>MOLECULE
1on6_UD1_A_1.pdb
 39 41 0 0 0
SMALL
GASTEIGER

@<TRIPOS>ATOM
      1  C1'      -21.5860  -55.5900  -41.4040 C.3   401  UD1401      0.2633
      2  C2'      -22.0920  -55.7340  -39.9540 C.3   401  UD1401      0.1845
      3  C3'      -23.0770  -56.9280  -39.9150 C.3   401  UD1401      0.2094
      4  C4'      -24.2830  -56.7420  -40.8670 C.3   401  UD1401      0.2136
      5  C5'      -23.8910  -56.2140  -42.2830 C.3   401  UD1401      0.1834
      6  C6'      -25.0750  -55.4030  -42.8100 C.3   401  UD1401      0.2142
      7  C7'      -20.0490  -55.0740  -38.7460 C.2   401  UD1401      0.2420
      8  C8'      -18.6490  -55.6360  -38.5310 C.3   401  UD1401      0.0964
      9  N2'      -20.9710  -56.0090  -39.0450 N.am  401  UD1401     -0.1992
     10  O1'      -20.9300  -56.7870  -41.7810 O.3   401  UD1401     -0.2864
     11  O3'      -23.5690  -57.0920  -38.5840 O.3   401  UD1401     -0.2183
     12  O4'      -24.9350  -58.0030  -41.0290 O.3   401  UD1401     -0.2176
     13  O5'      -22.7310  -55.2920  -42.2680 O.3   401  UD1401     -0.3260
     14  O6'      -25.3360  -54.2460  -42.0330 O.3   401  UD1401     -0.2176
     15  O7'      -20.2660  -53.8440  -38.6310 O.2   401  UD1401     -0.2733
     16  N1       -24.3690  -60.1080  -48.1720 N.am  401  UD1401     -0.1766
     17  C2       -25.2570  -60.2910  -49.2640 C.1   401  UD1401      0.2845
     18  N3       -24.9000  -59.5770  -50.4060 N.2   401  UD1401     -0.2452
     19  C4       -23.7830  -58.7270  -50.5720 C.1   401  UD1401      0.2182
     20  C5       -22.9220  -58.5880  -49.4150 C.2   401  UD1401      0.1242
     21  C6       -23.2330  -59.2670  -48.2830 C.2   401  UD1401      0.0929
     22  O2       -26.2640  -61.0110  -49.2300 O.2   401  UD1401     -0.1918
     23  O4       -23.6090  -58.1680  -51.6540 O.2   401  UD1401     -0.2085
     24  C1B      -24.6590  -60.8260  -46.9150 C.3   401  UD1401      0.2401
     25  C2B      -23.5890  -61.8400  -46.4880 C.3   401  UD1401      0.2319
     26  O2'      -23.7120  -63.0640  -47.1860 O.3   401  UD1401     -0.2157
     27  C3B      -23.7970  -61.8910  -44.9770 C.3   401  UD1401      0.2158
     28  C4B      -24.2650  -60.4670  -44.6320 C.3   401  UD1401      0.1799
     29  O4B      -24.7810  -59.8880  -45.8620 O.3   401  UD1401     -0.3320
     30  O3B      -24.8080  -62.8350  -44.5750 O.3   401  UD1401     -0.2175
     31  C5B      -23.1500  -59.5530  -44.1400 C.3   401  UD1401      0.1813
     32  O5B      -22.1580  -59.3760  -45.1680 O.3   401  UD1401     -0.3112
     33  PA       -20.6560  -58.9400  -44.8440 P.3   401  UD1401      0.2189
     34  O1A      -20.0020  -58.8530  -46.1640 O.2   401  UD1401     -0.5170
     35  O2A      -20.0110  -59.9850  -44.0130 O.3   401  UD1401     -0.4371
     36  O3A      -20.7320  -57.6090  -44.1470 O.3   401  UD1401     -0.2703
     37  PB       -19.9140  -56.9280  -42.9930 P.3   401  UD1401      0.2208
     38  O1B      -19.4050  -55.5950  -43.4190 O.2   401  UD1401     -0.5170
     39  O2B      -18.8710  -57.8290  -42.4400 O.3   401  UD1401     -0.4371
@<TRIPOS>BOND
     1    23    19    2
     2    19    18    2
     3    19    20    1
     4    18    17    2
     5    20    21    2
     6    17    22    2
     7    17    16   am
     8    21    16    1
     9    16    24    1
    10    26    25    1
    11    24    25    1
    12    24    29    1
    13    25    27    1
    14    34    33    2
    15    29    28    1
    16    32    33    1
    17    32    31    1
    18    27    28    1
    19    27    30    1
    20    33    36    1
    21    33    35    1
    22    28    31    1
    23    36    37    1
    24    38    37    2
    25    37    39    1
    26    37    10    1
    27     6     5    1
    28     6    14    1
    29     5    13    1
    30     5     4    1
    31    13     1    1
    32    10     1    1
    33     1     2    1
    34    12     4    1
    35     4     3    1
    36     2     3    1
    37     2     9    1
    38     3    11    1
    39     9     7   am
    40     7    15    2
    41     7     8    1
