@<TRIPOS>MOLECULE
1on8_GAL_A_1.pdb
 11 11 0 0 0
SMALL
GASTEIGER

@<TRIPOS>ATOM
      1  C1       -12.1160  -54.2230  -35.6600 C.3   510  GAL510      0.2997
      2  C2       -13.5500  -54.7840  -35.6330 C.3   510  GAL510      0.2134
      3  C3       -14.3720  -54.1880  -36.7920 C.3   510  GAL510      0.0738
      4  C4       -14.3340  -52.6390  -36.7110 C.3   510  GAL510      0.1843
      5  C5       -12.8410  -52.1510  -36.7000 C.3   510  GAL510      0.1810
      6  C6       -12.7560  -50.6160  -36.5860 C.3   510  GAL510      0.2141
      7  O1       -11.4660  -54.7050  -34.5460 O.3   510  GAL510     -0.1870
      8  O2       -13.5590  -56.2060  -35.7160 O.3   510  GAL510     -0.2175
      9  O4       -15.0140  -52.1980  -35.5330 O.3   510  GAL510     -0.2204
     10  O5       -12.1250  -52.7690  -35.5880 O.3   510  GAL510     -0.3238
     11  O6       -12.7400  -50.1850  -35.2440 O.3   510  GAL510     -0.2176
@<TRIPOS>BOND
     1     3     4    1
     2     3     2    1
     3     4     5    1
     4     4     9    1
     5     5     6    1
     6     5    10    1
     7     6    11    1
     8     8     2    1
     9     1     2    1
    10     1    10    1
    11     1     7    1
