@<TRIPOS>MOLECULE
1on8_BDP_A_1.pdb
 13 13 0 0 0
SMALL
GASTEIGER

@<TRIPOS>ATOM
      1  C1       -16.6470  -54.4940  -37.8490 C.3   509  BDP509      0.3028
      2  C2       -17.6140  -55.7230  -37.8450 C.3   509  BDP509      0.2435
      3  C3       -18.6700  -55.4970  -38.9530 C.3   509  BDP509      0.2204
      4  C4       -19.4490  -54.2360  -38.5740 C.3   509  BDP509      0.2229
      5  C5       -18.6330  -53.0290  -38.4780 C.3   509  BDP509      0.2530
      6  C6       -19.2700  -51.8860  -38.0990 C.2   509  BDP509      0.3941
      7  O2       -16.9750  -56.7160  -38.1230 O.3   509  BDP509     -0.2148
      8  O3       -19.5930  -56.5810  -38.9920 O.3   509  BDP509     -0.2174
      9  O4       -20.4880  -53.9620  -39.5330 O.3   509  BDP509     -0.2171
     10  O5       -17.4750  -53.2700  -37.5190 O.3   509  BDP509     -0.3149
     11  O6A      -19.9930  -51.2560  -39.0380 O.co2 509  BDP509     -0.2429
     12  O1       -15.5960  -54.5850  -36.8320 O.3   509  BDP509     -0.1869
     13  O6B      -19.2220  -51.4140  -36.9760 O.co2 509  BDP509     -0.2429
@<TRIPOS>BOND
     1     9     4    1
     2    11     6   ar
     3     8     3    1
     4     3     4    1
     5     3     2    1
     6     4     5    1
     7     5     6    1
     8     5    10    1
     9     7     2    1
    10     6    13   ar
    11     1     2    1
    12     1    10    1
    13     1    12    1
