@<TRIPOS>MOLECULE
1on8_UDP_A_1.pdb
 25 26 0 0 0
SMALL
GASTEIGER

@<TRIPOS>ATOM
      1  N1       -23.9860  -59.5720  -47.6080 N.am  351  UDP351     -0.1766
      2  C2       -24.9550  -59.6250  -48.6270 C.1   351  UDP351      0.2845
      3  N3       -24.6830  -58.8250  -49.7180 N.2   351  UDP351     -0.2452
      4  C4       -23.5570  -57.9860  -49.8940 C.1   351  UDP351      0.2182
      5  C5       -22.6090  -57.9800  -48.8110 C.2   351  UDP351      0.1242
      6  C6       -22.8560  -58.7550  -47.7390 C.2   351  UDP351      0.0929
      7  O2       -25.9360  -60.3480  -48.4920 O.2   351  UDP351     -0.1918
      8  O4       -23.4420  -57.3310  -50.9110 O.2   351  UDP351     -0.2085
      9  C1'      -24.2250  -60.4300  -46.4090 C.3   351  UDP351      0.2401
     10  C2'      -23.1850  -61.3670  -45.8700 C.3   351  UDP351      0.2319
     11  O2'      -23.2610  -62.7050  -46.4060 O.3   351  UDP351     -0.2157
     12  C3'      -23.4100  -61.2840  -44.3590 C.3   351  UDP351      0.2158
     13  C4'      -23.9660  -59.8980  -44.1120 C.3   351  UDP351      0.1799
     14  O4'      -24.6440  -59.5850  -45.3530 O.3   351  UDP351     -0.3320
     15  O3'      -24.3590  -62.2340  -43.9230 O.3   351  UDP351     -0.2175
     16  C5'      -22.8940  -58.9090  -43.7360 C.3   351  UDP351      0.1813
     17  O5'      -21.8660  -58.6490  -44.6590 O.3   351  UDP351     -0.3111
     18  PA       -20.3360  -58.5160  -44.2620 P.3   351  UDP351      0.2231
     19  O1A      -19.5330  -58.2790  -45.4720 O.2   351  UDP351     -0.5169
     20  O2A      -19.8000  -59.6630  -43.4730 O.3   351  UDP351     -0.4370
     21  O3A      -20.4670  -57.1980  -43.2740 O.3   351  UDP351     -0.2261
     22  PB       -19.3220  -56.4980  -42.4950 P.3   351  UDP351      0.5373
     23  O1B      -19.9660  -55.0330  -42.3190 O.3   351  UDP351     -0.1143
     24  O2B      -18.1600  -56.4710  -43.4320 O.2   351  UDP351     -0.2221
     25  O3B      -18.8830  -57.3950  -41.3960 O.3   351  UDP351     -0.1143
@<TRIPOS>BOND
     1     8     4    2
     2     4     3    2
     3     4     5    1
     4     3     2    2
     5     5     6    2
     6     2     7    2
     7     2     1   am
     8     6     1    1
     9     1     9    1
    10     9    10    1
    11     9    14    1
    12    11    10    1
    13    10    12    1
    14    19    18    2
    15    14    13    1
    16    17    18    1
    17    17    16    1
    18    12    13    1
    19    12    15    1
    20    18    20    1
    21    18    21    1
    22    13    16    1
    23    24    22    2
    24    21    22    1
    25    22    23    1
    26    22    25    1
