@<TRIPOS>MOLECULE
1on9_MCA_A_1.pdb
 27 29 0 0 0
SMALL
GASTEIGER

@<TRIPOS>ATOM
      1  C8        92.4960   18.2150   46.4990 C.3   4001  MCA4001     0.3377
      2  N9        93.1750   19.3930   46.8370 N.pl3 4001  MCA4001    -0.1439
      3  C4        92.3260   20.0420   47.7080 C.2   4001  MCA4001     0.3518
      4  C5        91.1960   19.2050   47.8320 C.2   4001  MCA4001     0.2526
      5  N7        91.3260   18.0640   47.0610 N.2   4001  MCA4001    -0.2095
      6  N3        92.5270   21.2640   48.3430 N.2   4001  MCA4001    -0.0055
      7  C2        91.4710   21.6150   49.1480 C.3   4001  MCA4001     0.5254
      8  N1        90.3240   20.8880   49.3480 N.2   4001  MCA4001     0.0021
      9  C6        90.1440   19.6650   48.7020 C.2   4001  MCA4001     0.4393
     10  N6        89.0030   18.9960   48.9350 N.pl3 4001  MCA4001     0.2180
     11  C1'       94.3860   19.9010   46.4700 C.3   4001  MCA4001     0.3185
     12  C2'       95.4770   19.0980   47.1850 C.3   4001  MCA4001     0.2543
     13  O2'       95.7820   19.6780   48.4310 O.3   4001  MCA4001    -0.2131
     14  C3'       96.6030   19.0530   46.1510 C.3   4001  MCA4001     0.1928
     15  O3'       97.5730   20.0660   46.4040 O.3   4001  MCA4001    -0.2673
     16  C4'       95.9140   19.2050   44.7800 C.3   4001  MCA4001     0.1796
     17  O4'       94.5740   19.7340   45.0670 O.3   4001  MCA4001    -0.3136
     18  C5'       95.6650   17.9160   43.9250 C.3   4001  MCA4001     0.1859
     19  O5'       96.0720   16.9820   44.5430 O.3   4001  MCA4001    -0.2675
     20  P1        95.9820   15.6450   44.8550 P.3   4001  MCA4001     0.5327
     21  O11       94.8970   15.2680   45.5970 O.3   4001  MCA4001    -0.1145
     22  O12       97.1830   15.6420   45.4330 O.3   4001  MCA4001    -0.1145
     23  O6        95.8260   14.7370   43.4890 O.2   4001  MCA4001    -0.2224
     24  P3        99.1930   20.3990   46.2400 P.3   4001  MCA4001     0.5327
     25  O31       99.4610   19.3160   47.2470 O.3   4001  MCA4001    -0.1145
     26  O32       99.4240   21.7800   46.7930 O.3   4001  MCA4001    -0.1145
     27  O33       99.9210   20.1170   44.9470 O.2   4001  MCA4001    -0.2224
@<TRIPOS>BOND
     1    23    20    2
     2    18    19    1
     3    18    16    1
     4    19    20    1
     5    16    17    1
     6    16    14    1
     7    20    22    1
     8    20    21    1
     9    27    24    2
    10    17    11    1
    11    14    15    1
    12    14    12    1
    13    24    15    1
    14    24    26    1
    15    24    25    1
    16    11     2    1
    17    11    12    1
    18     1     2    1
    19     1     5    1
    20     2     3    1
    21     5     4    2
    22    12    13    1
    23     3     4    1
    24     3     6    2
    25     4     9    1
    26     6     7    1
    27     9    10    1
    28     9     8    2
    29     7     8    1
