@<TRIPOS>MOLECULE
1ona_MMA_A_1.pdb
 11 11 0 0 0
SMALL
GASTEIGER

@<TRIPOS>ATOM
      1  C1        31.3010  -25.8730    7.6190 C.3   241  MMA241      0.2668
      2  C2        31.6220  -25.2130    8.9640 C.3   241  MMA241      0.2105
      3  C3        31.1540  -26.1830   10.0480 C.3   241  MMA241      0.0736
      4  C4        29.6570  -26.4190    9.9220 C.3   241  MMA241      0.1817
      5  C5        29.3010  -26.8820    8.5030 C.3   241  MMA241      0.1482
      6  C6        27.8080  -26.7690    8.3030 C.3   241  MMA241      0.0349
      7  C7        32.0950  -27.5950    6.2690 C.3   241  MMA241      0.1769
      8  O1        31.8710  -27.1370    7.5680 O.3   241  MMA241     -0.3259
      9  O2        30.9320  -23.9720    9.0530 O.3   241  MMA241     -0.2176
     10  O4        29.2500  -27.4060   10.8700 O.3   241  MMA241     -0.2205
     11  O5        29.8930  -26.0260    7.4870 O.3   241  MMA241     -0.3285
@<TRIPOS>BOND
     1     7     8    1
     2    11     1    1
     3    11     5    1
     4     8     1    1
     5     1     2    1
     6     6     5    1
     7     5     4    1
     8     2     9    1
     9     2     3    1
    10     4     3    1
    11     4    10    1
