@<TRIPOS>MOLECULE
1ona_MAN_A_1.pdb
 12 12 0 0 0
SMALL
GASTEIGER

@<TRIPOS>ATOM
      1  C1        26.0960  -25.2190    7.9600 C.3   240  MAN240      0.3024
      2  C2        25.7540  -23.7200    7.9410 C.3   240  MAN240      0.2434
      3  C3        26.1260  -23.0850    9.2490 C.3   240  MAN240      0.2199
      4  C4        25.3480  -23.7950   10.3350 C.3   240  MAN240      0.2144
      5  C5        25.7960  -25.2500   10.3370 C.3   240  MAN240      0.1836
      6  C6        25.0740  -26.0380   11.3930 C.3   240  MAN240      0.2142
      7  O1        27.4580  -25.4100    8.0730 O.3   240  MAN240     -0.1869
      8  O2        24.3640  -23.5520    7.7470 O.3   240  MAN240     -0.2148
      9  O3        25.8110  -21.7060    9.2270 O.3   240  MAN240     -0.2174
     10  O4        25.6200  -23.1940   11.5990 O.3   240  MAN240     -0.2176
     11  O5        25.4670  -25.8650    9.0720 O.3   240  MAN240     -0.3236
     12  O6        23.7990  -26.4200   10.9000 O.3   240  MAN240     -0.2176
@<TRIPOS>BOND
     1     8     2    1
     2     2     1    1
     3     2     3    1
     4     1     7    1
     5     1    11    1
     6    11     5    1
     7     9     3    1
     8     3     4    1
     9     4     5    1
    10     4    10    1
    11     5     6    1
    12    12     6    1
