@<TRIPOS>MOLECULE
1one_2PG_A_1.pdb
 11 10 0 0 0
SMALL
GASTEIGER

@<TRIPOS>ATOM
      1  C1        16.8660    5.4660   18.7990 C.2   441  2PG441      0.3946
      2  C2        17.6390    4.7680   19.9820 C.3   441  2PG441      0.2610
      3  C3        18.3160    3.4200   19.4880 C.3   441  2PG441      0.2237
      4  P         18.4440    6.0610   22.2110 P.3   441  2PG441      0.5331
      5  O1        16.5690    6.6940   18.9200 O.co2 441  2PG441     -0.2428
      6  O2        16.3480    4.7190   17.8920 O.co2 441  2PG441     -0.2428
      7  O3        19.2690    3.5640   18.3710 O.3   441  2PG441     -0.2170
      8  O1P       18.6120    5.6480   20.5930 O.3   441  2PG441     -0.2583
      9  O2P       18.4970    4.7300   22.8830 O.3   441  2PG441     -0.1145
     10  O3P       17.0960    6.8250   22.4210 O.2   441  2PG441     -0.2224
     11  O4P       19.6640    6.9550   22.6370 O.3   441  2PG441     -0.1145
@<TRIPOS>BOND
     1     6     1   ar
     2     7     3    1
     3     1     5   ar
     4     1     2    1
     5     3     2    1
     6     2     8    1
     7     8     4    1
     8     4    10    2
     9     4    11    1
    10     4     9    1
