@<TRIPOS>MOLECULE
1one_PEP_A_1.pdb
 10 9 0 0 0
SMALL
GASTEIGER

@<TRIPOS>ATOM
      1  C1        16.8600    5.5260   18.8520 C.2   440  PEP440      0.4216
      2  O1        16.2390    4.6910   18.0930 O.co2 440  PEP440     -0.2371
      3  O2'       16.5590    6.6930   18.9260 O.co2 440  PEP440     -0.2371
      4  C2        18.0700    4.9410   19.5550 C.2   440  PEP440      0.2283
      5  C3        18.5180    3.6620   19.5780 C.2   440  PEP440      0.0477
      6  O2        18.7120    5.8230   20.4040 O.2   440  PEP440     -0.3930
      7  P         18.4480    5.9390   21.9570 P.3   440  PEP440      0.5889
      8  O1P       17.0630    6.6130   22.0720 O.2   440  PEP440     -0.2114
      9  O2P       19.5860    6.7770   22.4570 O.3   440  PEP440     -0.1039
     10  O3P       18.3420    4.5640   22.5050 O.3   440  PEP440     -0.1039
@<TRIPOS>BOND
     1     2     1   ar
     2     1     3   ar
     3     1     4    1
     4     4     5    2
     5     4     6    1
     6     6     7    1
     7     7     8    2
     8     7     9    1
     9     7    10    1
