@<TRIPOS>MOLECULE
1ong_MA4_A_1.pdb
 35 37 0 0 0
SMALL
GASTEIGER

@<TRIPOS>ATOM
      1  C1        36.0260   24.9290    2.6760 C.3   300  MA4300      0.2695
      2  C2        36.5260   24.3410    1.3580 C.3   300  MA4300      0.2406
      3  C3        36.1360   22.8660    1.2970 C.3   300  MA4300      0.2198
      4  C4        36.5090   22.1420    2.5680 C.3   300  MA4300      0.2144
      5  C5        36.0220   22.8660    3.8220 C.3   300  MA4300      0.1835
      6  C6        36.4590   22.2010    5.1130 C.3   300  MA4300      0.2142
      7  O2        35.9620   25.0190    0.2270 O.3   300  MA4300     -0.2149
      8  O3        36.7950   22.2930    0.1430 O.3   300  MA4300     -0.2174
      9  O5        36.4040   24.2120    3.8240 O.3   300  MA4300     -0.3256
     10  O6        37.8550   22.0950    5.1450 O.3   300  MA4300     -0.2176
     11  O1        34.5790   25.0160    2.6020 O.3   300  MA4300     -0.3257
     12  O4        35.8770   20.8290    2.5400 O.3   300  MA4300     -0.2176
     13  C10       31.4680   27.5770    3.1960 C.3   300  MA4300      0.2695
     14  C20       32.2650   27.8470    1.9360 C.3   300  MA4300      0.2404
     15  C30       33.1360   26.6470    1.6610 C.3   300  MA4300      0.2167
     16  C40       33.9680   26.2620    2.8980 C.3   300  MA4300      0.1804
     17  C50       33.0980   26.1740    4.1390 C.3   300  MA4300      0.1803
     18  C60       33.9250   26.0360    5.4160 C.3   300  MA4300      0.2141
     19  O10       30.7280   28.7920    3.4660 O.3   300  MA4300     -0.3286
     20  O20       31.4420   28.1710    0.8300 O.3   300  MA4300     -0.2149
     21  O30       33.9550   26.8790    0.5550 O.3   300  MA4300     -0.2175
     22  O50       32.3880   27.3930    4.2470 O.3   300  MA4300     -0.3257
     23  O60       34.9090   27.0580    5.4160 O.3   300  MA4300     -0.2176
     24  C11       29.6580   28.5410    4.3660 C.3   300  MA4300      0.1449
     25  C21       28.3170   28.3820    3.6990 C.3   300  MA4300      0.0322
     26  C31       27.2440   28.0480    4.7050 C.3   300  MA4300      0.0026
     27  C41       26.1600   27.0850    4.2300 C.3   300  MA4300      0.0001
     28  C51       25.3780   26.5850    5.4530 C.3   300  MA4300      0.0000
     29  C61       25.1640   27.6580    6.5020 C.3   300  MA4300      0.0000
     30  C12       23.7930   27.6990    7.1150 C.3   300  MA4300      0.0000
     31  C22       23.7050   28.1620    8.5620 C.3   300  MA4300      0.0000
     32  C32       23.6570   26.9840    9.5450 C.3   300  MA4300      0.0000
     33  C42       22.5590   26.0220    9.1090 C.3   300  MA4300      0.0000
     34  C52       22.7880   25.4710    7.6960 C.3   300  MA4300      0.0000
     35  C62       22.8210   26.6320    6.7000 C.3   300  MA4300      0.0000
@<TRIPOS>BOND
     1     8     3    1
     2     7     2    1
     3    21    15    1
     4    20    14    1
     5     3     2    1
     6     3     4    1
     7     2     1    1
     8    15    14    1
     9    15    16    1
    10    14    13    1
    11    12     4    1
    12     4     5    1
    13    11     1    1
    14    11    16    1
    15     1     9    1
    16    16    17    1
    17    13    19    1
    18    13    22    1
    19    19    24    1
    20    25    24    1
    21    25    26    1
    22     5     9    1
    23     5     6    1
    24    17    22    1
    25    17    18    1
    26    27    26    1
    27    27    28    1
    28     6    10    1
    29    18    23    1
    30    28    29    1
    31    29    30    1
    32    35    30    1
    33    35    34    1
    34    30    31    1
    35    34    33    1
    36    31    32    1
    37    33    32    1
