@<TRIPOS>MOLECULE
1ong_WY4_A_1.pdb
 21 23 0 0 0
SMALL
GASTEIGER

@<TRIPOS>ATOM
      1  S1         5.5150   36.1880    4.2430 S.3   400  WY4400     -0.1229
      2  C2         6.1350   37.7820    3.9190 C.3   400  WY4400      0.1107
      3  C3         7.2430   38.3580    4.4250 C.2   400  WY4400      0.1492
      4  N4         8.2020   37.6900    5.1990 N.2   400  WY4400     -0.2408
      5  C5         8.4760   36.4180    5.5610 C.2   400  WY4400      0.0989
      6  C6         7.9150   35.2510    5.1620 C.2   400  WY4400      0.0552
      7  C7         8.4910   34.1160    5.8480 C.2   400  WY4400      0.2327
      8  O8         9.4820   34.2610    6.5300 O.2   400  WY4400     -0.2834
      9  C31        7.5060   39.7300    4.1280 C.2   400  WY4400      0.4019
     10  O32        8.6090   40.1640    4.4150 O.co2 400  WY4400     -0.2392
     11  O33        6.5480   40.4380    3.5330 O.co2 400  WY4400     -0.2392
     12  C61        6.8760   35.0500    4.1130 C.3   400  WY4400      0.1244
     13  C62        7.5500   34.9740    2.7200 C.2   400  WY4400      0.1218
     14  N63        8.4940   34.0490    2.4070 N.2   400  WY4400     -0.3946
     15  C64        8.9180   34.2500    1.2060 C.2   400  WY4400      0.1899
     16  N65        8.2420   35.3460    0.6750 N.pl3 400  WY4400     -0.2762
     17  C66        7.3870   35.7810    1.6210 C.3   400  WY4400      0.1489
     18  C67        9.9830   33.4960    0.4230 C.3   400  WY4400      0.2165
     19  O68       10.5280   34.4010   -0.5610 O.3   400  WY4400     -0.3431
     20  C69        9.5350   34.9920   -1.3930 C.3   400  WY4400      0.1642
     21  C70        8.5370   35.9190   -0.6600 C.3   400  WY4400      0.1253
@<TRIPOS>BOND
     1    20    21    1
     2    20    19    1
     3    21    16    1
     4    19    18    1
     5    18    15    1
     6    16    15    1
     7    16    17    1
     8    15    14    2
     9    17    13    1
    10    14    13    2
    11    13    12    1
    12    11     9   ar
    13     2     1    1
    14     2     3    1
    15    12     1    1
    16    12     6    1
    17     9    10   ar
    18     9     3    1
    19     3     4    2
    20     6     5    2
    21     6     7    1
    22     4     5    1
    23     7     8    2
