@<TRIPOS>MOLECULE
1onh_WY4_A_1.pdb
 21 23 0 0 0
SMALL
GASTEIGER

@<TRIPOS>ATOM
      1  S1        21.1470   21.6840    6.6230 S.3   400  WY4400     -0.1270
      2  C2        20.1030   22.4350    5.3830 C.3   400  WY4400      0.1099
      3  C3        19.2750   21.6670    4.6560 C.2   400  WY4400      0.1440
      4  N4        19.2190   20.2710    4.8640 N.2   400  WY4400     -0.2668
      5  C5        18.8790   19.4950    5.9510 C.3   400  WY4400      0.1344
      6  C6        19.2840   19.7610    7.2160 C.3   400  WY4400      0.1055
      7  C7        19.2270   18.6840    8.1520 C.2   400  WY4400      0.2103
      8  O8        19.2360   18.7880    9.3680 O.2   400  WY4400     -0.2882
      9  C31       18.4710   22.2020    3.6040 C.2   400  WY4400      0.4015
     10  O32       17.8390   21.4540    2.8540 O.co2 400  WY4400     -0.2392
     11  O33       18.4490   23.5210    3.4430 O.co2 400  WY4400     -0.2392
     12  C61       19.8670   21.0310    7.7230 C.3   400  WY4400      0.1069
     13  C62       18.8590   22.1280    8.0660 C.2   400  WY4400      0.1180
     14  N63       19.0470   23.1480    8.9180 N.2   400  WY4400     -0.3950
     15  C64       17.9420   23.8420    8.9700 C.2   400  WY4400      0.1899
     16  N65       17.0150   23.2960    8.1190 N.pl3 400  WY4400     -0.2762
     17  C66       17.5980   22.2210    7.5350 C.3   400  WY4400      0.1485
     18  C67       17.6240   25.0450    9.8010 C.3   400  WY4400      0.2165
     19  O68       16.1860   25.2310    9.8050 O.3   400  WY4400     -0.3431
     20  C69       15.6130   25.2590    8.4790 C.3   400  WY4400      0.1642
     21  C70       15.6330   23.8000    7.9390 C.3   400  WY4400      0.1253
@<TRIPOS>BOND
     1    10     9   ar
     2    11     9   ar
     3     9     3    1
     4     3     4    2
     5     3     2    1
     6     4     5    1
     7     2     1    1
     8     5     6    1
     9     1    12    1
    10     6    12    1
    11     6     7    1
    12    17    13    1
    13    17    16    1
    14    12    13    1
    15    21    16    1
    16    21    20    1
    17    13    14    2
    18    16    15    1
    19     7     8    2
    20    20    19    1
    21    14    15    2
    22    15    18    1
    23    18    19    1
