@<TRIPOS>MOLECULE
1onp_FOM_A_1.pdb
 11 10 0 0 0
SMALL
GASTEIGER

@<TRIPOS>ATOM
      1  O2         6.4900   -5.7460   34.8370 O.3   1001  FOM1001    -0.4195
      2  N1         6.7750   -4.5810   35.3160 N.am  1001  FOM1001    -0.2796
      3  C1         6.0380   -3.5130   34.9670 C.2   1001  FOM1001     0.1130
      4  O1         5.0960   -3.4330   34.2410 O.2   1001  FOM1001    -0.5358
      5  C2         7.9160   -4.4610   36.2430 C.3   1001  FOM1001     0.0985
      6  C3         7.9600   -5.5740   37.3170 C.3   1001  FOM1001     0.0297
      7  C4         9.3870   -5.8110   37.8460 C.3   1001  FOM1001     0.0607
      8  PA1       10.3570   -6.9770   36.9110 P.3   1001  FOM1001     0.1172
      9  OP1        9.4910   -8.3100   36.7320 O.3   1001  FOM1001    -0.3571
     10  OP2       10.4770   -6.4190   35.4240 O.2   1001  FOM1001    -0.4601
     11  OP3       11.8220   -7.3140   37.4220 O.3   1001  FOM1001    -0.3571
@<TRIPOS>BOND
     1     4     3    2
     2     1     2    1
     3     3     2   am
     4     2     5    1
     5    10     8    2
     6     5     6    1
     7     9     8    1
     8     8    11    1
     9     8     7    1
    10     6     7    1
