@<TRIPOS>MOLECULE
1onq_FUC_A_1.pdb
 10 10 0 0 0
SMALL
GASTEIGER

@<TRIPOS>ATOM
      1  C1         1.1510   -3.6570   56.9090 C.3   512  FUC512      0.1776
      2  C2        -0.1740   -3.9770   57.5810 C.3   512  FUC512      0.2141
      3  C3        -0.0250   -5.2970   58.3420 C.3   512  FUC512      0.2172
      4  C4         1.1590   -5.2400   59.3200 C.3   512  FUC512      0.2116
      5  C5         2.4170   -4.7490   58.6130 C.3   512  FUC512      0.1483
      6  C6         3.5450   -4.4360   59.6000 C.3   512  FUC512      0.0349
      7  O2        -1.1940   -4.0860   56.5980 O.3   512  FUC512     -0.2176
      8  O3        -1.2390   -5.6410   58.9830 O.3   512  FUC512     -0.2175
      9  O4         0.8650   -4.3460   60.3760 O.3   512  FUC512     -0.2177
     10  O5         2.1490   -3.5530   57.9010 O.3   512  FUC512     -0.3508
@<TRIPOS>BOND
     1     7     2    1
     2     1     2    1
     3     1    10    1
     4     2     3    1
     5    10     5    1
     6     3     8    1
     7     3     4    1
     8     5     4    1
     9     5     6    1
    10     4     9    1
