@<TRIPOS>MOLECULE
1onq_SLF_C_1.pdb
 40 39 0 0 0
SMALL
GASTEIGER

@<TRIPOS>ATOM
      1  C35       25.0790   19.5620   47.6070 C.3   602  SLF602      0.0000
      2  C34       25.9730   18.3610   47.3890 C.3   602  SLF602      0.0000
      3  C33       25.3790   17.5380   46.2620 C.3   602  SLF602      0.0000
      4  C32       26.3700   16.5620   45.6820 C.3   602  SLF602      0.0000
      5  C31       27.3740   17.2880   44.8390 C.3   602  SLF602      0.0000
      6  C30       28.3840   16.3290   44.2760 C.3   602  SLF602      0.0000
      7  C29       27.8090   15.5970   43.0920 C.3   602  SLF602      0.0000
      8  C28       28.9390   14.8660   42.3790 C.3   602  SLF602      0.0000
      9  C27       28.9260   13.3570   42.6300 C.3   602  SLF602      0.0000
     10  C26       28.9540   13.0290   44.1240 C.3   602  SLF602      0.0000
     11  C25       29.1470   11.5330   44.3890 C.3   602  SLF602      0.0000
     12  C24       27.9910   10.6670   43.8860 C.3   602  SLF602      0.0000
     13  C23       28.4910    9.2820   43.5100 C.3   602  SLF602      0.0000
     14  C22       28.9940    8.5790   44.7710 C.3   602  SLF602      0.0000
     15  C21       30.4770    8.7240   45.1230 C.3   602  SLF602      0.0005
     16  C20       31.3810    8.2280   43.9990 C.3   602  SLF602      0.0096
     17  C19       32.8860    8.2200   44.3840 C.3   602  SLF602      0.0868
     18  C18       33.4890    9.5560   44.7150 C.2   602  SLF602      0.2415
     19  O2        33.7230    9.8130   45.8930 O.2   602  SLF602     -0.2733
     20  N         33.1170   10.4470   43.7880 N.am  602  SLF602     -0.2019
     21  C1        33.5090   11.8450   43.6240 C.3   602  SLF602      0.1583
     22  C         32.5240   12.9390   44.1090 C.3   602  SLF602      0.2062
     23  O         33.1620   14.2000   44.2940 O.3   602  SLF602     -0.2184
     24  C2        34.7450   12.0580   42.7110 C.3   602  SLF602      0.1744
     25  O1        34.4580   12.9390   41.6410 O.3   602  SLF602     -0.2212
     26  C3        35.2730   10.8590   41.9470 C.3   602  SLF602      0.0348
     27  C4        34.5790   10.1720   41.0200 C.3   602  SLF602      0.0027
     28  C5        35.3600    9.3410   40.0390 C.3   602  SLF602      0.0001
     29  C6        36.2630    8.2930   40.6840 C.3   602  SLF602      0.0000
     30  C7        37.6660    8.2730   40.0860 C.3   602  SLF602      0.0000
     31  C8        38.5670    7.3820   40.9200 C.3   602  SLF602      0.0000
     32  C9        38.0930    5.9340   40.8620 C.3   602  SLF602      0.0000
     33  C10       39.2140    4.8980   41.0730 C.3   602  SLF602      0.0000
     34  C11       38.6540    3.6500   41.7650 C.3   602  SLF602      0.0000
     35  C12       37.5000    3.0150   40.9580 C.3   602  SLF602      0.0000
     36  C13       36.7910    1.8900   41.6880 C.3   602  SLF602      0.0000
     37  C14       35.4870    2.2840   42.4030 C.3   602  SLF602      0.0000
     38  C15       34.2560    1.9750   41.5600 C.3   602  SLF602      0.0000
     39  C16       33.0130    1.7640   42.4150 C.3   602  SLF602      0.0000
     40  C17       31.6980    1.8890   41.6560 C.3   602  SLF602      0.0000
@<TRIPOS>BOND
     1    28    29    1
     2    28    27    1
     3    30    29    1
     4    30    31    1
     5    32    31    1
     6    32    33    1
     7    35    36    1
     8    35    34    1
     9    27    26    1
    10    33    34    1
    11    38    37    1
    12    38    39    1
    13    25    24    1
    14    40    39    1
    15    36    37    1
    16    26    24    1
    17     8     9    1
    18     8     7    1
    19     9    10    1
    20    24    21    1
    21     7     6    1
    22    13    12    1
    23    13    14    1
    24    21    20    1
    25    21    22    1
    26    20    18   am
    27    12    11    1
    28    16    17    1
    29    16    15    1
    30    22    23    1
    31    10    11    1
    32     6     5    1
    33    17    18    1
    34    18    19    2
    35    14    15    1
    36     5     4    1
    37     4     3    1
    38     3     2    1
    39     2     1    1
