@<TRIPOS>MOLECULE
1ony_588_A_1.pdb
 41 42 0 0 0
SMALL
GASTEIGER

@<TRIPOS>ATOM
      1  O6        35.6710   29.8200   23.1440 O.co2 322  588322     -0.2354
      2  C24       34.7590   29.1810   23.5790 C.2   322  588322      0.4411
      3  O7        33.9560   29.6860   24.5490 O.co2 322  588322     -0.2354
      4  C8        34.4170   27.7530   23.0400 C.2   322  588322      0.3367
      5  O5        34.5910   26.8000   23.8100 O.2   322  588322     -0.2620
      6  N4        33.9380   27.5670   21.7210 N.am  322  588322     -0.2285
      7  C2        33.4330   28.6840   21.0240 C.ar  322  588322      0.0546
      8  C3        32.0940   29.0880   21.3370 C.ar  322  588322      0.0146
      9  C4        31.4900   30.1770   20.7050 C.ar  322  588322     -0.0029
     10  C5        32.1920   30.9170   19.7280 C.ar  322  588322     -0.0205
     11  C6        33.5260   30.5440   19.4040 C.ar  322  588322     -0.0072
     12  C1        34.1720   29.4380   20.0350 C.ar  322  588322     -0.0080
     13  C17       35.5990   29.0990   19.6500 C.3   322  588322      0.0373
     14  C18       35.7820   28.4400   18.2810 C.3   322  588322      0.0932
     15  C19       37.2900   28.3820   17.9450 C.2   322  588322      0.2611
     16  O1        37.7490   28.9720   16.9830 O.2   322  588322     -0.2716
     17  N3        38.0360   27.6410   18.7820 N.am  322  588322     -0.0878
     18  C7        31.5120   32.0760   19.0380 C.3   322  588322      0.0550
     19  C9        30.9930   31.7420   17.5980 C.3   322  588322      0.1791
     20  N1        30.3710   32.9350   17.0340 N.3   322  588322     -0.0738
     21  S1        30.4780   33.2110   15.3140 S.O2  322  588322      0.0596
     22  O4        29.3820   32.4670   14.7820 O.2   322  588322     -0.1561
     23  O2        31.8110   32.8000   14.9720 O.2   322  588322     -0.1561
     24  C20       30.2970   34.9470   15.0040 C.3   322  588322      0.1975
     25  C11       30.0070   30.5400   17.6000 C.2   322  588322      0.2594
     26  O8        30.4060   29.3810   17.5270 O.2   322  588322     -0.2718
     27  N2        28.7050   30.9010   17.7040 N.am  322  588322     -0.2042
     28  C12       27.6170   29.9150   17.7340 C.3   322  588322      0.1152
     29  C13       26.4960   30.4050   18.6600 C.3   322  588322      0.0234
     30  C15       26.9050   30.3720   20.1420 C.3   322  588322      0.0018
     31  C14       26.2100   31.4580   20.9630 C.3   322  588322      0.0001
     32  C16       26.0020   31.0420   22.4230 C.3   322  588322      0.0000
     33  C26       33.9160   26.2600   21.0860 C.ar  322  588322      0.0649
     34  C27       32.6720   25.8320   20.4640 C.ar  322  588322      0.0155
     35  C28       32.5230   24.5920   19.8160 C.ar  322  588322      0.0013
     36  C29       33.6050   23.7000   19.7520 C.ar  322  588322      0.0003
     37  C30       34.8370   24.0550   20.3350 C.ar  322  588322      0.0078
     38  C25       35.0350   25.3020   21.0030 C.ar  322  588322      0.0937
     39  C31       36.4070   25.5070   21.5620 C.2   322  588322      0.3890
     40  O9        36.9110   24.6060   22.1860 O.co2 322  588322     -0.2405
     41  O10       37.0490   26.5370   21.4530 O.co2 322  588322     -0.2405
@<TRIPOS>BOND
     1    22    21    2
     2    23    21    2
     3    24    21    1
     4    21    20    1
     5    16    15    2
     6    20    19    1
     7    26    25    2
     8    19    25    1
     9    19    18    1
    10    25    27   am
    11    27    28    1
    12    28    29    1
    13    15    14    1
    14    15    17   am
    15    14    13    1
    16    29    30    1
    17    18    10    1
    18    11    10   ar
    19    11    12   ar
    20    13    12    1
    21    10     9   ar
    22    36    35   ar
    23    36    37   ar
    24    35    34   ar
    25    12     7   ar
    26    30    31    1
    27    37    38   ar
    28    34    33   ar
    29     9     8   ar
    30    31    32    1
    31    38    33   ar
    32    38    39    1
    33     7     8   ar
    34     7     6    1
    35    33     6    1
    36    41    39   ar
    37    39    40   ar
    38     6     4   am
    39     4     2    1
    40     4     5    2
    41     1     2   ar
    42     2     3   ar
