@<TRIPOS>MOLECULE
1onz_968_A_1.pdb
 26 28 0 0 0
SMALL
GASTEIGER

@<TRIPOS>ATOM
      1  O21       35.8660   29.8950   23.2960 O.co2 322  968322     -0.2408
      2  C20       34.9710   29.0780   23.5070 C.2   322  968322      0.4144
      3  O22       33.9160   29.3710   24.3340 O.co2 322  968322     -0.2408
      4  C18       34.8950   27.6600   22.8730 C.3   322  968322      0.3353
      5  O23       34.4070   26.8030   23.6910 O.3   322  968322     -0.1876
      6  N17       34.2080   27.4370   21.5970 N.pl3 322  968322     -0.2532
      7  C19       34.1390   26.0780   20.9950 C.ar  322  968322      0.0603
      8  C24       32.8490   25.6860   20.3650 C.ar  322  968322      0.0151
      9  C25       32.6140   24.4070   19.7350 C.ar  322  968322      0.0013
     10  C26       33.6610   23.4220   19.6890 C.ar  322  968322      0.0003
     11  C27       34.9300   23.7190   20.2690 C.ar  322  968322      0.0078
     12  C28       35.2230   25.0330   20.9350 C.ar  322  968322      0.0934
     13  C33       36.6220   25.1500   21.4820 C.2   322  968322      0.3890
     14  O34       37.0940   24.0660   22.1940 O.co2 322  968322     -0.2405
     15  O35       37.2970   26.1320   21.3320 O.co2 322  968322     -0.2405
     16  C13       33.6070   28.5670   20.9160 C.ar  322  968322      0.0541
     17  C12       32.3100   29.0750   21.3400 C.ar  322  968322      0.0149
     18  C11       31.6590   30.2050   20.6940 C.ar  322  968322      0.0013
     19  C10       32.2910   30.8740   19.5820 C.ar  322  968322      0.0001
     20  C3        33.5960   30.3930   19.1210 C.ar  322  968322      0.0014
     21  C2        34.2400   31.0480   18.0000 C.ar  322  968322      0.0033
     22  C1        35.5500   30.5870   17.5150 C.ar  322  968322      0.0420
     23  C6        36.2020   29.4790   18.1570 C.ar  322  968322      0.1958
     24  O36       37.4520   29.0260   17.7120 O.3   322  968322     -0.2866
     25  C5        35.5620   28.8250   19.2680 C.ar  322  968322      0.0433
     26  C4        34.2580   29.2510   19.7800 C.ar  322  968322      0.0169
@<TRIPOS>BOND
     1    22    21   ar
     2    22    23   ar
     3    24    23    1
     4    21    20   ar
     5    23    25   ar
     6    20    19   ar
     7    20    26   ar
     8    25    26   ar
     9    19    18   ar
    10    10     9   ar
    11    10    11   ar
    12     9     8   ar
    13    26    16   ar
    14    11    12   ar
    15     8     7   ar
    16    18    17   ar
    17    16    17   ar
    18    16     6    1
    19    12     7   ar
    20    12    13    1
    21     7     6    1
    22    15    13   ar
    23    13    14   ar
    24     6     4    1
    25     4     2    1
    26     4     5    1
    27     1     2   ar
    28     2     3   ar
