@<TRIPOS>MOLECULE
1oo5_FMN_A_1.pdb
 31 33 0 0 0
SMALL
GASTEIGER

@<TRIPOS>ATOM
      1  N1        20.0950  -32.7110   50.2090 N.2   218  FMN218     -0.2890
      2  C2        21.3720  -32.4330   50.5730 C.1   218  FMN218      0.3669
      3  O2        22.3400  -32.8920   50.0160 O.2   218  FMN218     -0.1744
      4  N3        21.6060  -31.5530   51.6810 N.2   218  FMN218     -0.2300
      5  C4        20.6370  -30.9740   52.4310 C.1   218  FMN218      0.2513
      6  O4        20.9230  -30.2360   53.3900 O.2   218  FMN218     -0.2057
      7  C4A       19.2670  -31.2770   52.0280 C.2   218  FMN218      0.2700
      8  N5        18.2450  -30.7180   52.6500 N.2   218  FMN218     -0.3878
      9  C5A       17.0500  -30.7480   52.0280 C.2   218  FMN218      0.1320
     10  C6        15.9910  -29.8590   52.4490 C.2   218  FMN218      0.0250
     11  C7        14.7860  -29.8110   51.8620 C.2   218  FMN218     -0.0238
     12  C7M       13.6660  -28.8960   52.3220 C.3   218  FMN218      0.0308
     13  C8        14.5180  -30.6670   50.7160 C.2   218  FMN218     -0.0280
     14  C8M       13.1970  -30.5960   49.9970 C.3   218  FMN218      0.0304
     15  C9        15.5070  -31.5370   50.3120 C.2   218  FMN218     -0.0041
     16  C9A       16.7570  -31.6050   50.9210 C.3   218  FMN218      0.1497
     17  N10       17.8000  -32.4290   50.4990 N.pl3 218  FMN218     -0.2691
     18  C10       19.0840  -32.1740   50.8760 C.2   218  FMN218      0.2416
     19  C1'       17.6020  -33.2230   49.2960 C.3   218  FMN218      0.1294
     20  C2'       16.7290  -34.4150   49.5890 C.3   218  FMN218      0.2044
     21  O2'       17.4820  -35.5160   50.1150 O.3   218  FMN218     -0.2185
     22  C3'       16.0270  -34.8550   48.2810 C.3   218  FMN218      0.2164
     23  O3'       15.1630  -33.7610   47.8550 O.3   218  FMN218     -0.2175
     24  C4'       15.1810  -36.1060   48.4020 C.3   218  FMN218      0.2147
     25  O4'       16.0160  -37.2430   48.7370 O.3   218  FMN218     -0.2176
     26  C5'       14.4370  -36.4520   47.1430 C.3   218  FMN218      0.1892
     27  O5'       15.4020  -36.6830   46.0820 O.3   218  FMN218     -0.2674
     28  P         15.3530  -35.9180   44.6980 P.3   218  FMN218      0.5327
     29  O1P       16.4760  -36.4640   43.8650 O.2   218  FMN218     -0.2224
     30  O2P       15.4350  -34.4500   44.9680 O.3   218  FMN218     -0.1145
     31  O3P       13.9770  -36.3370   44.0710 O.3   218  FMN218     -0.1145
@<TRIPOS>BOND
     1    29    28    2
     2    31    28    1
     3    28    30    1
     4    28    27    1
     5    27    26    1
     6    26    24    1
     7    23    22    1
     8    22    24    1
     9    22    20    1
    10    24    25    1
    11    19    20    1
    12    19    17    1
    13    20    21    1
    14    14    13    1
    15     3     2    2
    16     1     2    2
    17     1    18    2
    18    15    13    2
    19    15    16    1
    20    17    18    1
    21    17    16    1
    22     2     4    2
    23    13    11    1
    24    18     7    1
    25    16     9    1
    26     4     5    2
    27    11    12    1
    28    11    10    2
    29     9    10    1
    30     9     8    2
    31     7     5    1
    32     7     8    2
    33     5     6    2
