@<TRIPOS>MOLECULE
1oo6_SN2_A_1.pdb
 22 22 0 0 0
SMALL
GASTEIGER

@<TRIPOS>ATOM
      1  C1       -10.2220  -13.9070   49.7410 C.ar  219  SN2219      0.0709
      2  C2        -9.8780  -14.2990   50.9790 C.ar  219  SN2219      0.0225
      3  C3        -8.6650  -15.1280   51.2420 C.ar  219  SN2219      0.0804
      4  C4        -7.8510  -15.4900   50.2080 C.ar  219  SN2219      0.1490
      5  C5        -8.2690  -15.0820   48.8320 C.ar  219  SN2219      0.0496
      6  C6        -9.3810  -14.3540   48.5910 C.ar  219  SN2219      0.1577
      7  C7       -11.2120  -11.7370   49.9850 C.3   219  SN2219      0.1083
      8  C8       -12.6040  -13.9210   49.7840 C.3   219  SN2219      0.1083
      9  C9       -12.2370  -11.2900   51.0720 C.3   219  SN2219      0.1162
     10  C10      -13.0150  -14.7430   48.5240 C.3   219  SN2219      0.1162
     11  C13       -8.5890  -15.6350   52.6400 C.2   219  SN2219      0.2858
     12  O1        -6.4820  -16.6070   51.1620 O.2   219  SN2219     -0.1261
     13  O2        -9.6040  -13.0580   47.1480 O.2   219  SN2219     -0.1261
     14  O3        -5.8570  -15.7600   49.5660 O.2   219  SN2219     -0.1261
     15  O4        -9.2420  -15.0210   53.4880 O.2   219  SN2219     -0.2666
     16  O5       -10.0140  -14.8810   46.6460 O.2   219  SN2219     -0.1261
     17  N1        -6.7570  -15.9720   50.3090 N.pl3 219  SN2219      0.0579
     18  N2        -9.6890  -14.1050   47.4740 N.pl3 219  SN2219      0.0590
     19  N3       -11.3360  -13.1630   49.5550 N.pl3 219  SN2219     -0.3036
     20  N4        -8.4840  -17.0000   52.7490 N.am  219  SN2219     -0.0837
     21 CL1       -11.9380  -16.1310   48.2600 Cl    219  SN2219     -0.1118
     22 CL2       -12.1650  -11.9540   52.7180 Cl    219  SN2219     -0.1118
@<TRIPOS>BOND
     1    16    18    2
     2    13    18    2
     3    18     6    1
     4    21    10    1
     5    10     8    1
     6     6     5   ar
     7     6     1   ar
     8     5     4   ar
     9    19     1    1
    10    19     8    1
    11    19     7    1
    12    14    17    2
    13     1     2   ar
    14     7     9    1
    15     4    17    1
    16     4     3   ar
    17    17    12    2
    18     2     3   ar
    19     9    22    1
    20     3    11    1
    21    11    20   am
    22    11    15    2
