@<TRIPOS>MOLECULE
1oo6_FMN_A_1.pdb
 31 33 0 0 0
SMALL
GASTEIGER

@<TRIPOS>ATOM
      1  N1        19.9820  -33.5740   50.4150 N.2   218  FMN218     -0.2890
      2  C2        21.2590  -33.3320   50.8080 C.1   218  FMN218      0.3669
      3  O2        22.2220  -33.7660   50.2370 O.2   218  FMN218     -0.1744
      4  N3        21.4930  -32.5170   51.9510 N.2   218  FMN218     -0.2300
      5  C4        20.5370  -31.8990   52.6620 C.1   218  FMN218      0.2513
      6  O4        20.8300  -31.2100   53.6470 O.2   218  FMN218     -0.2057
      7  C4A       19.1710  -32.0870   52.1770 C.2   218  FMN218      0.2700
      8  N5        18.1690  -31.4610   52.7480 N.2   218  FMN218     -0.3878
      9  C5A       16.9520  -31.5230   52.1450 C.2   218  FMN218      0.1320
     10  C6        15.8820  -30.6920   52.6180 C.2   218  FMN218      0.0250
     11  C7        14.6830  -30.6060   52.0190 C.2   218  FMN218     -0.0238
     12  C7M       13.5730  -29.6680   52.4850 C.3   218  FMN218      0.0308
     13  C8        14.4040  -31.4350   50.8740 C.2   218  FMN218     -0.0280
     14  C8M       13.0790  -31.3320   50.1720 C.3   218  FMN218      0.0304
     15  C9        15.3840  -32.3000   50.4500 C.2   218  FMN218     -0.0041
     16  C9A       16.6580  -32.3450   51.0170 C.3   218  FMN218      0.1497
     17  N10       17.7170  -33.1130   50.5290 N.pl3 218  FMN218     -0.2691
     18  C10       18.9840  -32.9710   51.0120 C.2   218  FMN218      0.2416
     19  C1'       17.5010  -34.0300   49.3930 C.3   218  FMN218      0.1294
     20  C2'       16.4660  -35.0970   49.7100 C.3   218  FMN218      0.2044
     21  O2'       17.0310  -36.2290   50.3730 O.3   218  FMN218     -0.2185
     22  C3'       15.7980  -35.5590   48.3880 C.3   218  FMN218      0.2164
     23  O3'       14.8240  -34.5350   48.0130 O.3   218  FMN218     -0.2175
     24  C4'       15.0720  -36.8770   48.4620 C.3   218  FMN218      0.2147
     25  O4'       15.9970  -37.9360   48.8140 O.3   218  FMN218     -0.2176
     26  C5'       14.3900  -37.2690   47.1630 C.3   218  FMN218      0.1892
     27  O5'       15.3740  -37.3720   46.1160 O.3   218  FMN218     -0.2674
     28  P         15.3670  -36.4520   44.8210 P.3   218  FMN218      0.5327
     29  O1P       16.5450  -36.8680   43.9850 O.2   218  FMN218     -0.2224
     30  O2P       15.3970  -35.0150   45.2430 O.3   218  FMN218     -0.1145
     31  O3P       14.0190  -36.8330   44.0920 O.3   218  FMN218     -0.1145
@<TRIPOS>BOND
     1    29    28    2
     2    31    28    1
     3    28    30    1
     4    28    27    1
     5    27    26    1
     6    26    24    1
     7    23    22    1
     8    22    24    1
     9    22    20    1
    10    24    25    1
    11    19    20    1
    12    19    17    1
    13    20    21    1
    14    14    13    1
    15     3     2    2
    16     1     2    2
    17     1    18    2
    18    15    13    2
    19    15    16    1
    20    17    18    1
    21    17    16    1
    22     2     4    2
    23    13    11    1
    24    18     7    1
    25    16     9    1
    26     4     5    2
    27    11    12    1
    28    11    10    2
    29     9    10    1
    30     9     8    2
    31     7     5    1
    32     7     8    2
    33     5     6    2
