@<TRIPOS>MOLECULE
1ook_III_P_1.pdb
 30 31 0 0 0
SMALL
GASTEIGER

@<TRIPOS>ATOM
      1  N         24.1940  -14.3910  123.0920 N.3     1  PHE1       -0.1228
      2  CA        24.1730  -15.6720  123.8510 C.3     1  PHE1        0.1721
      3  C         23.2930  -16.7370  123.1600 C.2     1  PHE1        0.2437
      4  O         23.7710  -17.3720  122.2350 O.2     1  PHE1       -0.2733
      5  CB        23.7660  -15.4120  125.3080 C.3     1  PHE1        0.0547
      6  CG        23.6890  -16.6520  126.1670 C.ar    1  PHE1       -0.0202
      7  CD1       22.8240  -16.6860  127.2650 C.ar    1  PHE1       -0.0042
      8  CD2       24.4140  -17.7970  125.8490 C.ar    1  PHE1       -0.0042
      9  CE1       22.6700  -17.8420  128.0310 C.ar    1  PHE1       -0.0003
     10  CE2       24.2690  -18.9620  126.6110 C.ar    1  PHE1       -0.0003
     11  CZ        23.3910  -18.9840  127.7040 C.ar    1  PHE1       -0.0000
     12  N         22.0150  -16.9290  123.5580 N.am    2  PRO2       -0.2718
     13  CA        21.2330  -17.9660  122.8590 C.3     2  PRO2        0.1535
     14  C         20.9720  -17.6040  121.4000 C.2     2  PRO2        0.2599
     15  O         20.5860  -16.4710  121.0980 O.2     2  PRO2       -0.2715
     16  CB        19.9140  -18.0180  123.6420 C.3     2  PRO2        0.0310
     17  CG        20.1690  -17.2040  124.8880 C.3     2  PRO2        0.0237
     18  CD        21.1290  -16.1550  124.4400 C.3     2  PRO2        0.0939
     19  N         21.1520  -18.5540  120.4900 N.am    3  ARG3       -0.1942
     20  CA        20.9130  -18.2340  119.0910 C.3     3  ARG3        0.1979
     21  C         19.6250  -18.8130  118.4980 C.2     3  ARG3        0.3842
     22  O         19.5380  -18.9230  117.2610 O.co2   3  ARG3       -0.2437
     23  CB        22.1320  -18.6360  118.2660 C.3     3  ARG3        0.0370
     24  CG        23.3650  -17.8290  118.6440 C.3     3  ARG3        0.0493
     25  CD        24.6050  -18.2590  117.8980 C.3     3  ARG3        0.2205
     26  NE        25.6270  -17.2170  117.9390 N.pl3   3  ARG3       -0.0865
     27  CZ        26.8070  -17.3110  117.3410 C.cat   3  ARG3        0.5346
     28  NH1       27.1230  -18.4050  116.6620 N.pl3   3  ARG3        0.1354
     29  NH2       27.6620  -16.2980  117.3910 N.pl3   3  ARG3        0.1354
     30  OXT       18.6870  -19.1160  119.2640 O.co2   3  ARG3       -0.2437
@<TRIPOS>BOND
     1    28    27    1
     2    22    21   ar
     3    27    29    1
     4    27    26    2
     5    25    26    1
     6    25    24    1
     7    23    24    1
     8    23    20    1
     9    21    20    1
    10    21    30   ar
    11    20    19    1
    12    19    14   am
    13    15    14    2
    14    14    13    1
    15     4     3    2
    16    13    12    1
    17    13    16    1
    18     1     2    1
    19     3    12   am
    20     3     2    1
    21    12    18    1
    22    16    17    1
    23     2     5    1
    24    18    17    1
    25     5     6    1
    26     8     6   ar
    27     8    10   ar
    28     6     7   ar
    29    10    11   ar
    30     7     9   ar
    31    11     9   ar
