@<TRIPOS>MOLECULE
1oon_BEL_A_1.pdb
 27 27 0 0 0
SMALL
GASTEIGER

@<TRIPOS>ATOM
      1  O1       -11.0080  -14.2090   52.7960 O.2   362  BEL362     -0.1261
      2  N1       -10.6520  -15.0890   52.0250 N.pl3 362  BEL362      0.0590
      3  O2       -10.9160  -16.2750   52.1740 O.2   362  BEL362     -0.1261
      4  C1        -9.8280  -14.7060   50.8470 C.ar  362  BEL362      0.1577
      5  C2        -8.5180  -15.2400   50.8650 C.ar  362  BEL362      0.0496
      6  C3        -7.6170  -15.0730   49.8020 C.ar  362  BEL362      0.1490
      7  C4        -8.0830  -14.3290   48.6180 C.ar  362  BEL362      0.0788
      8  C5        -9.3870  -13.8090   48.6030 C.ar  362  BEL362      0.0224
      9  C6       -10.3080  -13.9500   49.6780 C.ar  362  BEL362      0.0709
     10  N2       -11.6170  -13.4050   49.5970 N.pl3 362  BEL362     -0.3044
     11  C7       -12.6180  -14.1160   48.7640 C.3   362  BEL362      0.1031
     12  C8       -12.9640  -13.6630   47.4400 C.3   362  BEL362      0.0890
     13 BR1       -12.1020  -14.6330   46.1660 Br    362  BEL362     -0.0789
     14  C9       -11.8510  -11.9880   49.9510 C.3   362  BEL362      0.1031
     15  C10      -12.8380  -11.6720   51.0730 C.3   362  BEL362      0.0890
     16 BR2       -14.3250  -10.9180   50.3690 Br    362  BEL362     -0.0789
     17  C11       -7.2740  -14.0270   47.3740 C.2   362  BEL362      0.2665
     18  O3        -6.8410  -14.9130   46.6620 O.2   362  BEL362     -0.2683
     19  N3        -7.0960  -12.7060   47.1110 N.am  362  BEL362     -0.1988
     20  C12       -7.6310  -12.0760   45.8930 C.3   362  BEL362      0.1509
     21  C13       -6.9310  -10.8290   45.3560 C.3   362  BEL362      0.2063
     22  O4        -6.9880  -10.8470   43.9260 O.3   362  BEL362     -0.2184
     23  C14       -5.5070  -10.6080   45.9160 C.3   362  BEL362      0.2166
     24  O5        -4.6080  -11.6430   45.5370 O.3   362  BEL362     -0.2175
     25  N4        -6.3170  -15.7800   49.9640 N.pl3 362  BEL362      0.0579
     26  O6        -6.1620  -16.4770   50.9570 O.2   362  BEL362     -0.1261
     27  O7        -5.4820  -15.6650   49.1050 O.2   362  BEL362     -0.1261
@<TRIPOS>BOND
     1    22    21    1
     2    21    20    1
     3    21    23    1
     4    24    23    1
     5    20    19    1
     6    13    12    1
     7    18    17    2
     8    19    17   am
     9    17     7    1
    10    12    11    1
    11     8     7   ar
    12     8     9   ar
    13     7     6   ar
    14    11    10    1
    15    27    25    2
    16    10     9    1
    17    10    14    1
    18     9     4   ar
    19     6    25    1
    20     6     5   ar
    21    14    15    1
    22    25    26    2
    23    16    15    1
    24     4     5   ar
    25     4     2    1
    26     2     3    2
    27     2     1    2
