@<TRIPOS>MOLECULE
1oon_FMN_A_1.pdb
 31 33 0 0 0
SMALL
GASTEIGER

@<TRIPOS>ATOM
      1  N1        19.8990  -33.5970   50.1300 N.2   360  FMN360     -0.2890
      2  C2        21.1910  -33.3890   50.5250 C.1   360  FMN360      0.3669
      3  O2        22.1470  -33.8720   49.9660 O.2   360  FMN360     -0.1744
      4  N3        21.4390  -32.5460   51.6650 N.2   360  FMN360     -0.2300
      5  C4        20.4860  -31.8880   52.3810 C.1   360  FMN360      0.2513
      6  O4        20.7970  -31.1710   53.3490 O.2   360  FMN360     -0.2057
      7  C4A       19.1020  -32.0610   51.9090 C.2   360  FMN360      0.2700
      8  N5        18.0940  -31.4060   52.4910 N.2   360  FMN360     -0.3878
      9  C5A       16.8710  -31.4050   51.8740 C.2   360  FMN360      0.1320
     10  C6        15.8180  -30.4990   52.3260 C.2   360  FMN360      0.0250
     11  C7        14.6260  -30.3460   51.6920 C.2   360  FMN360     -0.0238
     12  C7M       13.5650  -29.3410   52.1380 C.3   360  FMN360      0.0308
     13  C8        14.3350  -31.1870   50.5150 C.2   360  FMN360     -0.0280
     14  C8M       13.0710  -31.0440   49.7350 C.3   360  FMN360      0.0304
     15  C9        15.2820  -32.1140   50.1280 C.2   360  FMN360     -0.0041
     16  C9A       16.5540  -32.2300   50.7200 C.3   360  FMN360      0.1497
     17  N10       17.6110  -33.0580   50.2400 N.pl3 360  FMN360     -0.2691
     18  C10       18.8990  -32.9540   50.7300 C.2   360  FMN360      0.2416
     19  C1'       17.3930  -33.9790   49.1090 C.3   360  FMN360      0.1294
     20  C2'       16.4560  -35.1340   49.4410 C.3   360  FMN360      0.2044
     21  O2'       17.1080  -36.2390   50.0790 O.3   360  FMN360     -0.2185
     22  C3'       15.8000  -35.5910   48.1220 C.3   360  FMN360      0.2164
     23  O3'       14.8330  -34.5680   47.7570 O.3   360  FMN360     -0.2175
     24  C4'       15.0960  -36.9240   48.1730 C.3   360  FMN360      0.2147
     25  O4'       16.0420  -37.9860   48.4520 O.3   360  FMN360     -0.2176
     26  C5'       14.3610  -37.2960   46.9030 C.3   360  FMN360      0.1892
     27  O5'       15.3000  -37.3750   45.8160 O.3   360  FMN360     -0.2674
     28  P         15.2220  -36.4400   44.5450 P.3   360  FMN360      0.5327
     29  O1P       16.3670  -36.8310   43.6600 O.2   360  FMN360     -0.2224
     30  O2P       15.2410  -35.0130   44.9730 O.3   360  FMN360     -0.1145
     31  O3P       13.8670  -36.8220   43.8810 O.3   360  FMN360     -0.1145
@<TRIPOS>BOND
     1    29    28    2
     2    31    28    1
     3    28    30    1
     4    28    27    1
     5    27    26    1
     6    26    24    1
     7    23    22    1
     8    22    24    1
     9    22    20    1
    10    24    25    1
    11    19    20    1
    12    19    17    1
    13    20    21    1
    14    14    13    1
    15     3     2    2
    16    15    13    2
    17    15    16    1
    18     1     2    2
    19     1    18    2
    20    17    16    1
    21    17    18    1
    22    13    11    1
    23     2     4    2
    24    16     9    1
    25    18     7    1
    26     4     5    2
    27    11    12    1
    28    11    10    2
    29     9    10    1
    30     9     8    2
    31     7     5    1
    32     7     8    2
    33     5     6    2
