@<TRIPOS>MOLECULE
1ooq_FMN_A_1.pdb
 31 33 0 0 0
SMALL
GASTEIGER

@<TRIPOS>ATOM
      1  N1        19.7750  -33.4430   50.2340 N.2   218  FMN218     -0.2890
      2  C2        21.0710  -33.3040   50.6620 C.1   218  FMN218      0.3669
      3  O2        22.0180  -33.7970   50.1050 O.2   218  FMN218     -0.1744
      4  N3        21.3300  -32.5230   51.8400 N.2   218  FMN218     -0.2300
      5  C4        20.3890  -31.8520   52.5560 C.1   218  FMN218      0.2513
      6  O4        20.7050  -31.2080   53.5620 O.2   218  FMN218     -0.2057
      7  C4A       19.0130  -31.9400   52.0550 C.2   218  FMN218      0.2700
      8  N5        18.0200  -31.2680   52.6500 N.2   218  FMN218     -0.3878
      9  C5A       16.7720  -31.2900   52.0830 C.2   218  FMN218      0.1320
     10  C6        15.7250  -30.4090   52.5880 C.2   218  FMN218      0.0250
     11  C7        14.5130  -30.2500   51.9830 C.2   218  FMN218     -0.0238
     12  C7M       13.4720  -29.2180   52.4340 C.3   218  FMN218      0.0308
     13  C8        14.1850  -31.0920   50.8360 C.2   218  FMN218     -0.0280
     14  C8M       12.9010  -30.9520   50.0820 C.3   218  FMN218      0.0304
     15  C9        15.1170  -32.0330   50.4160 C.2   218  FMN218     -0.0041
     16  C9A       16.4190  -32.1170   50.9390 C.3   218  FMN218      0.1497
     17  N10       17.4790  -32.9210   50.4060 N.pl3 218  FMN218     -0.2691
     18  C10       18.7850  -32.8060   50.8580 C.2   218  FMN218      0.2416
     19  C1'       17.2330  -33.8480   49.2760 C.3   218  FMN218      0.1294
     20  C2'       16.4550  -34.9860   49.6070 C.3   218  FMN218      0.2044
     21  O2'       17.2370  -36.0500   50.1470 O.3   218  FMN218     -0.2185
     22  C3'       15.7400  -35.4640   48.3250 C.3   218  FMN218      0.2164
     23  O3'       14.8290  -34.4080   47.9020 O.3   218  FMN218     -0.2175
     24  C4'       14.9250  -36.7310   48.4410 C.3   218  FMN218      0.2147
     25  O4'       15.7600  -37.8530   48.8310 O.3   218  FMN218     -0.2176
     26  C5'       14.2320  -37.1010   47.1490 C.3   218  FMN218      0.1892
     27  O5'       15.2340  -37.2210   46.1240 O.3   218  FMN218     -0.2674
     28  P         15.2540  -36.3130   44.8310 P.3   218  FMN218      0.5327
     29  O1P       16.4640  -36.7170   44.0370 O.2   218  FMN218     -0.2224
     30  O2P       15.2330  -34.8710   45.2200 O.3   218  FMN218     -0.1145
     31  O3P       13.9470  -36.7190   44.0610 O.3   218  FMN218     -0.1145
@<TRIPOS>BOND
     1    29    28    2
     2    31    28    1
     3    28    30    1
     4    28    27    1
     5    27    26    1
     6    26    24    1
     7    23    22    1
     8    22    24    1
     9    22    20    1
    10    24    25    1
    11    19    20    1
    12    19    17    1
    13    20    21    1
    14    14    13    1
    15     3     2    2
    16     1     2    2
    17     1    18    2
    18    17    18    1
    19    17    16    1
    20    15    13    2
    21    15    16    1
    22     2     4    2
    23    13    11    1
    24    18     7    1
    25    16     9    1
    26     4     5    2
    27    11    12    1
    28    11    10    2
    29     7     5    1
    30     7     8    2
    31     9    10    1
    32     9     8    2
    33     5     6    2
