@<TRIPOS>MOLECULE
1ooq_DTC_B_1.pdb
 25 28 0 0 0
SMALL
GASTEIGER

@<TRIPOS>ATOM
      1  O5        19.6540  -36.6820   52.2010 O.2   222  DTC222     -0.4211
      2  C10       19.3750  -35.7700   53.2550 C.ar  222  DTC222      0.1517
      3  C9        20.3590  -35.5580   54.3150 C.ar  222  DTC222      0.0735
      4  C8        21.5790  -36.2880   54.2730 C.ar  222  DTC222      0.2011
      5  O17       22.5330  -36.1060   55.2840 O.3   222  DTC222     -0.2866
      6  C7        21.8610  -37.2270   53.2140 C.ar  222  DTC222      0.0973
      7  C15       23.1840  -38.0660   53.3110 C.3   222  DTC222      0.0724
      8  C6        20.8750  -37.4210   52.1710 C.ar  222  DTC222      0.3451
      9  O16       21.0960  -38.2990   51.1070 O.2   222  DTC222     -0.2447
     10  C1        20.0530  -34.6370   55.3520 C.ar  222  DTC222      0.0062
     11  C2        18.8080  -33.9470   55.3710 C.ar  222  DTC222      0.0003
     12  C3        17.8580  -34.1660   54.3420 C.ar  222  DTC222      0.0031
     13  C4        18.1530  -35.0770   53.2820 C.ar  222  DTC222      0.0377
     14  C5        25.8680  -34.9770   50.2150 C.ar  222  DTC222      0.0062
     15  C20       25.6200  -36.2250   50.8830 C.ar  222  DTC222      0.0735
     16  C19       26.5710  -37.2810   50.7300 C.ar  222  DTC222      0.1517
     17  C18       27.7960  -37.0590   50.0300 C.ar  222  DTC222      0.0377
     18  C17       28.0040  -35.8390   49.3180 C.ar  222  DTC222      0.0031
     19  C16       27.0270  -34.7940   49.4040 C.ar  222  DTC222      0.0003
     20  O21       26.3800  -38.5350   51.4080 O.2   222  DTC222     -0.4211
     21  C12       25.2590  -38.7870   52.2510 C.ar  222  DTC222      0.3451
     22  O32       25.1920  -40.0170   52.9420 O.2   222  DTC222     -0.2447
     23  C13       24.2550  -37.7990   52.4240 C.ar  222  DTC222      0.0973
     24  C14       24.4760  -36.4260   51.7360 C.ar  222  DTC222      0.2011
     25  O38       23.6020  -35.3760   51.9570 O.3   222  DTC222     -0.2866
@<TRIPOS>BOND
     1    18    19   ar
     2    18    17   ar
     3    19    14   ar
     4    17    16   ar
     5    14    15   ar
     6    16    15   ar
     7    16    20   ar
     8    15    24   ar
     9     9     8    2
    10    20    21   ar
    11    24    25    1
    12    24    23   ar
    13     8     1   ar
    14     8     6   ar
    15     1     2   ar
    16    21    23   ar
    17    21    22    2
    18    23     7    1
    19     6     7    1
    20     6     4   ar
    21     2    13   ar
    22     2     3   ar
    23    13    12   ar
    24     4     3   ar
    25     4     5    1
    26     3    10   ar
    27    12    11   ar
    28    10    11   ar
