@<TRIPOS>MOLECULE
1op0_FUC_A_1.pdb
 10 10 0 0 0
SMALL
GASTEIGER

@<TRIPOS>ATOM
      1  C1        -6.9690   33.9070   27.7800 C.3   302  FUC302      0.1776
      2  C2        -7.8980   33.0670   26.8950 C.3   302  FUC302      0.2141
      3  C3        -7.0950   32.4740   25.7320 C.3   302  FUC302      0.2172
      4  C4        -5.9180   31.6560   26.2750 C.3   302  FUC302      0.2116
      5  C5        -5.0650   32.5220   27.2110 C.3   302  FUC302      0.1483
      6  C6        -3.9660   31.7330   27.8960 C.3   302  FUC302      0.0349
      7  O2        -8.9460   33.8810   26.3920 O.3   302  FUC302     -0.2176
      8  O3        -7.9330   31.6510   24.9320 O.3   302  FUC302     -0.2175
      9  O4        -6.4070   30.5240   26.9830 O.3   302  FUC302     -0.2177
     10  O5        -5.8910   33.0970   28.2530 O.3   302  FUC302     -0.3508
@<TRIPOS>BOND
     1     8     3    1
     2     3     4    1
     3     3     2    1
     4     4     9    1
     5     4     5    1
     6     7     2    1
     7     2     1    1
     8     5     6    1
     9     5    10    1
    10     1    10    1
