@<TRIPOS>MOLECULE
1op3_MAN_H_1.pdb
 12 12 0 0 0
SMALL
GASTEIGER

@<TRIPOS>ATOM
      1  C1       -13.3650   65.3090   55.6950 C.3   501  MAN501      0.3024
      2  C2       -11.9710   65.9370   55.7920 C.3   501  MAN501      0.2434
      3  C3       -12.0960   67.4210   55.4540 C.3   501  MAN501      0.2199
      4  C4       -12.6760   67.5780   54.0380 C.3   501  MAN501      0.2144
      5  C5       -13.9810   66.7880   53.8860 C.3   501  MAN501      0.1836
      6  C6       -14.4660   66.7720   52.4300 C.3   501  MAN501      0.2142
      7  O1       -14.2390   65.8760   56.6680 O.3   501  MAN501     -0.1869
      8  O2       -11.1250   65.3530   54.8060 O.3   501  MAN501     -0.2148
      9  O3       -10.8490   68.0710   55.5430 O.3   501  MAN501     -0.2174
     10  O4       -12.8750   68.9460   53.7520 O.3   501  MAN501     -0.2176
     11  O5       -13.8640   65.4480   54.3670 O.3   501  MAN501     -0.3236
     12  O6       -15.7240   66.1220   52.3720 O.3   501  MAN501     -0.2176
@<TRIPOS>BOND
     1    12     6    1
     2     6     5    1
     3    10     4    1
     4     5     4    1
     5     5    11    1
     6     4     3    1
     7    11     1    1
     8     8     2    1
     9     3     9    1
    10     3     2    1
    11     1     2    1
    12     1     7    1
