@<TRIPOS>MOLECULE
1op5_MAN_H_1.pdb
 11 11 0 0 0
SMALL
GASTEIGER

@<TRIPOS>ATOM
      1  C1         5.3860   19.9270   85.7240 C.3   238  MAN238      0.1777
      2  C2         5.6920   20.6540   87.0230 C.3   238  MAN238      0.2141
      3  C3         4.2860   21.2720   87.2780 C.3   238  MAN238      0.2173
      4  C4         3.8570   22.1370   86.1070 C.3   238  MAN238      0.2142
      5  C5         3.6370   21.3890   84.8190 C.3   238  MAN238      0.1810
      6  C6         3.4700   22.2710   83.5890 C.3   238  MAN238      0.2141
      7  O2         6.8640   21.5170   86.9760 O.3   238  MAN238     -0.2176
      8  O3         4.2540   22.0950   88.4110 O.3   238  MAN238     -0.2175
      9  O4         2.7510   22.8230   86.4840 O.3   238  MAN238     -0.2176
     10  O5         4.8830   20.7390   84.6330 O.3   238  MAN238     -0.3481
     11  O6         3.6950   23.6250   83.8730 O.3   238  MAN238     -0.2176
@<TRIPOS>BOND
     1     6    11    1
     2     6     5    1
     3    10     5    1
     4    10     1    1
     5     5     4    1
     6     1     2    1
     7     4     9    1
     8     4     3    1
     9     7     2    1
    10     2     3    1
    11     3     8    1
