@<TRIPOS>MOLECULE
1opb_RET_A_1.pdb
 21 21 0 0 0
SMALL
GASTEIGER

@<TRIPOS>ATOM
      1  C1       -13.9720   60.2020   36.1770 C.3   134  RET134      0.0183
      2  C2       -14.1300   61.2730   35.0750 C.3   134  RET134      0.0044
      3  C3       -13.7230   60.8910   33.7660 C.3   134  RET134      0.0047
      4  C4       -12.3050   60.4270   33.7280 C.3   134  RET134      0.0217
      5  C5       -11.9100   59.5430   34.8830 C.2   134  RET134     -0.0479
      6  C6       -12.6620   59.4010   35.9940 C.2   134  RET134     -0.0310
      7  C7       -12.2630   58.5110   37.1470 C.2   134  RET134     -0.0095
      8  C8       -12.4560   57.1950   37.2970 C.2   134  RET134     -0.0265
      9  C9       -12.0510   56.3650   38.4310 C.3   134  RET134      0.0264
     10  C10      -12.9390   55.4460   38.8920 C.3   134  RET134      0.0303
     11  C11      -12.7530   54.5450   40.0150 C.2   134  RET134     -0.0261
     12  C12      -13.5920   53.6070   40.4570 C.2   134  RET134     -0.0091
     13  C13      -13.3440   52.7480   41.6190 C.2   134  RET134     -0.0239
     14  C14      -14.4010   52.4460   42.3910 C.2   134  RET134      0.0048
     15  C15      -14.4100   51.6570   43.6130 C.3   134  RET134      0.2080
     16  O1       -14.9180   52.1470   44.8510 O.3   134  RET134     -0.2152
     17  C16      -14.0040   60.9570   37.5030 C.3   134  RET134      0.0043
     18  C17      -15.2220   59.3290   36.1050 C.3   134  RET134      0.0043
     19  C18      -10.5610   58.9060   34.6100 C.3   134  RET134      0.0260
     20  C19      -10.5760   56.2220   38.6330 C.3   134  RET134      0.0050
     21  C20      -11.9380   52.4990   42.0520 C.3   134  RET134      0.0308
@<TRIPOS>BOND
     1     4     3    1
     2     4     5    1
     3     3     2    1
     4    19     5    1
     5     5     6    2
     6     2     1    1
     7     6     1    1
     8     6     7    1
     9    18     1    1
    10     1    17    1
    11     7     8    2
    12     8     9    1
    13     9    20    1
    14     9    10    1
    15    10    11    1
    16    11    12    2
    17    12    13    1
    18    13    21    1
    19    13    14    2
    20    14    15    1
    21    15    16    1
