@<TRIPOS>MOLECULE
1opj_STI_A_1.pdb
 37 41 0 0 0
SMALL
GASTEIGER

@<TRIPOS>ATOM
      1  C1        26.4350   23.4740   55.5240 C.ar    3  STI3        0.0208
      2  C6        25.2230   22.6990   55.6020 C.ar    3  STI3        0.0057
      3  C5        24.7990   21.8800   54.4890 C.ar    3  STI3        0.0497
      4  C4        25.6100   21.8520   53.3030 C.ar    3  STI3        0.1014
      5  N3        26.7800   22.6100   53.2440 N.ar    3  STI3       -0.2422
      6  C2        27.1990   23.4060   54.3150 C.ar    3  STI3        0.0989
      7  C7        23.5550   21.0540   54.5270 C.2     3  STI3        0.1472
      8  C12       22.7250   20.9440   55.6930 C.2     3  STI3        0.0546
      9  C11       21.5850   20.1190   55.5900 C.2     3  STI3        0.1144
     10  N10       21.3140   19.4660   54.4110 N.2     3  STI3       -0.1683
     11  C9        22.1350   19.5990   53.3140 C.1     3  STI3        0.1696
     12  N8        23.2360   20.3880   53.3920 N.2     3  STI3       -0.3361
     13  N13       21.8930   18.9370   52.1100 N.pl3   3  STI3       -0.1360
     14  C14       20.8000   18.0820   51.9690 C.ar    3  STI3        0.0799
     15  C19       20.8950   16.6830   52.3640 C.ar    3  STI3       -0.0057
     16  C18       19.7410   15.8400   52.1950 C.ar    3  STI3       -0.0016
     17  C17       18.5200   16.3790   51.6450 C.ar    3  STI3        0.0164
     18  C16       18.4520   17.7520   51.2680 C.ar    3  STI3        0.0750
     19  C15       19.6160   18.5880   51.4410 C.ar    3  STI3        0.0336
     20  N21       17.2440   18.2410   50.7360 N.am    3  STI3       -0.1754
     21  C22       16.9570   19.5050   50.3130 C.2     3  STI3        0.2690
     22  C23       15.7130   19.6830   49.5270 C.ar    3  STI3        0.0554
     23  C25       15.4600   20.9160   48.8070 C.ar    3  STI3        0.0043
     24  C26       14.2530   21.0670   48.0610 C.ar    3  STI3       -0.0028
     25  C27       13.2970   19.9820   48.0340 C.ar    3  STI3       -0.0061
     26  C28       13.5630   18.7600   48.7550 C.ar    3  STI3       -0.0028
     27  C29       14.7510   18.6030   49.4920 C.ar    3  STI3        0.0043
     28  C46       11.9810   20.0690   47.2900 C.3     3  STI3        0.0992
     29  N48       10.8100   19.7480   48.1200 N.3     3  STI3       -0.2665
     30  C53       10.7200   20.7190   49.2720 C.3     3  STI3        0.0899
     31  C52        9.5020   20.4090   50.1820 C.3     3  STI3        0.0897
     32  N51        8.2350   20.4030   49.3520 N.3     3  STI3       -0.2691
     33  C54        7.0320   20.1310   50.1620 C.3     3  STI3        0.0897
     34  C50        8.3240   19.3770   48.2220 C.3     3  STI3        0.0897
     35  C49        9.5240   19.7380   47.3080 C.3     3  STI3        0.0899
     36  O29       17.6430   20.5060   50.5280 O.2     3  STI3       -0.2680
     37  C20       22.1810   16.0740   52.9530 C.3     3  STI3        0.0324
@<TRIPOS>BOND
     1    28    25    1
     2    28    29    1
     3    35    29    1
     4    35    34    1
     5    25    24   ar
     6    25    26   ar
     7    24    23   ar
     8    29    30    1
     9    34    32    1
    10    26    27   ar
    11    23    22   ar
    12    30    31    1
    13    32    33    1
    14    32    31    1
    15    27    22   ar
    16    22    21    1
    17    21    36    2
    18    21    20   am
    19    20    18    1
    20    18    19   ar
    21    18    17   ar
    22    19    14   ar
    23    17    16   ar
    24    14    13    1
    25    14    15   ar
    26    13    11    1
    27    16    15   ar
    28    15    37    1
    29     5     4   ar
    30     5     6   ar
    31     4     3   ar
    32    11    12    2
    33    11    10    2
    34    12     7    2
    35     6     1   ar
    36    10     9    1
    37     3     7    1
    38     3     2   ar
    39     7     8    1
    40     1     2   ar
    41     9     8    2
