@<TRIPOS>MOLECULE
1opk_P16_A_1.pdb
 29 32 0 0 0
SMALL
GASTEIGER

@<TRIPOS>ATOM
      1  O1        49.9800   11.0930   14.9440 O.3     2  P162       -0.2152
      2  C2        49.5960   11.8940   13.8620 C.3     2  P162        0.2086
      3  C3        49.2210   13.3090   14.2740 C.ar    2  P162        0.0119
      4  C4        50.1470   14.3930   14.0730 C.ar    2  P162       -0.0017
      5  C5        49.8040   15.7040   14.4610 C.ar    2  P162        0.0011
      6  C6        48.5350   15.9740   15.0610 C.ar    2  P162        0.0173
      7  C7        47.6040   14.9030   15.2640 C.ar    2  P162        0.0823
      8  N9        46.3300   15.0460   15.8740 N.pl3   2  P162       -0.1357
      9  C10       45.8970   16.0610   16.6810 C.1     2  P162        0.1711
     10  N11       44.6140   15.9020   17.1770 N.2     2  P162       -0.1682
     11  C12       44.1550   16.8600   18.0020 C.2     2  P162        0.1158
     12  C13       44.9250   17.9970   18.3770 C.ar    2  P162        0.0676
     13  C16       44.4520   19.0260   19.2590 C.ar    2  P162        0.0105
     14  C17       45.2430   20.0910   19.5760 C.ar    2  P162        0.0580
     15  C18       46.6220   20.2330   18.9780 C.ar    2  P162        0.2627
     16  O21       47.4050   21.1590   19.1990 O.2     2  P162       -0.2669
     17  N19       47.0620   19.1770   18.1030 N.ar    2  P162       -0.2681
     18  C14       46.2420   18.0920   17.7880 C.ar    2  P162        0.2117
     19  N15       46.7060   17.1150   16.9680 N.2     2  P162       -0.3179
     20  C20       48.4070   19.2460   17.4790 C.3     2  P162        0.1361
     21  C22       44.7990   21.1600   20.4950 C.ar    2  P162        0.0257
     22  C27       44.2640   22.3890   20.0170 C.ar    2  P162        0.0586
     23 CL28       44.0600   22.6440   18.2990 Cl      2  P162       -0.0822
     24  C26       43.8570   23.4190   20.9290 C.ar    2  P162        0.0114
     25  C25       44.0140   23.2320   22.3330 C.ar    2  P162        0.0017
     26  C24       44.5430   22.0100   22.8440 C.ar    2  P162        0.0114
     27  C23       44.9430   20.9980   21.9160 C.ar    2  P162        0.0586
     28 CL29       45.5840   19.5110   22.5540 Cl      2  P162       -0.0822
     29  C8        47.9620   13.5700   14.8660 C.ar    2  P162        0.0156
@<TRIPOS>BOND
     1     2     3    1
     2     2     1    1
     3     4     3   ar
     4     4     5   ar
     5     3    29   ar
     6     5     6   ar
     7    29     7   ar
     8     6     7   ar
     9     7     8    1
    10     8     9    1
    11     9    19    2
    12     9    10    2
    13    19    18    2
    14    10    11    1
    15    20    17    1
    16    18    17   ar
    17    18    12   ar
    18    11    12    2
    19    17    15   ar
    20    23    22    1
    21    12    13   ar
    22    15    16    2
    23    15    14   ar
    24    13    14   ar
    25    14    21    1
    26    22    21   ar
    27    22    24   ar
    28    21    27   ar
    29    24    25   ar
    30    27    28    1
    31    27    26   ar
    32    25    26   ar
