@<TRIPOS>MOLECULE
1opl_P16_A_1.pdb
 29 32 0 0 0
SMALL
GASTEIGER

@<TRIPOS>ATOM
      1  O1        23.4660   47.1550   43.6910 O.3   539  P16539     -0.2152
      2  C2        24.5650   47.5650   44.4540 C.3   539  P16539      0.2086
      3  C3        24.1850   47.9820   45.8660 C.ar  539  P16539      0.0119
      4  C4        24.4060   47.0880   46.9720 C.ar  539  P16539     -0.0017
      5  C5        24.0480   47.4730   48.2800 C.ar  539  P16539      0.0011
      6  C6        23.4600   48.7510   48.5270 C.ar  539  P16539      0.0173
      7  C7        23.2360   49.6500   47.4320 C.ar  539  P16539      0.0823
      8  N9        22.6350   50.9290   47.5530 N.pl3 539  P16539     -0.1357
      9  C10       21.8510   51.3960   48.5740 C.1   539  P16539      0.1711
     10  N11       21.3550   52.6750   48.3890 N.2   539  P16539     -0.1682
     11  C12       20.5550   53.1660   49.3510 C.2   539  P16539      0.1158
     12  C13       20.1970   52.4280   50.5150 C.ar  539  P16539      0.0676
     13  C16       19.3410   52.9370   51.5460 C.ar  539  P16539      0.0105
     14  C17       19.0420   52.1790   52.6400 C.ar  539  P16539      0.0580
     15  C18       19.6360   50.8010   52.8100 C.ar  539  P16539      0.2627
     16  O21       19.4310   50.0470   53.7610 O.2   539  P16539     -0.2669
     17  N19       20.4860   50.3250   51.7500 N.ar  539  P16539     -0.2681
     18  C14       20.7860   51.1130   50.6370 C.ar  539  P16539      0.2117
     19  N15       21.5790   50.6150   49.6550 N.2   539  P16539     -0.3179
     20  C20       21.1030   48.9800   51.8470 C.3   539  P16539      0.1361
     21  C22       18.1480   52.6580   53.7150 C.ar  539  P16539      0.0257
     22  C27       18.6540   53.2270   54.9170 C.ar  539  P16539      0.0586
     23 CL28       20.3780   53.4290   55.1300 Cl    539  P16539     -0.0822
     24  C26       17.7660   53.6670   55.9540 C.ar  539  P16539      0.0114
     25  C25       16.3580   53.5130   55.7990 C.ar  539  P16539      0.0017
     26  C24       15.8190   52.9510   54.6050 C.ar  539  P16539      0.0114
     27  C23       16.7230   52.5180   53.5860 C.ar  539  P16539      0.0586
     28 CL29       16.0520   51.8370   52.1320 Cl    539  P16539     -0.0822
     29  C8        23.6040   49.2510   46.1040 C.ar  539  P16539      0.0156
@<TRIPOS>BOND
     1     1     2    1
     2     2     3    1
     3     3    29   ar
     4     3     4   ar
     5    29     7   ar
     6     4     5   ar
     7     7     8    1
     8     7     6   ar
     9     8     9    1
    10     5     6   ar
    11    10     9    2
    12    10    11    1
    13     9    19    2
    14    11    12    2
    15    19    18    2
    16    12    18   ar
    17    12    13   ar
    18    18    17   ar
    19    13    14   ar
    20    17    20    1
    21    17    15   ar
    22    28    27    1
    23    14    15   ar
    24    14    21    1
    25    15    16    2
    26    27    21   ar
    27    27    26   ar
    28    21    22   ar
    29    26    25   ar
    30    22    23    1
    31    22    24   ar
    32    25    24   ar
