@<TRIPOS>MOLECULE
1opm_IYG_A_1.pdb
 22 22 0 0 0
SMALL
GASTEIGER

@<TRIPOS>ATOM
      1  CAN       48.5300   23.3330   40.7640 C.3   801  IYG801      0.0964
      2  CN        47.0230   23.3680   40.6190 C.2   801  IYG801      0.2423
      3  ON        46.4720   22.6610   39.7770 O.2   801  IYG801     -0.2733
      4  N         46.3580   24.1680   41.4540 N.am  801  IYG801     -0.1974
      5  CA        44.9180   24.2950   41.4020 C.3   801  IYG801      0.1770
      6  CB        44.2670   23.2920   42.3380 C.3   801  IYG801      0.0574
      7  CG        44.4560   23.5160   43.8220 C.ar  801  IYG801     -0.0189
      8  CD1       43.5210   24.2530   44.5500 C.ar  801  IYG801      0.0048
      9  CE1       43.5340   24.2770   45.9440 C.ar  801  IYG801      0.0690
     10  CD2       45.4450   22.8250   44.5300 C.ar  801  IYG801      0.0048
     11  CE2       45.4860   22.8440   45.9300 C.ar  801  IYG801      0.0690
     12  CZ        44.5340   23.5740   46.6350 C.ar  801  IYG801      0.2062
     13  OH        44.5890   23.5620   48.0150 O.3   801  IYG801     -0.2857
     14  I1        41.9750   25.1810   46.9720 I     801  IYG801     -0.0392
     15  I2        46.8700   21.6990   46.9500 I     801  IYG801     -0.0392
     16  C         44.4060   25.7070   41.6710 C.2   801  IYG801      0.2621
     17  O         45.0520   26.4680   42.3740 O.2   801  IYG801     -0.2715
     18  NT        43.2580   26.0460   41.0820 N.am  801  IYG801     -0.1917
     19  CAT       42.6590   27.3640   41.2500 C.3   801  IYG801      0.2285
     20  CT        41.1830   27.3680   40.8760 C.2   801  IYG801      0.3865
     21  OT1       40.6950   28.3910   40.3460 O.co2 801  IYG801     -0.2437
     22  OT2       40.5020   26.3360   41.0910 O.co2 801  IYG801     -0.2437
@<TRIPOS>BOND
     1     3     2    2
     2    21    20   ar
     3     2     1    1
     4     2     4   am
     5    20    22   ar
     6    20    19    1
     7    18    19    1
     8    18    16   am
     9     5     4    1
    10     5    16    1
    11     5     6    1
    12    16    17    2
    13     6     7    1
    14     7    10   ar
    15     7     8   ar
    16    10    11   ar
    17     8     9   ar
    18    11    12   ar
    19    11    15    1
    20     9    12   ar
    21     9    14    1
    22    12    13    1
