@<TRIPOS>MOLECULE
1opr_ORO_A_1.pdb
 11 11 0 0 0
SMALL
GASTEIGER

@<TRIPOS>ATOM
      1  N1        17.1180   32.8830   17.0060 N.2   220  ORO220     -0.3044
      2  C2        17.9380   33.6180   16.1940 C.1   220  ORO220      0.3651
      3  O2        18.1240   33.3460   15.0440 O.2   220  ORO220     -0.1745
      4  N3        18.4840   34.7150   16.7450 N.2   220  ORO220     -0.2366
      5  C4        18.3630   35.1150   18.0360 C.1   220  ORO220      0.2010
      6  O4        18.9320   36.1350   18.4260 O.2   220  ORO220     -0.2129
      7  C5        17.4810   34.3000   18.8110 C.3   220  ORO220      0.2022
      8  C6        16.9000   33.2380   18.2930 C.2   220  ORO220      0.2212
      9  C7        16.0380   32.4570   19.0890 C.2   220  ORO220      0.4149
     10  O71       15.0680   31.7730   18.6540 O.co2 220  ORO220     -0.2380
     11  O72       16.4870   32.0070   20.1690 O.co2 220  ORO220     -0.2380
@<TRIPOS>BOND
     1     3     2    2
     2     2     4    2
     3     2     1    2
     4     4     5    2
     5     1     8    2
     6     5     6    2
     7     5     7    1
     8     8     7    1
     9     8     9    1
    10    10     9   ar
    11     9    11   ar
