@<TRIPOS>MOLECULE
1opr_PRP_A_1.pdb
 22 22 0 0 0
SMALL
GASTEIGER

@<TRIPOS>ATOM
      1  C1        19.0660   27.4910   11.3030 C.3   221  PRP221      0.2742
      2  C2        20.3810   28.2810   11.1840 C.3   221  PRP221      0.2408
      3  C3        21.2310   27.6860   12.3170 C.3   221  PRP221      0.2167
      4  C4        20.2370   26.8330   13.1120 C.3   221  PRP221      0.1808
      5  C5        20.3820   26.8080   14.6110 C.3   221  PRP221      0.1859
      6  O1        19.2020   26.1090   10.7420 O.3   221  PRP221     -0.2857
      7  O2        21.0190   28.0410    9.9480 O.3   221  PRP221     -0.2149
      8  O3        22.2460   26.8580   11.7400 O.3   221  PRP221     -0.2175
      9  O4        18.9280   27.3170   12.7010 O.3   221  PRP221     -0.3255
     10  O5        19.3390   25.9940   15.0960 O.3   221  PRP221     -0.2675
     11  P         19.3550   25.1180   16.4480 P.3   221  PRP221      0.5327
     12  O1P       20.6870   25.4590   17.0850 O.3   221  PRP221     -0.1145
     13  O2P       19.4360   23.6980   16.0270 O.2   221  PRP221     -0.2224
     14  O3P       18.0000   25.3110   17.0300 O.3   221  PRP221     -0.1145
     15  PA        18.5060   25.6460    9.3740 P.3   221  PRP221      0.2249
     16  O1A       18.3800   24.1760    9.6240 O.3   221  PRP221     -0.4370
     17  O2A       17.1620   26.2570    9.4080 O.2   221  PRP221     -0.5169
     18  O3A       19.3120   26.3140    8.2930 O.3   221  PRP221     -0.2260
     19  PB        19.4590   25.9430    6.8390 P.3   221  PRP221      0.5373
     20  O1B       18.8220   27.0070    6.0610 O.2   221  PRP221     -0.2221
     21  O2B       18.7550   24.6880    6.4670 O.3   221  PRP221     -0.1143
     22  O3B       20.9300   25.8220    6.5350 O.3   221  PRP221     -0.1143
@<TRIPOS>BOND
     1    20    19    2
     2    21    19    1
     3    22    19    1
     4    19    18    1
     5    18    15    1
     6    15    17    2
     7    15    16    1
     8    15     6    1
     9     7     2    1
    10     6     1    1
    11     2     1    1
    12     2     3    1
    13     1     9    1
    14     8     3    1
    15     3     4    1
    16     9     4    1
    17     4     5    1
    18     5    10    1
    19    10    11    1
    20    13    11    2
    21    11    14    1
    22    11    12    1
