@<TRIPOS>MOLECULE
1oq5_CEL_A_1.pdb
 26 28 0 0 0
SMALL
GASTEIGER

@<TRIPOS>ATOM
      1  S1        15.2890    2.8460   16.6520 S.O2  701  CEL701      0.0935
      2  C15       15.9880    4.1960   15.7120 C.ar  701  CEL701      0.1251
      3  C14       15.1860    5.2150   15.2560 C.ar  701  CEL701      0.0216
      4  C13       15.7540    6.3000   14.6040 C.ar  701  CEL701      0.0205
      5  C12       17.1130    6.3320   14.4410 C.ar  701  CEL701      0.0829
      6  C17       17.9260    5.3110   14.8920 C.ar  701  CEL701      0.0205
      7  C16       17.3580    4.2110   15.5450 C.ar  701  CEL701      0.0216
      8  N2        17.6970    7.5280   13.8490 N.ar  701  CEL701     -0.2297
      9  C3        17.5200    8.1910   12.6670 C.ar  701  CEL701      0.0842
     10  C5        16.7620    7.8190   11.4780 C.ar  701  CEL701      0.0177
     11  C10       16.8180    6.4970   11.0640 C.ar  701  CEL701      0.0012
     12  C9        16.1520    6.0970    9.9300 C.ar  701  CEL701     -0.0042
     13  C8        15.3810    6.9930    9.2250 C.ar  701  CEL701     -0.0218
     14  C11       14.6630    6.5370    7.9810 C.3   701  CEL701      0.0310
     15  C7        15.2560    8.3000    9.6820 C.ar  701  CEL701     -0.0042
     16  C6        15.9710    8.7060   10.7780 C.ar  701  CEL701      0.0012
     17  C2        18.3570    9.3030   12.7050 C.ar  701  CEL701      0.0440
     18  C1        18.9230    9.2700   13.9750 C.ar  701  CEL701      0.1740
     19  C4        19.8490   10.2670   14.5820 C.3   701  CEL701      0.4366
     20  F3        21.0600   10.2580   14.0890 F     701  CEL701     -0.1643
     21  F2        19.9160   10.2130   15.9080 F     701  CEL701     -0.1643
     22  F1        19.3800   11.4890   14.3610 F     701  CEL701     -0.1643
     23  N1        18.5310    8.2110   14.6570 N.ar  701  CEL701     -0.1611
     24  N3        15.8130    1.4840   16.0220 N.3   701  CEL701      0.0392
     25  O2        13.8900    2.9120   16.5270 O.2   701  CEL701     -0.1503
     26  O1        15.8140    3.0120   17.9850 O.2   701  CEL701     -0.1503
@<TRIPOS>BOND
     1    14    13    1
     2    13    15   ar
     3    13    12   ar
     4    15    16   ar
     5    12    11   ar
     6    16    10   ar
     7    11    10   ar
     8    10     9    1
     9     9    17   ar
    10     9     8   ar
    11    17    18   ar
    12     8     5    1
    13     8    23   ar
    14    18    19    1
    15    18    23   ar
    16    20    19    1
    17    22    19    1
    18     5     4   ar
    19     5     6   ar
    20    19    21    1
    21     4     3   ar
    22     6     7   ar
    23     3     2   ar
    24     7     2   ar
    25     2     1    1
    26    24     1    1
    27    25     1    2
    28     1    26    2
