@<TRIPOS>MOLECULE
1oqm_UD2_B_1.pdb
 39 41 0 0 0
SMALL
GASTEIGER

@<TRIPOS>ATOM
      1  C1'        6.2590   -1.8700   24.6470 C.3   404  UD2404      0.2633
      2  C2'        5.7850   -0.4810   25.1500 C.3   404  UD2404      0.1845
      3  C3'        4.9050   -0.7190   26.3930 C.3   404  UD2404      0.2094
      4  C4'        3.6920   -1.5530   25.9700 C.3   404  UD2404      0.2136
      5  C5'        4.1430   -2.9000   25.3030 C.3   404  UD2404      0.1834
      6  C6'        3.1590   -3.6360   24.4530 C.3   404  UD2404      0.2142
      7  C7'        8.0610    0.4990   24.9420 C.2   404  UD2404      0.2420
      8  C8'        9.0230    1.3450   25.7080 C.3   404  UD2404      0.0964
      9  N2'        6.9240    0.3300   25.6280 N.am  404  UD2404     -0.1992
     10  O1'        7.0240   -2.5100   25.7130 O.3   404  UD2404     -0.2864
     11  O3'        4.4000    0.4920   26.9840 O.3   404  UD2404     -0.2183
     12  O4'        2.8380   -0.8520   25.1120 O.3   404  UD2404     -0.2176
     13  O5'        5.0900   -2.6150   24.1850 O.3   404  UD2404     -0.3260
     14  O6'        2.1470   -4.2820   25.1630 O.3   404  UD2404     -0.2176
     15  O7'        8.3390    0.0150   23.8310 O.2   404  UD2404     -0.2733
     16  N1         5.9580   -6.0880   32.5140 N.am  404  UD2404     -0.1766
     17  C2         6.3500   -6.6750   33.7430 C.1   404  UD2404      0.2845
     18  N3         6.4800   -8.0680   33.7230 N.2   404  UD2404     -0.2452
     19  C4         6.2530   -8.9130   32.6210 C.1   404  UD2404      0.2182
     20  C5         5.8570   -8.2360   31.4030 C.2   404  UD2404      0.1242
     21  C6         5.7230   -6.9100   31.3760 C.2   404  UD2404      0.0929
     22  O2         6.5460   -5.9510   34.7090 O.2   404  UD2404     -0.1918
     23  O4         6.3960  -10.1080   32.7380 O.2   404  UD2404     -0.2085
     24  C1B        5.8080   -4.5710   32.5210 C.3   404  UD2404      0.2401
     25  C2B        7.0250   -3.7190   32.6110 C.3   404  UD2404      0.2319
     26  O2'        6.7410   -2.4710   33.2530 O.3   404  UD2404     -0.2157
     27  C3B        7.3640   -3.5810   31.1670 C.3   404  UD2404      0.2158
     28  C4B        6.0090   -3.2710   30.5590 C.3   404  UD2404      0.1799
     29  O4B        5.2040   -4.2460   31.2830 O.3   404  UD2404     -0.3320
     30  O3B        8.3250   -2.5520   30.8790 O.3   404  UD2404     -0.2175
     31  C5B        5.9810   -3.4800   29.0710 C.3   404  UD2404      0.1813
     32  O5B        6.3300   -4.7810   28.5540 O.3   404  UD2404     -0.3112
     33  PA         7.7810   -5.1320   27.9710 P.3   404  UD2404      0.2189
     34  O1A        8.7910   -4.1790   28.4940 O.3   404  UD2404     -0.4371
     35  O2A        8.1820   -6.5580   28.0350 O.2   404  UD2404     -0.5170
     36  O3A        7.4120   -4.8680   26.3870 O.3   404  UD2404     -0.2703
     37  PB         7.8470   -3.7170   25.4380 P.3   404  UD2404      0.2208
     38  O1B        7.8400   -4.5000   24.0530 O.2   404  UD2404     -0.5170
     39  O2B        9.2180   -3.3670   25.8610 O.3   404  UD2404     -0.4371
@<TRIPOS>BOND
     1    15     7    2
     2    38    37    2
     3    13     1    1
     4    13     5    1
     5     6    14    1
     6     6     5    1
     7     1     2    1
     8     1    10    1
     9     7     9   am
    10     7     8    1
    11    12     4    1
    12     2     9    1
    13     2     3    1
    14     5     4    1
    15    37    10    1
    16    37    39    1
    17    37    36    1
    18     4     3    1
    19    36    33    1
    20     3    11    1
    21    33    35    2
    22    33    34    1
    23    33    32    1
    24    32    31    1
    25    31    28    1
    26    28    27    1
    27    28    29    1
    28    30    27    1
    29    27    25    1
    30    29    24    1
    31    21    20    2
    32    21    16    1
    33    20    19    1
    34    16    24    1
    35    16    17   am
    36    24    25    1
    37    25    26    1
    38    19    23    2
    39    19    18    2
    40    18    17    2
    41    17    22    2
