@<TRIPOS>MOLECULE
1oqn_I3P_A_1.pdb
 24 24 0 0 0
SMALL
GASTEIGER

@<TRIPOS>ATOM
      1  C1        44.8690   31.4040   43.9740 C.3   1601  I3P1601     0.1918
      2  C2        43.5460   30.7220   43.5660 C.3   1601  I3P1601     0.2147
      3  C3        43.3170   30.8550   42.0590 C.3   1601  I3P1601     0.2146
      4  C4        44.5050   30.2200   41.2940 C.3   1601  I3P1601     0.1892
      5  C5        45.8300   30.9370   41.7050 C.3   1601  I3P1601     0.1891
      6  C6        46.0710   30.7920   43.2180 C.3   1601  I3P1601     0.2120
      7  O1        45.1780   31.2500   45.4090 O.3   1601  I3P1601    -0.2673
      8  O2        43.5800   29.3490   43.9280 O.3   1601  I3P1601    -0.2176
      9  O3        42.1090   30.2080   41.7110 O.3   1601  I3P1601    -0.2176
     10  O4        44.2240   30.3410   39.8310 O.3   1601  I3P1601    -0.2674
     11  O5        46.9800   30.3330   40.9920 O.3   1601  I3P1601    -0.2674
     12  O6        47.2700   31.4540   43.6090 O.3   1601  I3P1601    -0.2177
     13  P1        44.9550   32.3830   46.4920 P.3   1601  I3P1601     0.5327
     14  O11       45.1130   31.7050   47.8100 O.3   1601  I3P1601    -0.1145
     15  O12       43.5700   32.8890   46.2050 O.3   1601  I3P1601    -0.1145
     16  O13       46.0110   33.3150   46.0790 O.2   1601  I3P1601    -0.2224
     17  P4        43.7010   29.1440   38.8710 P.3   1601  I3P1601     0.5327
     18  O41       44.7210   28.1210   39.2360 O.3   1601  I3P1601    -0.1145
     19  O42       42.3500   28.8430   39.3670 O.3   1601  I3P1601    -0.1145
     20  O43       43.6880   29.6190   37.4660 O.2   1601  I3P1601    -0.2224
     21  P5        48.2070   31.1110   40.3030 P.3   1601  I3P1601     0.5327
     22  O51       48.9880   29.9900   39.7650 O.3   1601  I3P1601    -0.1145
     23  O52       47.5330   31.9940   39.3270 O.2   1601  I3P1601    -0.2224
     24  O53       48.8080   31.7790   41.4360 O.3   1601  I3P1601    -0.1145
@<TRIPOS>BOND
     1    20    17    2
     2    17    18    1
     3    17    19    1
     4    17    10    1
     5    23    21    2
     6    22    21    1
     7    10     4    1
     8    21    11    1
     9    21    24    1
    10    11     5    1
    11     4     5    1
    12     4     3    1
    13     5     6    1
    14     9     3    1
    15     3     2    1
    16     6    12    1
    17     6     1    1
    18     2     8    1
    19     2     1    1
    20     1     7    1
    21     7    13    1
    22    16    13    2
    23    15    13    1
    24    13    14    1
