@<TRIPOS>MOLECULE
1oqo_BMA_A_1.pdb
 11 11 0 0 0
SMALL
GASTEIGER

@<TRIPOS>ATOM
      1  C1        14.6050   46.2270   12.4210 C.3     3  BMA3        0.1777
      2  C2        16.0890   45.9360   12.2000 C.3     3  BMA3        0.2141
      3  C3        16.2710   44.9520   11.0650 C.3     3  BMA3        0.2173
      4  C4        15.4250   43.7270   11.2550 C.3     3  BMA3        0.2142
      5  C5        13.9750   44.1120   11.4670 C.3     3  BMA3        0.1810
      6  C6        13.1000   42.9130   11.7600 C.3     3  BMA3        0.2141
      7  O2        16.6660   45.3880   13.3730 O.3     3  BMA3       -0.2176
      8  O3        17.6280   44.5250   11.0360 O.3     3  BMA3       -0.2175
      9  O4        15.5480   42.9100   10.1090 O.3     3  BMA3       -0.2176
     10  O5        13.8730   45.0040   12.5970 O.3     3  BMA3       -0.3481
     11  O6        11.7240   43.3160   11.6750 O.3     3  BMA3       -0.2176
@<TRIPOS>BOND
     1     9     4    1
     2     8     3    1
     3     3     4    1
     4     3     2    1
     5     4     5    1
     6     5     6    1
     7     5    10    1
     8    11     6    1
     9     2     1    1
    10     2     7    1
    11     1    10    1
