@<TRIPOS>MOLECULE
1oqo_MAN_A_1.pdb
 11 11 0 0 0
SMALL
GASTEIGER

@<TRIPOS>ATOM
      1  C1        10.8630   42.2360   11.5400 C.3     4  MAN4        0.1777
      2  C2         9.4200   42.7240   11.3650 C.3     4  MAN4        0.2141
      3  C3         8.8680   43.3380   12.6460 C.3     4  MAN4        0.2173
      4  C4         9.0740   42.3640   13.8230 C.3     4  MAN4        0.2142
      5  C5        10.5300   41.8970   13.9020 C.3     4  MAN4        0.1810
      6  C6        10.7190   40.7920   14.9110 C.3     4  MAN4        0.2141
      7  O2         8.5870   41.6080   11.0350 O.3     4  MAN4       -0.2176
      8  O3         7.4690   43.5740   12.4540 O.3     4  MAN4       -0.2175
      9  O4         8.7140   42.9830   15.0470 O.3     4  MAN4       -0.2176
     10  O5        10.9590   41.3490   12.6380 O.3     4  MAN4       -0.3481
     11  O6        11.6180   39.8100   14.4100 O.3     4  MAN4       -0.2176
@<TRIPOS>BOND
     1     7     2    1
     2     2     1    1
     3     2     3    1
     4     1    10    1
     5     8     3    1
     6    10     5    1
     7     3     4    1
     8     4     5    1
     9     4     9    1
    10     5     6    1
    11    11     6    1
