@<TRIPOS>MOLECULE
1oqx_BMA_A_1.pdb
 11 11 0 0 0
SMALL
GASTEIGER

@<TRIPOS>ATOM
      1  C1        15.5820   46.5940   12.6060 C.3     3  BMA3        0.1777
      2  C2        17.0510   46.3360   12.4200 C.3     3  BMA3        0.2141
      3  C3        17.2820   45.5020   11.1530 C.3     3  BMA3        0.2173
      4  C4        16.4780   44.2370   11.2520 C.3     3  BMA3        0.2142
      5  C5        15.0090   44.5160   11.5260 C.3     3  BMA3        0.1810
      6  C6        14.3100   43.2050   11.8330 C.3     3  BMA3        0.2141
      7  O2        17.5320   45.6530   13.5680 O.3     3  BMA3       -0.2176
      8  O3        18.6720   45.1360   10.9870 O.3     3  BMA3       -0.2175
      9  O4        16.6100   43.5220   10.0440 O.3     3  BMA3       -0.2176
     10  O5        14.8620   45.3590   12.6900 O.3     3  BMA3       -0.3481
     11  O6        13.2980   43.3920   12.8410 O.3     3  BMA3       -0.2176
@<TRIPOS>BOND
     1     9     4    1
     2     8     3    1
     3     3     4    1
     4     3     2    1
     5     4     5    1
     6     5     6    1
     7     5    10    1
     8     6    11    1
     9     2     1    1
    10     2     7    1
    11     1    10    1
