@<TRIPOS>MOLECULE
1or4_HEM_A_1.pdb
 43 50 0 0 0
SMALL
GASTEIGER

@<TRIPOS>ATOM
      1 FE         28.5620   63.0010   -0.5400 Fe    180  HEM180      0.0000
      2  CHA       29.9200   60.2110   -1.7980 C.2   180  HEM180      0.0000
      3  CHB       30.8250   64.8460   -2.1740 C.2   180  HEM180      0.0000
      4  CHC       27.3040   65.7670    0.8500 C.2   180  HEM180      0.0000
      5  CHD       26.4040   61.1370    1.2240 C.2   180  HEM180      0.0000
      6  NA        30.0620   62.6060   -1.7760 N.ar  180  HEM180      0.0000
      7  C1A       30.5080   61.3820   -2.2110 C.ar  180  HEM180      0.0000
      8  C2A       31.6390   61.4980   -3.1000 C.ar  180  HEM180      0.0000
      9  C3A       31.9580   62.8140   -3.1270 C.ar  180  HEM180      0.0000
     10  C4A       30.9450   63.4890   -2.3490 C.ar  180  HEM180      0.0000
     11  CMA       33.1360   63.4950   -3.8210 C.3   180  HEM180      0.0000
     12  CAA       32.3000   60.3370   -3.8330 C.2   180  HEM180      0.0000
     13  CBA       32.7510   59.1110   -3.0660 C.2   180  HEM180      0.0000
     14  CGA       33.0250   57.8690   -3.8940 C.2   180  HEM180      0.0000
     15  O1A       33.9190   57.9700   -4.7620 O.co2 180  HEM180      0.0000
     16  O2A       32.3360   56.8560   -3.6380 O.co2 180  HEM180      0.0000
     17  NB        29.0560   64.9250   -0.5530 N.2   180  HEM180      0.0000
     18  C1B       29.9850   65.5550   -1.3470 C.2   180  HEM180      0.0000
     19  C2B       29.9410   66.9910   -1.2010 C.2   180  HEM180      0.0000
     20  C3B       28.8820   67.2620   -0.3950 C.2   180  HEM180      0.0000
     21  C4B       28.3610   65.9680    0.0030 C.2   180  HEM180      0.0000
     22  CMB       30.9050   67.9750   -1.8400 C.3   180  HEM180      0.0000
     23  CAB       28.2420   68.4250    0.1070 C.3   180  HEM180      0.0000
     24  CBB       28.7670   69.7560   -0.0750 C.3   180  HEM180      0.0000
     25  NC        27.0670   63.3870    0.7080 N.ar  180  HEM180      0.0000
     26  C1C       26.6870   64.6020    1.2270 C.ar  180  HEM180      0.0000
     27  C2C       25.6210   64.4770    2.1890 C.ar  180  HEM180      0.0000
     28  C3C       25.4780   63.1460    2.4160 C.ar  180  HEM180      0.0000
     29  C4C       26.3250   62.4910    1.4390 C.ar  180  HEM180      0.0000
     30  CMC       24.8420   65.6410    2.8100 C.3   180  HEM180      0.0000
     31  CAC       24.7220   62.3630    3.3360 C.3   180  HEM180      0.0000
     32  CBC       23.5240   61.6730    2.9040 C.3   180  HEM180      0.0000
     33  ND        28.2050   61.0550   -0.3570 N.2   180  HEM180      0.0000
     34  C1D       27.2560   60.4290    0.4150 C.2   180  HEM180      0.0000
     35  C2D       27.2800   58.9930    0.2400 C.2   180  HEM180      0.0000
     36  C3D       28.1230   58.7640   -0.7970 C.2   180  HEM180      0.0000
     37  C4D       28.8000   60.0180   -1.0320 C.2   180  HEM180      0.0000
     38  CMD       26.5040   57.9910    1.0850 C.3   180  HEM180      0.0000
     39  CAD       28.3590   57.4630   -1.5660 C.2   180  HEM180      0.0000
     40  CBD       28.9760   56.2880   -0.8260 C.2   180  HEM180      0.0000
     41  CGD       29.3060   55.0670   -1.6440 C.2   180  HEM180      0.0000
     42  O1D       28.3390   54.3950   -2.0910 O.co2 180  HEM180      0.0000
     43  O2D       30.5280   54.8110   -1.8040 O.co2 180  HEM180      0.0000
@<TRIPOS>BOND
     1    15    14   ar
     2    14    16   ar
     3    14    13    1
     4    12     8    1
     5    12    13    2
     6    11     9    1
     7     9     8   ar
     8     9    10   ar
     9     8     7   ar
    10    10     3    2
    11    10     6   ar
    12     7     2    2
    13     7     6   ar
    14     3    18    1
    15    42    41   ar
    16    22    19    1
    17    43    41   ar
    18     2    37    1
    19     6     1    1
    20    41    40    1
    21    39    40    2
    22    39    36    1
    23    18    19    1
    24    18    17    2
    25    19    20    2
    26    37    36    1
    27    37    33    2
    28    36    35    2
    29    17     1    1
    30    17    21    1
    31     1    33    1
    32     1    25    1
    33    20    21    1
    34    20    23    1
    35    33    34    1
    36    24    23    1
    37    21     4    2
    38    35    34    1
    39    35    38    1
    40    34     5    2
    41    25    26   ar
    42    25    29   ar
    43     4    26    1
    44     5    29    1
    45    26    27   ar
    46    29    28   ar
    47    27    28   ar
    48    27    30    1
    49    28    31    1
    50    32    31    1
