@<TRIPOS>MOLECULE
1or6_HEM_A_1.pdb
 43 50 0 0 0
SMALL
GASTEIGER

@<TRIPOS>ATOM
      1 FE        -28.7140  -62.7030   -0.6190 Fe    180  HEM180      0.0000
      2  CHA      -29.9520  -60.0400   -2.0870 C.2   180  HEM180      0.0000
      3  CHB      -31.0880  -64.6940   -2.1350 C.2   180  HEM180      0.0000
      4  CHC      -27.4040  -65.5850    0.8020 C.2   180  HEM180      0.0000
      5  CHD      -26.7370  -60.8820    1.3290 C.2   180  HEM180      0.0000
      6  NA       -30.1700  -62.4590   -1.8400 N.ar  180  HEM180      0.0000
      7  C1A      -30.5150  -61.2520   -2.4160 C.ar  180  HEM180      0.0000
      8  C2A      -31.6280  -61.3960   -3.3290 C.ar  180  HEM180      0.0000
      9  C3A      -31.9680  -62.7040   -3.3050 C.ar  180  HEM180      0.0000
     10  C4A      -31.0740  -63.3480   -2.3850 C.ar  180  HEM180      0.0000
     11  CMA      -33.0750  -63.3750   -4.1000 C.3   180  HEM180      0.0000
     12  CAA      -32.3760  -60.2600   -4.0400 C.3   180  HEM180      0.0000
     13  CBA      -32.2180  -60.2460   -5.5650 C.3   180  HEM180      0.0000
     14  CGA      -32.9640  -59.0860   -6.2310 C.2   180  HEM180      0.0000
     15  O1A      -33.0440  -59.0640   -7.4800 O.co2 180  HEM180      0.0000
     16  O2A      -33.4670  -58.1920   -5.5110 O.co2 180  HEM180      0.0000
     17  NB       -29.1510  -64.7240   -0.6640 N.2   180  HEM180      0.0000
     18  C1B      -30.1870  -65.3520   -1.3290 C.2   180  HEM180      0.0000
     19  C2B      -30.1970  -66.7820   -1.0740 C.2   180  HEM180      0.0000
     20  C3B      -29.2190  -67.0110   -0.1850 C.2   180  HEM180      0.0000
     21  C4B      -28.5250  -65.7490    0.0090 C.2   180  HEM180      0.0000
     22  CMB      -31.0470  -67.8480   -1.7650 C.3   180  HEM180      0.0000
     23  CAB      -29.0860  -68.1510    0.5770 C.3   180  HEM180      0.0000
     24  CBB      -28.0230  -69.0900    0.3360 C.3   180  HEM180      0.0000
     25  NC       -27.2830  -63.1630    0.6700 N.ar  180  HEM180      0.0000
     26  C1C      -26.8140  -64.3780    1.1140 C.ar  180  HEM180      0.0000
     27  C2C      -25.8030  -64.2120    2.1500 C.ar  180  HEM180      0.0000
     28  C3C      -25.6940  -62.8900    2.3660 C.ar  180  HEM180      0.0000
     29  C4C      -26.5970  -62.2450    1.4370 C.ar  180  HEM180      0.0000
     30  CMC      -25.0230  -65.3070    2.8790 C.3   180  HEM180      0.0000
     31  CAC      -24.9450  -62.2790    3.3580 C.3   180  HEM180      0.0000
     32  CBC      -23.6330  -61.7320    3.0840 C.3   180  HEM180      0.0000
     33  ND       -28.3980  -60.8790   -0.4290 N.2   180  HEM180      0.0000
     34  C1D      -27.5610  -60.2380    0.4530 C.2   180  HEM180      0.0000
     35  C2D      -27.6000  -58.8010    0.2870 C.2   180  HEM180      0.0000
     36  C3D      -28.4910  -58.5490   -0.6960 C.2   180  HEM180      0.0000
     37  C4D      -28.9730  -59.8530   -1.1450 C.2   180  HEM180      0.0000
     38  CMD      -26.7630  -57.7720    1.0340 C.3   180  HEM180      0.0000
     39  CAD      -29.0010  -57.1660   -1.1230 C.3   180  HEM180      0.0000
     40  CBD      -27.9300  -56.2880   -1.7880 C.3   180  HEM180      0.0000
     41  CGD      -28.4220  -54.8720   -2.1270 C.2   180  HEM180      0.0000
     42  O1D      -27.7780  -54.1880   -2.9600 O.co2 180  HEM180      0.0000
     43  O2D      -29.4470  -54.4390   -1.5520 O.co2 180  HEM180      0.0000
@<TRIPOS>BOND
     1    15    14   ar
     2    14    13    1
     3    14    16   ar
     4    13    12    1
     5    11     9    1
     6    12     8    1
     7     8     9   ar
     8     8     7   ar
     9     9    10   ar
    10    42    41   ar
    11     7     2    2
    12     7     6   ar
    13    10     3    2
    14    10     6   ar
    15     3    18    1
    16    41    40    1
    17    41    43   ar
    18     2    37    1
    19     6     1    1
    20    40    39    1
    21    22    19    1
    22    18    19    1
    23    18    17    2
    24    37    36    1
    25    37    33    2
    26    39    36    1
    27    19    20    2
    28    36    35    2
    29    17     1    1
    30    17    21    1
    31     1    33    1
    32     1    25    1
    33    33    34    1
    34    20    21    1
    35    20    23    1
    36    21     4    2
    37    35    34    1
    38    35    38    1
    39    24    23    1
    40    34     5    2
    41    25    26   ar
    42    25    29   ar
    43     4    26    1
    44    26    27   ar
    45     5    29    1
    46    29    28   ar
    47    27    28   ar
    48    27    30    1
    49    28    31    1
    50    32    31    1
