@<TRIPOS>MOLECULE
1ord_PLP_A_1.pdb
 15 15 0 0 0
SMALL
GASTEIGER

@<TRIPOS>ATOM
      1  N1        68.5410   25.6350   35.1630 N.2   731  PLP731     -0.2505
      2  C2        67.6100   25.9030   34.1500 C.2   731  PLP731      0.0675
      3  C2A       68.0180   25.9400   32.6260 C.3   731  PLP731      0.0499
      4  C3        66.2790   26.2080   34.4770 C.3   731  PLP731      0.1913
      5  O3        65.3530   26.5010   33.4620 O.3   731  PLP731     -0.2167
      6  C4        65.8750   26.2290   35.8110 C.3   731  PLP731      0.0581
      7  C4A       64.3740   26.1230   36.1610 C.3   731  PLP731      0.0075
      8  C5        66.8060   26.0060   36.8040 C.2   731  PLP731      0.0073
      9  C6        68.1370   25.6980   36.4780 C.2   731  PLP731      0.0921
     10  C5A       66.3360   26.1810   38.2610 C.3   731  PLP731      0.1776
     11  O4P       65.7900   24.9920   38.7840 O.3   731  PLP731     -0.2656
     12  P         64.3380   24.7420   39.4990 P.3   731  PLP731      0.5329
     13  O1P       64.0290   23.3820   38.9660 O.3   731  PLP731     -0.1145
     14  O2P       63.3220   25.5920   38.8810 O.2   731  PLP731     -0.2224
     15  O3P       64.3250   24.8450   40.9870 O.3   731  PLP731     -0.1145
@<TRIPOS>BOND
     1     3     2    1
     2     5     4    1
     3     2     4    1
     4     2     1    2
     5     4     6    1
     6     1     9    1
     7     6     7    1
     8     6     8    1
     9     9     8    2
    10     8    10    1
    11    10    11    1
    12    11    12    1
    13    14    12    2
    14    13    12    1
    15    12    15    1
