@<TRIPOS>MOLECULE
1ore_AMP_A_1.pdb
 23 25 0 0 0
SMALL
GASTEIGER

@<TRIPOS>ATOM
      1  P          8.4780   29.6340   22.3460 P.3   1001  AMP1001     0.5327
      2  O1P        8.8700   30.7320   21.3920 O.2   1001  AMP1001    -0.2224
      3  O2P        9.0460   28.3020   21.7850 O.3   1001  AMP1001    -0.1145
      4  O3P        6.9780   29.6820   22.6420 O.3   1001  AMP1001    -0.1145
      5  O5'        9.1700   29.8900   23.7730 O.3   1001  AMP1001    -0.2675
      6  C5'       10.5270   29.5090   23.9130 C.3   1001  AMP1001     0.1860
      7  C4'       11.3320   30.7240   24.3820 C.3   1001  AMP1001     0.1823
      8  O4'       10.7270   31.4140   25.4940 O.3   1001  AMP1001    -0.3135
      9  C3'       12.6920   30.2570   24.9050 C.3   1001  AMP1001     0.2184
     10  O3'       13.5940   31.3370   24.6800 O.3   1001  AMP1001    -0.2174
     11  C2'       12.4320   29.9560   26.3800 C.3   1001  AMP1001     0.2570
     12  O2'       13.5870   30.2420   27.1760 O.3   1001  AMP1001    -0.2130
     13  C1'       11.2000   30.8480   26.7170 C.3   1001  AMP1001     0.3186
     14  N9        10.1170   30.0770   27.3630 N.pl3 1001  AMP1001    -0.1439
     15  C8         8.8410   29.8360   26.8910 C.3   1001  AMP1001     0.3377
     16  N7         8.1640   29.0990   27.7990 N.2   1001  AMP1001    -0.2095
     17  C5         8.9670   28.8750   28.8670 C.2   1001  AMP1001     0.2526
     18  C6         8.7590   28.2080   30.0730 C.2   1001  AMP1001     0.4393
     19  N6         7.5750   27.6200   30.3620 N.pl3 1001  AMP1001     0.2180
     20  N1         9.8040   28.1980   31.0030 N.2   1001  AMP1001     0.0021
     21  C2        11.0080   28.7830   30.6950 C.3   1001  AMP1001     0.5254
     22  N3        11.1960   29.4320   29.5100 N.2   1001  AMP1001    -0.0055
     23  C4        10.1800   29.5100   28.6190 C.2   1001  AMP1001     0.3518
@<TRIPOS>BOND
     1     2     1    2
     2     3     1    1
     3     1     4    1
     4     1     5    1
     5     5     6    1
     6     6     7    1
     7     7     9    1
     8     7     8    1
     9    10     9    1
    10     9    11    1
    11     8    13    1
    12    11    13    1
    13    11    12    1
    14    13    14    1
    15    15    14    1
    16    15    16    1
    17    14    23    1
    18    16    17    2
    19    23    17    1
    20    23    22    2
    21    17    18    1
    22    22    21    1
    23    18    19    1
    24    18    20    2
    25    21    20    1
