@<TRIPOS>MOLECULE
1orf_0G6_A_1.pdb
 30 31 0 0 0
SMALL
GASTEIGER

@<TRIPOS>ATOM
      1  N         14.1740   31.2420    0.3000 N.3     1  0G61       -0.1228
      2  CA        13.4190   29.9810    0.6070 C.3     1  0G61        0.1721
      3  C         14.2190   29.1210    1.5610 C.2     1  0G61        0.2437
      4  O         14.9430   29.6540    2.3870 O.2     1  0G61       -0.2733
      5  CB        12.0680   30.2820    1.2800 C.3     1  0G61        0.0547
      6  CG        11.1920   31.2360    0.5200 C.ar    1  0G61       -0.0202
      7  CD1       10.8050   30.9590   -0.8010 C.ar    1  0G61       -0.0042
      8  CD2       10.7420   32.4110    1.1270 C.ar    1  0G61       -0.0042
      9  CE1        9.9890   31.8340   -1.5090 C.ar    1  0G61       -0.0003
     10  CE2        9.9290   33.2990    0.4310 C.ar    1  0G61       -0.0003
     11  CZ         9.5450   33.0050   -0.8910 C.ar    1  0G61       -0.0000
     12  N1        14.0720   27.7980    1.4770 N.am    1  0G61       -0.2718
     13  CA1       14.6350   26.9040    2.4960 C.3     1  0G61        0.1535
     14  C1        16.1740   26.9350    2.5960 C.2     1  0G61        0.2595
     15  O1        16.8820   27.0670    1.5720 O.2     1  0G61       -0.2716
     16  CB1       14.1270   25.5130    2.0710 C.3     1  0G61        0.0310
     17  CG1       13.8360   25.6380    0.6190 C.3     1  0G61        0.0237
     18  CD        13.3560   27.0500    0.4210 C.3     1  0G61        0.0939
     19  N2        16.6840   26.8240    3.8220 N.am    1  0G61       -0.2032
     20  CA2       18.1280   26.7000    4.0360 C.3     1  0G61        0.1257
     21  C2        18.5070   25.2450    4.3880 C.3     1  0G61        0.1718
     22  O2        19.9240   25.0780    4.3100 O.3     1  0G61       -0.2213
     23  CB2       18.6300   27.7260    5.0520 C.3     1  0G61        0.0280
     24  CG2       18.3790   29.1470    4.5380 C.3     1  0G61        0.0488
     25  CD3       18.2580   30.1740    5.6700 C.3     1  0G61        0.2205
     26  NE        18.2580   31.5380    5.1500 N.pl3   1  0G61       -0.0865
     27  CZ1       18.3470   32.6420    5.9310 C.cat   1  0G61        0.5346
     28  NH1       18.2800   33.7970    5.3940 N.pl3   1  0G61        0.1354
     29  NH2       18.5160   32.5510    7.2660 N.pl3   1  0G61        0.1354
     30  C3        17.7660   24.1830    3.5540 C.3     1  0G61        0.0373
@<TRIPOS>BOND
     1     9    11   ar
     2     9     7   ar
     3    11    10   ar
     4     7     6   ar
     5     1     2    1
     6    18    17    1
     7    18    12    1
     8    10     8   ar
     9     6     8   ar
    10     6     5    1
    11     2     5    1
    12     2     3    1
    13    17    16    1
    14    12     3   am
    15    12    13    1
    16     3     4    2
    17    15    14    2
    18    16    13    1
    19    13    14    1
    20    14    19   am
    21    30    21    1
    22    19    20    1
    23    20    21    1
    24    20    23    1
    25    22    21    1
    26    24    23    1
    27    24    25    1
    28    26    25    1
    29    26    27    2
    30    28    27    1
    31    27    29    1
