@<TRIPOS>MOLECULE
1ork_ATC_A_1.pdb
 37 40 0 0 0
SMALL
GASTEIGER

@<TRIPOS>ATOM
      1  C1        20.1080   34.6170   34.3910 C.2   222  ATC222      0.1960
      2  O1        19.5650   35.0790   33.3520 O.2   222  ATC222     -0.2924
      3  C2        19.5800   33.5690   35.1430 C.3   222  ATC222      0.1715
      4  C21       18.3890   32.9210   34.7890 C.2   222  ATC222      0.2700
      5  O21       17.9770   31.9310   35.4430 O.2   222  ATC222     -0.2711
      6  N21       17.6220   33.2860   33.7120 N.am  222  ATC222     -0.0874
      7  C3        20.3030   33.2330   36.2800 C.3   222  ATC222      0.1823
      8  O3        20.1970   31.9680   36.8680 O.3   222  ATC222     -0.2207
      9  C4        21.1460   34.2540   37.0370 C.3   222  ATC222      0.0922
     10  N4        22.2030   33.4360   37.8140 N.3   222  ATC222     -0.2692
     11  C42       23.0250   34.3640   38.7750 C.3   222  ATC222      0.0897
     12  C43       23.1010   32.5310   36.9330 C.3   222  ATC222      0.0897
     13  C41       21.7550   35.3480   36.1090 C.3   222  ATC222      0.0596
     14  C5        21.0970   36.6880   36.3310 C.3   222  ATC222      0.0096
     15  C51       21.7490   37.8560   35.6340 C.3   222  ATC222      0.0329
     16  C6        20.9410   39.1710   35.6270 C.3   222  ATC222      0.0311
     17  C61       21.6780   40.2670   34.8170 C.ar  222  ATC222     -0.0156
     18  C7        21.5120   41.5900   35.2210 C.ar  222  ATC222     -0.0026
     19  C8        22.1040   42.6150   34.4800 C.ar  222  ATC222      0.0195
     20  C9        22.8610   42.3360   33.3310 C.ar  222  ATC222      0.1123
     21  C10       23.0370   40.9940   32.9340 C.ar  222  ATC222      0.2135
     22  O10       23.8360   40.7110   31.7950 O.3   222  ATC222     -0.2851
     23  C1A       22.4490   39.9410   33.6780 C.ar  222  ATC222      0.0750
     24  C11       22.5210   38.5980   33.2820 C.2   222  ATC222      0.1973
     25  O11       23.0760   38.3460   32.2170 O.2   222  ATC222     -0.2867
     26  C1B       22.1020   37.5260   34.1290 C.2   222  ATC222      0.0543
     27  C12       22.0630   36.1760   33.7350 C.2   222  ATC222      0.2063
     28  O12       22.5610   35.7380   32.4420 O.2   222  ATC222     -0.2885
     29  C1C       21.5830   35.0130   34.6220 C.3   222  ATC222      0.2327
     30  O1C       22.4380   33.9040   34.3300 O.3   222  ATC222     -0.2101
     31  N9        23.3350   43.3880   32.5860 N.am  222  ATC222     -0.1748
     32  C91       24.5980   43.8150   32.6060 C.2   222  ATC222      0.2620
     33  O91       25.3500   43.5610   33.5560 O.2   222  ATC222     -0.2715
     34  C92       25.2290   44.6000   31.4630 C.3   222  ATC222      0.1606
     35  N92       26.6690   43.9970   31.1130 N.3   222  ATC222     -0.2625
     36  C93       27.8470   44.3910   32.1230 C.3   222  ATC222      0.0900
     37  C94       26.5830   42.4470   30.7370 C.3   222  ATC222      0.0900
@<TRIPOS>BOND
     1    37    35    1
     2    35    34    1
     3    35    36    1
     4    34    32    1
     5    22    21    1
     6    25    24    2
     7    28    27    1
     8    31    32   am
     9    31    20    1
    10    32    33    2
    11    21    20   ar
    12    21    23   ar
    13    24    23    1
    14    24    26    1
    15    20    19   ar
    16     2     1    2
    17    23    17   ar
    18     6     4   am
    19    27    26    2
    20    27    29    1
    21    26    15    1
    22    30    29    1
    23     1    29    1
    24     1     3    1
    25    19    18   ar
    26    29    13    1
    27     4     3    1
    28     4     5    2
    29    17    18   ar
    30    17    16    1
    31     3     7    1
    32    16    15    1
    33    15    14    1
    34    13    14    1
    35    13     9    1
    36     7     8    1
    37     7     9    1
    38    12    10    1
    39     9    10    1
    40    10    11    1
