@<TRIPOS>MOLECULE
1orr_NAD_A_1.pdb
 44 48 0 0 0
SMALL
GASTEIGER

@<TRIPOS>ATOM
      1  PA        11.8170   -5.0400   49.7330 P.3   1200  NAD1200     0.2189
      2  O1A       10.6990   -4.4810   48.9460 O.2   1200  NAD1200    -0.5170
      3  O2A       11.8940   -4.5460   51.1360 O.3   1200  NAD1200    -0.4371
      4  O5B       13.2370   -4.7830   49.0660 O.3   1200  NAD1200    -0.3112
      5  C5B       13.3470   -4.4890   47.6640 C.3   1200  NAD1200     0.1813
      6  C4B       14.0820   -3.1560   47.5080 C.3   1200  NAD1200     0.1821
      7  O4B       14.3040   -2.9380   46.0920 O.3   1200  NAD1200    -0.3135
      8  C3B       13.3600   -1.9330   48.0250 C.3   1200  NAD1200     0.2184
      9  O3B       14.2810   -1.1780   48.8270 O.3   1200  NAD1200    -0.2174
     10  C2B       12.9320   -1.2320   46.7220 C.3   1200  NAD1200     0.2570
     11  O2B       12.8800    0.2120   46.8490 O.3   1200  NAD1200    -0.2130
     12  C1B       14.0230   -1.6450   45.7490 C.3   1200  NAD1200     0.3186
     13  N9A       13.5160   -1.6960   44.3980 N.pl3 1200  NAD1200    -0.1439
     14  C8A       12.2860   -2.1230   43.9450 C.3   1200  NAD1200     0.3377
     15  N7A       12.1190   -1.8790   42.6140 N.2   1200  NAD1200    -0.2095
     16  C5A       13.3250   -1.3060   42.2180 C.2   1200  NAD1200     0.2526
     17  C6A       13.7770   -0.8420   40.9760 C.2   1200  NAD1200     0.4393
     18  N6A       13.0390   -0.8480   39.8690 N.pl3 1200  NAD1200     0.2180
     19  N1A       15.0400   -0.3600   40.9340 N.2   1200  NAD1200     0.0021
     20  C2A       15.7900   -0.3180   42.0710 C.3   1200  NAD1200     0.5254
     21  N3A       15.4550   -0.7120   43.2840 N.2   1200  NAD1200    -0.0055
     22  C4A       14.2050   -1.2230   43.2960 C.2   1200  NAD1200     0.3518
     23  O3        11.7720   -6.6080   49.6470 O.3   1200  NAD1200    -0.2703
     24  PN        12.5440   -7.7400   50.5280 P.3   1200  NAD1200     0.2189
     25  O1N       11.5690   -8.3690   51.4440 O.3   1200  NAD1200    -0.4371
     26  O2N       13.7470   -7.1550   51.1650 O.2   1200  NAD1200    -0.5170
     27  O5D       12.9500   -8.7070   49.3220 O.3   1200  NAD1200    -0.3112
     28  C5D       14.2510   -8.5700   48.7130 C.3   1200  NAD1200     0.1813
     29  C4D       14.3520   -9.6230   47.6130 C.3   1200  NAD1200     0.1799
     30  O4D       14.0890  -10.9450   48.2210 O.3   1200  NAD1200    -0.3327
     31  C3D       13.3520   -9.4530   46.4530 C.3   1200  NAD1200     0.2158
     32  O3D       13.9500   -9.8650   45.2300 O.3   1200  NAD1200    -0.2175
     33  C2D       12.2370  -10.4270   46.8960 C.3   1200  NAD1200     0.2309
     34  O2D       11.5600  -10.9540   45.7510 O.3   1200  NAD1200    -0.2158
     35  C1D       13.0100  -11.5520   47.5430 C.3   1200  NAD1200     0.2261
     36  N1N       12.1480  -12.3510   48.4090 N.pl3 1200  NAD1200    -0.2831
     37  C2N       11.7660  -11.9350   49.6710 C.2   1200  NAD1200     0.0633
     38  C3N       10.9580  -12.7510   50.5800 C.2   1200  NAD1200     0.0490
     39  C7N       10.7400  -12.2450   51.9230 C.2   1200  NAD1200     0.2814
     40  O7N       10.0510  -12.9570   52.6830 O.2   1200  NAD1200    -0.2670
     41  N7N       11.2490  -11.0740   52.3180 N.am  1200  NAD1200    -0.0839
     42  C4N       10.3780  -14.0160   50.0700 C.3   1200  NAD1200     0.0341
     43  C5N       11.0840  -14.4360   48.8290 C.3   1200  NAD1200     0.0264
     44  C6N       11.6760  -13.6000   47.9860 C.3   1200  NAD1200     0.0934
@<TRIPOS>BOND
     1    18    17    1
     2    19    17    2
     3    19    20    1
     4    17    16    1
     5    20    21    1
     6    16    15    2
     7    16    22    1
     8    15    14    1
     9    21    22    2
    10    22    13    1
    11    14    13    1
    12    13    12    1
    13    32    31    1
    14    12     7    1
    15    12    10    1
    16    34    33    1
    17     7     6    1
    18    31    33    1
    19    31    29    1
    20    10    11    1
    21    10     8    1
    22    33    35    1
    23     6     5    1
    24     6     8    1
    25    35    30    1
    26    35    36    1
    27    29    30    1
    28    29    28    1
    29     5     4    1
    30    44    36    1
    31    44    43    1
    32     8     9    1
    33    36    37    1
    34    28    27    1
    35    43    42    1
    36     2     1    2
    37     4     1    1
    38    27    24    1
    39    23     1    1
    40    23    24    1
    41    37    38    2
    42     1     3    1
    43    42    38    1
    44    24    26    2
    45    24    25    1
    46    38    39    1
    47    39    41   am
    48    39    40    2
