@<TRIPOS>MOLECULE
1orr_CDP_A_1.pdb
 25 26 0 0 0
SMALL
GASTEIGER

@<TRIPOS>ATOM
      1  O3B        5.8140  -15.3690   49.6700 O.2   1201  CDP1201    -0.2221
      2  PB         5.3520  -16.0830   50.8940 P.3   1201  CDP1201     0.5373
      3  O1B        6.3970  -15.8450   52.0990 O.3   1201  CDP1201    -0.1143
      4  O2B        5.3730  -17.5550   50.5820 O.3   1201  CDP1201    -0.1143
      5  O3A        3.9950  -15.5070   51.4980 O.3   1201  CDP1201    -0.2261
      6  PA         2.4560  -15.3110   50.8700 P.3   1201  CDP1201     0.2231
      7  O1A        2.1200  -16.4870   50.0200 O.2   1201  CDP1201    -0.5169
      8  O2A        2.3230  -14.0610   50.0800 O.3   1201  CDP1201    -0.4370
      9  O5'        1.5970  -15.2060   52.2310 O.3   1201  CDP1201    -0.3111
     10  C5'        1.4150  -16.3770   53.0290 C.3   1201  CDP1201     0.1813
     11  C4'       -0.0700  -16.5850   53.1010 C.3   1201  CDP1201     0.1799
     12  O4'       -0.6490  -15.4960   53.8660 O.3   1201  CDP1201    -0.3320
     13  C3'       -0.7900  -16.6380   51.7530 C.3   1201  CDP1201     0.2158
     14  O3'       -1.8020  -17.6400   51.7030 O.3   1201  CDP1201    -0.2175
     15  C2'       -1.4440  -15.2620   51.6820 C.3   1201  CDP1201     0.2319
     16  O2'       -2.5860  -15.3180   50.7690 O.3   1201  CDP1201    -0.2157
     17  C1'       -1.7820  -15.0290   53.1640 C.3   1201  CDP1201     0.2400
     18  N1        -2.0790  -13.6020   53.4650 N.am  1201  CDP1201    -0.1778
     19  C2        -3.3420  -13.2370   53.8720 C.1   1201  CDP1201     0.2756
     20  O2        -4.2570  -14.0290   54.0290 O.2   1201  CDP1201    -0.1925
     21  N3        -3.5680  -11.8990   54.0950 N.2   1201  CDP1201    -0.3024
     22  C4        -2.6010  -10.9170   53.9140 C.2   1201  CDP1201     0.2346
     23  N4        -2.9160   -9.5540   54.1700 N.pl3 1201  CDP1201    -0.0921
     24  C5        -1.3110  -11.3550   53.4950 C.2   1201  CDP1201     0.0687
     25  C6        -1.0930  -12.6430   53.3010 C.2   1201  CDP1201     0.0836
@<TRIPOS>BOND
     1     1     2    2
     2     7     6    2
     3     8     6    1
     4     4     2    1
     5    16    15    1
     6     6     5    1
     7     6     9    1
     8     2     5    1
     9     2     3    1
    10    15    13    1
    11    15    17    1
    12    14    13    1
    13    13    11    1
    14     9    10    1
    15    10    11    1
    16    11    12    1
    17    17    18    1
    18    17    12    1
    19    25    18    1
    20    25    24    2
    21    18    19   am
    22    24    22    1
    23    19    20    2
    24    19    21    2
    25    22    21    2
    26    22    23    1
