@<TRIPOS>MOLECULE
1orw_PHI_A_1.pdb
 12 12 0 0 0
SMALL
GASTEIGER

@<TRIPOS>ATOM
      1  N         -6.4080   19.1790    7.2570 N.3   801  PHI801     -0.1241
      2  CA        -6.4960   19.8850    5.9740 C.3   801  PHI801      0.1605
      3  CB        -5.4630   21.0010    5.8590 C.3   801  PHI801      0.0534
      4  CG        -5.6430   22.1880    6.8170 C.ar  801  PHI801     -0.0203
      5  CD1       -6.7300   23.0670    6.6950 C.ar  801  PHI801     -0.0038
      6  CD2       -4.7340   22.4180    7.8550 C.ar  801  PHI801     -0.0038
      7  CE1       -6.9010   24.1400    7.5890 C.ar  801  PHI801      0.0055
      8  CE2       -4.8980   23.4800    8.7430 C.ar  801  PHI801      0.0055
      9  CZ        -5.9700   24.3310    8.6120 C.ar  801  PHI801      0.0300
     10  I         -6.1970   25.9180    9.9510 I     801  PHI801     -0.0425
     11  C         -6.3330   18.9240    4.7900 C.2   801  PHI801      0.2264
     12  O         -5.2530   18.7710    4.2100 O.2   801  PHI801     -0.2867
@<TRIPOS>BOND
     1    12    11    2
     2    11     2    1
     3     3     2    1
     4     3     4    1
     5     2     1    1
     6     5     4   ar
     7     5     7   ar
     8     4     6   ar
     9     7     9   ar
    10     6     8   ar
    11     9     8   ar
    12     9    10    1
