@<TRIPOS>MOLECULE
1os0_0PQ_A_1.pdb
 35 37 0 0 0
SMALL
GASTEIGER

@<TRIPOS>ATOM
      1  N         34.1120   41.4110   -8.4770 N.3   605  0PQ605     -0.1220
      2  C20       34.4460   40.9520   -7.1100 C.3   605  0PQ605      0.1754
      3  P         35.2700   42.1920   -6.2520 P.3   605  0PQ605      0.2711
      4  O1P       36.5490   42.7120   -6.8370 O.2   605  0PQ605     -0.2854
      5  O2P       34.3890   43.3580   -6.0400 O.3   605  0PQ605     -0.1664
      6  CB        34.9630   39.6030   -7.3900 C.3   605  0PQ605      0.0554
      7  CG        33.9010   38.6470   -7.9230 C.ar  605  0PQ605     -0.0202
      8  CD1       32.8690   38.2590   -7.0560 C.ar  605  0PQ605     -0.0042
      9  CD2       33.9710   38.1450   -9.2050 C.ar  605  0PQ605     -0.0042
     10  CE1       31.9280   37.3710   -7.5860 C.ar  605  0PQ605     -0.0003
     11  CE2       33.0310   37.3340   -9.6820 C.ar  605  0PQ605     -0.0003
     12  CZ        31.9820   36.9090   -8.8930 C.ar  605  0PQ605     -0.0000
     13  CM        35.5860   41.3130   -4.7610 C.3   605  0PQ605      0.1003
     14  CA1       36.6000   41.9580   -3.7960 C.3   605  0PQ605      0.0923
     15  CB1       35.9200   42.2140   -2.4400 C.3   605  0PQ605      0.0360
     16  CG1       36.7600   42.9290   -1.4050 C.ar  605  0PQ605     -0.0217
     17 CD11       37.0960   44.2660   -1.5520 C.ar  605  0PQ605     -0.0043
     18 CD21       37.1800   42.2470   -0.2750 C.ar  605  0PQ605     -0.0043
     19 CE11       37.8690   44.9200   -0.6130 C.ar  605  0PQ605     -0.0003
     20 CE21       37.9770   42.8840    0.6550 C.ar  605  0PQ605     -0.0003
     21  CZ1       38.3040   44.2210    0.4970 C.ar  605  0PQ605     -0.0000
     22  C21       37.9170   41.1920   -3.6180 C.2   605  0PQ605      0.2422
     23  O7        39.0200   41.7290   -3.6600 O.2   605  0PQ605     -0.2733
     24  N1        37.7720   39.9080   -3.3910 N.am  605  0PQ605     -0.1952
     25  CA        38.7000   38.8110   -3.2120 C.3   605  0PQ605      0.2020
     26  C         38.7800   38.0540   -4.5400 C.2   605  0PQ605      0.3845
     27  O         39.8870   37.7690   -4.9900 O.co2 605  0PQ605     -0.2437
     28  CB2       38.1700   37.9510   -2.0990 C.3   605  0PQ605      0.0596
     29  CG2       38.7970   36.6970   -1.5860 C.ar  605  0PQ605     -0.0199
     30 CD12       40.0650   36.6930   -1.0410 C.ar  605  0PQ605     -0.0042
     31 CD22       38.0990   35.4960   -1.6280 C.ar  605  0PQ605     -0.0042
     32 CE12       40.6570   35.5480   -0.5380 C.ar  605  0PQ605     -0.0003
     33 CE22       38.6740   34.3400   -1.1360 C.ar  605  0PQ605     -0.0003
     34  CZ2       39.9470   34.3610   -0.5880 C.ar  605  0PQ605     -0.0000
     35  OXT       37.7130   37.7660   -5.1130 O.co2 605  0PQ605     -0.2437
@<TRIPOS>BOND
     1    11     9   ar
     2    11    12   ar
     3     9     7   ar
     4    12    10   ar
     5     1     2    1
     6     7     6    1
     7     7     8   ar
     8    10     8   ar
     9     6     2    1
    10     2     3    1
    11     4     3    2
    12     3     5    1
    13     3    13    1
    14    35    26   ar
    15    27    26   ar
    16    13    14    1
    17    26    25    1
    18    14    22    1
    19    14    15    1
    20    23    22    2
    21    22    24   am
    22    24    25    1
    23    25    28    1
    24    15    16    1
    25    28    29    1
    26    31    29   ar
    27    31    33   ar
    28    29    30   ar
    29    17    16   ar
    30    17    19   ar
    31    16    18   ar
    32    33    34   ar
    33    30    32   ar
    34    19    21   ar
    35    34    32   ar
    36    18    20   ar
    37    21    20   ar
