@<TRIPOS>MOLECULE
1os1_ATP_A_1.pdb
 31 33 0 0 0
SMALL
GASTEIGER

@<TRIPOS>ATOM
      1  PG        31.4310    4.7960   10.7730 P.3   541  ATP541      0.5373
      2  O1G       30.7100    3.6550   10.1830 O.3   541  ATP541     -0.1143
      3  O2G       32.3520    5.4970    9.8710 O.2   541  ATP541     -0.2221
      4  O3G       32.0250    4.5000   12.0960 O.3   541  ATP541     -0.1143
      5  PB        29.2770    6.2050   12.2420 P.3   541  ATP541      0.2277
      6  O1B       27.9020    5.8840   11.8190 O.2   541  ATP541     -0.5168
      7  O2B       29.7270    5.6470   13.5360 O.3   541  ATP541     -0.4368
      8  O3B       30.3300    6.0410   10.9910 O.3   541  ATP541     -0.2258
      9  PA        29.6730    8.5600   13.7120 P.3   541  ATP541      0.2189
     10  O1A       28.5740    8.3360   14.6600 O.3   541  ATP541     -0.4371
     11  O2A       31.0710    8.3160   14.1090 O.2   541  ATP541     -0.5170
     12  O3A       29.3770    7.7940   12.2910 O.3   541  ATP541     -0.2700
     13  O5'       29.6310   10.0170   13.1210 O.3   541  ATP541     -0.3112
     14  C5'       28.5350   10.8860   12.8750 C.3   541  ATP541      0.1813
     15  C4'       29.1420   12.2530   12.6590 C.3   541  ATP541      0.1821
     16  O4'       28.1100   13.2050   12.3790 O.3   541  ATP541     -0.3135
     17  C3'       29.9060   12.7380   13.9260 C.3   541  ATP541      0.2184
     18  O3'       31.0960   13.4460   13.4970 O.3   541  ATP541     -0.2174
     19  C2'       28.8700   13.6910   14.5570 C.3   541  ATP541      0.2570
     20  O2'       29.4700   14.7380   15.3360 O.3   541  ATP541     -0.2130
     21  C1'       28.1360   14.2580   13.3540 C.3   541  ATP541      0.3186
     22  N9        26.7190   14.6510   13.5910 N.pl3 541  ATP541     -0.1439
     23  C8        26.1960   15.9140   13.4280 C.3   541  ATP541      0.3377
     24  N7        24.9240   16.0010   13.6980 N.2   541  ATP541     -0.2095
     25  C5        24.5650   14.7090   14.0760 C.2   541  ATP541      0.2526
     26  C6        23.3360   14.1390   14.4850 C.2   541  ATP541      0.4393
     27  N6        22.2150   14.8460   14.5740 N.pl3 541  ATP541      0.2180
     28  N1        23.3230   12.8220   14.7880 N.2   541  ATP541      0.0021
     29  C2        24.4530   12.1210   14.6880 C.3   541  ATP541      0.5254
     30  N3        25.6680   12.5340   14.3210 N.2   541  ATP541     -0.0055
     31  C4        25.6540   13.8680   14.0230 C.2   541  ATP541      0.3518
@<TRIPOS>BOND
     1     3     1    2
     2     2     1    1
     3     1     8    1
     4     1     4    1
     5     8     5    1
     6     6     5    2
     7     5    12    1
     8     5     7    1
     9    12     9    1
    10    16    15    1
    11    16    21    1
    12    15    14    1
    13    15    17    1
    14    14    13    1
    15    13     9    1
    16    21    22    1
    17    21    19    1
    18    23    22    1
    19    23    24    1
    20    18    17    1
    21    22    31    1
    22    24    25    2
    23     9    11    2
    24     9    10    1
    25    17    19    1
    26    31    25    1
    27    31    30    2
    28    25    26    1
    29    30    29    1
    30    26    27    1
    31    26    28    2
    32    19    20    1
    33    29    28    1
