@<TRIPOS>MOLECULE
1os6_DXC_A_1.pdb
 28 31 0 0 0
SMALL
GASTEIGER

@<TRIPOS>ATOM
      1  C1        26.1690   32.1940   22.3550 C.3    75  DXC75       0.1520
      2  C2        26.0170   31.6180   20.9090 C.3    75  DXC75       0.0329
      3  C3        27.2920   30.7910   20.5700 C.3    75  DXC75       0.0025
      4  C4        28.5880   31.6890   20.5910 C.3    75  DXC75       0.0002
      5  C5        28.6730   32.3290   22.0370 C.3    75  DXC75       0.0026
      6  C6        27.4180   33.1440   22.3880 C.3    75  DXC75       0.0329
      7  C7        27.1420   30.1210   19.1390 C.3    75  DXC75       0.0001
      8  C8        27.1070   31.2220   18.0530 C.3    75  DXC75       0.0000
      9  C9        28.4330   32.0920   18.0890 C.3    75  DXC75       0.0002
     10  C10       28.5780   32.7380   19.3840 C.3    75  DXC75       0.0025
     11  C11       28.3410   33.2130   17.0380 C.3    75  DXC75       0.0024
     12  C12       29.6480   34.0740   16.9580 C.3    75  DXC75       0.0282
     13  C13       29.8560   34.7510   18.3010 C.3    75  DXC75       0.1519
     14  C14       29.8820   33.6500   19.4160 C.3    75  DXC75       0.0329
     15  C15       28.1040   32.7750   15.5240 C.3    75  DXC75       0.0001
     16  C16       28.6730   33.9430   14.7080 C.3    75  DXC75       0.0001
     17  C17       29.2310   34.9530   15.7490 C.3    75  DXC75       0.0024
     18  C18       29.9100   30.8060   20.4780 C.3    75  DXC75       0.0000
     19  C19       30.4280   35.7710   15.0050 C.3    75  DXC75       0.0006
     20  O1        28.7910   35.7140   18.5110 O.3    75  DXC75      -0.2232
     21  O2        24.9990   32.9330   22.6270 O.3    75  DXC75      -0.2232
     22  C20       30.9270   33.1780   16.6640 C.3    75  DXC75       0.0025
     23  C21       29.8650   36.4620   13.7100 C.3    75  DXC75       0.0118
     24  C22       28.7000   37.4260   13.9130 C.3    75  DXC75       0.1141
     25  C23       29.1950   38.8420   14.1290 C.2    75  DXC75       0.3649
     26  O3        29.9810   39.3840   13.4080 O.co2  75  DXC75      -0.2457
     27  O4        28.8100   39.3530   15.2970 O.co2  75  DXC75      -0.2457
     28  C24       31.0390   36.8130   15.9600 C.3    75  DXC75       0.0000
@<TRIPOS>BOND
     1    26    25   ar
     2    23    24    1
     3    23    19    1
     4    24    25    1
     5    25    27   ar
     6    16    15    1
     7    16    17    1
     8    19    17    1
     9    19    28    1
    10    15    11    1
    11    17    12    1
    12    22    12    1
    13    12    11    1
    14    12    13    1
    15    11     9    1
    16     8     9    1
    17     8     7    1
    18     9    10    1
    19    13    20    1
    20    13    14    1
    21     7     3    1
    22    10    14    1
    23    10     4    1
    24    18     4    1
    25     3     4    1
    26     3     2    1
    27     4     5    1
    28     2     1    1
    29     5     6    1
    30     1     6    1
    31     1    21    1
