@<TRIPOS>MOLECULE
1os6_HEM_A_1.pdb
 43 50 0 0 0
SMALL
GASTEIGER

@<TRIPOS>ATOM
      1  CHA       35.1600   26.2050   16.7710 C.2    72  HEM72       0.0000
      2  CHB       38.6040   26.9370   13.5250 C.2    72  HEM72       0.0000
      3  CHC       35.4510   29.1940   10.7510 C.2    72  HEM72       0.0000
      4  CHD       32.4050   29.4920   14.4910 C.2    72  HEM72       0.0000
      5  C1A       36.3810   26.1190   16.1000 C.ar   72  HEM72       0.0000
      6  C2A       37.4960   25.2730   16.4640 C.ar   72  HEM72       0.0000
      7  C3A       38.4980   25.5680   15.5840 C.ar   72  HEM72       0.0000
      8  C4A       38.0000   26.6130   14.7360 C.ar   72  HEM72       0.0000
      9  CMA       39.9460   25.0540   15.5210 C.3    72  HEM72       0.0000
     10  CAA       37.3320   24.1130   17.4260 C.3    72  HEM72       0.0000
     11  CBA       36.6760   22.9910   16.5830 C.3    72  HEM72       0.0000
     12  CGA       36.9260   21.6520   17.2340 C.2    72  HEM72       0.0000
     13  O1A       37.8200   21.5860   18.1230 O.co2  72  HEM72       0.0000
     14  O2A       36.2330   20.6850   16.8480 O.co2  72  HEM72       0.0000
     15  C1B       38.0160   27.6250   12.5120 C.2    72  HEM72       0.0000
     16  C2B       38.7160   27.8620   11.2420 C.2    72  HEM72       0.0000
     17  C3B       37.8400   28.4760   10.4430 C.2    72  HEM72       0.0000
     18  C4B       36.5410   28.4520   11.1190 C.2    72  HEM72       0.0000
     19  CMB       40.2470   27.7120   11.0600 C.3    72  HEM72       0.0000
     20  CAB       37.9690   29.0150    9.0290 C.3    72  HEM72       0.0000
     21  CBB       38.4010   28.0590    7.9340 C.3    72  HEM72       0.0000
     22  C1C       34.2710   29.4310   11.5000 C.ar   72  HEM72       0.0000
     23  C2C       33.1790   30.2670   11.1040 C.ar   72  HEM72       0.0000
     24  C3C       32.4010   30.4670   12.1870 C.ar   72  HEM72       0.0000
     25  C4C       32.9330   29.5670   13.1970 C.ar   72  HEM72       0.0000
     26  CMC       33.0690   30.9220    9.7310 C.3    72  HEM72       0.0000
     27  CAC       31.1770   31.2900   12.3730 C.3    72  HEM72       0.0000
     28  CBC       30.0660   31.0350   11.3270 C.3    72  HEM72       0.0000
     29  C1D       32.9190   28.6520   15.4820 C.2    72  HEM72       0.0000
     30  C2D       32.1360   28.1860   16.6140 C.2    72  HEM72       0.0000
     31  C3D       32.9070   27.2880   17.2470 C.2    72  HEM72       0.0000
     32  C4D       34.1130   27.0510   16.4520 C.2    72  HEM72       0.0000
     33  CMD       30.8640   28.7830   17.1980 C.3    72  HEM72       0.0000
     34  CAD       32.5700   26.5160   18.5350 C.3    72  HEM72       0.0000
     35  CBD       31.3250   25.6150   18.3900 C.3    72  HEM72       0.0000
     36  CGD       31.5140   24.4050   17.4860 C.2    72  HEM72       0.0000
     37  O1D       32.6090   23.8300   17.4710 O.co2  72  HEM72       0.0000
     38  O2D       30.4800   24.0670   16.8670 O.co2  72  HEM72       0.0000
     39  NA        36.6670   26.7980   14.9270 N.ar   72  HEM72       0.0000
     40  NB        36.6870   27.9850   12.4110 N.2    72  HEM72       0.0000
     41  NC        34.1010   28.9770   12.8020 N.ar   72  HEM72       0.0000
     42  ND        34.0900   27.9050   15.3770 N.2    72  HEM72       0.0000
     43 FE         35.3790   27.9370   13.8590 Fe     72  HEM72       0.0000
@<TRIPOS>BOND
     1    21    20    1
     2    20    17    1
     3    26    23    1
     4    17    18    1
     5    17    16    2
     6     3    18    2
     7     3    22    1
     8    19    16    1
     9    23    22   ar
    10    23    24   ar
    11    18    40    1
    12    16    15    1
    13    28    27    1
    14    22    41   ar
    15    24    27    1
    16    24    25   ar
    17    40    15    2
    18    40    43    1
    19    15     2    1
    20    41    25   ar
    21    41    43    1
    22    25     4    1
    23     2     8    2
    24    43    39    1
    25    43    42    1
    26     4    29    2
    27     8    39   ar
    28     8     7   ar
    29    39     5   ar
    30    42    29    1
    31    42    32    2
    32    29    30    1
    33     9     7    1
    34     7     6   ar
    35     5     6   ar
    36     5     1    2
    37    32     1    1
    38    32    31    1
    39     6    10    1
    40    11    12    1
    41    11    10    1
    42    30    33    1
    43    30    31    2
    44    14    12   ar
    45    38    36   ar
    46    12    13   ar
    47    31    34    1
    48    37    36   ar
    49    36    35    1
    50    35    34    1
