@<TRIPOS>MOLECULE
1os7_AKG_A_1.pdb
 10 9 0 0 0
SMALL
GASTEIGER

@<TRIPOS>ATOM
      1  C1        32.0830   79.4780   25.1200 C.2   501  AKG501      0.4219
      2  O1        31.2710   79.9870   24.3840 O.co2 501  AKG501     -0.2373
      3  O2        33.0170   80.1060   25.5880 O.co2 501  AKG501     -0.2373
      4  C2        31.9240   77.9580   25.4840 C.2   501  AKG501      0.2526
      5  O5        30.9760   77.3040   25.0150 O.2   501  AKG501     -0.2843
      6  C3        32.8930   77.3060   26.3810 C.3   501  AKG501      0.0881
      7  C4        33.9310   76.5500   25.5550 C.3   501  AKG501      0.1224
      8  C5        34.9340   75.8770   26.4560 C.2   501  AKG501      0.3653
      9  O3        34.8650   75.9710   27.6710 O.co2 501  AKG501     -0.2456
     10  O4        35.8280   75.2230   25.9640 O.co2 501  AKG501     -0.2456
@<TRIPOS>BOND
     1     2     1   ar
     2     5     4    2
     3     1     4    1
     4     1     3   ar
     5     4     6    1
     6     7     6    1
     7     7     8    1
     8    10     8   ar
     9     8     9   ar
