@<TRIPOS>MOLECULE
1ose_GLC_A_1.pdb
 11 11 0 0 0
SMALL
GASTEIGER

@<TRIPOS>ATOM
      1  C1        32.3950   36.5670    1.0890 C.3   991  GLC991      0.1777
      2  C2        32.6090   35.5210   -0.0210 C.3   991  GLC991      0.2141
      3  C3        32.9820   36.1770   -1.3520 C.3   991  GLC991      0.2173
      4  C4        31.9260   37.2220   -1.6900 C.3   991  GLC991      0.2142
      5  C5        31.9590   38.2630   -0.5860 C.3   991  GLC991      0.1810
      6  C6        31.0310   39.4350   -0.8410 C.3   991  GLC991      0.2141
      7  O2        33.6310   34.6080    0.3570 O.3   991  GLC991     -0.2176
      8  O3        33.0510   35.1880   -2.3690 O.3   991  GLC991     -0.2175
      9  O4        32.1820   37.8310   -2.9740 O.3   991  GLC991     -0.2176
     10  O5        31.5620   37.6460    0.6580 O.3   991  GLC991     -0.3481
     11  O6        29.6740   39.0250   -0.8330 O.3   991  GLC991     -0.2176
@<TRIPOS>BOND
     1     9     4    1
     2     8     3    1
     3     4     3    1
     4     4     5    1
     5     3     2    1
     6     6    11    1
     7     6     5    1
     8     5    10    1
     9     2     7    1
    10     2     1    1
    11    10     1    1
