@<TRIPOS>MOLECULE
1ose_AC1_A_1.pdb
 21 22 0 0 0
SMALL
GASTEIGER

@<TRIPOS>ATOM
      1  C1        31.0450   37.9610   -3.7860 C.3   990  AC1990      0.1775
      2  O2        31.4140   35.7020   -4.5830 O.3   990  AC1990     -0.2177
      3  C2        31.1530   37.0340   -5.0000 C.3   990  AC1990      0.2129
      4  C4        34.5230   41.7470   -9.9740 C.3   990  AC1990      0.2053
      5  C3A       32.2790   37.5120   -5.9040 C.3   990  AC1990      0.2028
      6  O3A       32.3510   36.6800   -7.0530 O.3   990  AC1990     -0.2187
      7  C4A       32.0220   38.9630   -6.3130 C.3   990  AC1990      0.1331
      8  N4A       33.1940   39.4260   -7.0380 N.3   990  AC1990     -0.2087
      9  C5A       31.8550   39.8430   -5.0710 C.3   990  AC1990      0.1339
     10  O5        30.8260   39.3030   -4.2150 O.3   990  AC1990     -0.3519
     11  C6A       31.4760   41.2630   -5.4870 C.3   990  AC1990      0.0336
     12  C1B       32.8490   39.6230   -8.4380 C.3   990  AC1990      0.1273
     13  C2B       34.1010   39.3650   -9.2790 C.3   990  AC1990      0.2049
     14  O2B       34.7590   38.1940   -8.8120 O.3   990  AC1990     -0.2184
     15  C3B       35.0590   40.5570   -9.1800 C.3   990  AC1990      0.2179
     16  O3B       36.3480   40.1960   -9.6630 O.3   990  AC1990     -0.2172
     17  O4        35.4620   42.8140   -9.9170 O.3   990  AC1990     -0.2157
     18  C5B       33.1430   42.0990   -9.4160 C.2   990  AC1990      0.0180
     19  C7B       32.3100   41.0460   -8.6920 C.2   990  AC1990     -0.0100
     20  C6B       32.5420   43.4910   -9.5590 C.3   990  AC1990      0.2066
     21  O6B       32.3520   44.0700   -8.2730 O.3   990  AC1990     -0.2155
@<TRIPOS>BOND
     1     4    17    1
     2     4    18    1
     3     4    15    1
     4    16    15    1
     5    20    18    1
     6    20    21    1
     7    18    19    2
     8    13    15    1
     9    13    14    1
    10    13    12    1
    11    19    12    1
    12    12     8    1
    13     6     5    1
    14     8     7    1
    15     7     5    1
    16     7     9    1
    17     5     3    1
    18    11     9    1
    19     9    10    1
    20     3     2    1
    21     3     1    1
    22    10     1    1
