@<TRIPOS>MOLECULE
1ose_BGC_A_1.pdb
 12 12 0 0 0
SMALL
GASTEIGER

@<TRIPOS>ATOM
      1  C2        44.1910   34.1040    1.2910 C.3   993  BGC993      0.2434
      2  C3        43.1020   34.8110    2.0830 C.3   993  BGC993      0.2199
      3  C4        41.7800   34.8320    1.3070 C.3   993  BGC993      0.2144
      4  C5        41.4230   33.4450    0.7280 C.3   993  BGC993      0.1836
      5  C6        40.2880   33.5190   -0.2870 C.3   993  BGC993      0.2142
      6  C1        43.6920   32.7210    0.9150 C.3   993  BGC993      0.3024
      7  O1        44.6820   32.0280    0.2390 O.3   993  BGC993     -0.1869
      8  O2        45.3700   33.9910    2.0740 O.3   993  BGC993     -0.2148
      9  O3        43.5040   36.1410    2.3700 O.3   993  BGC993     -0.2174
     10  O4        40.7290   35.2410    2.2150 O.3   993  BGC993     -0.2176
     11  O5        42.5550   32.8460    0.0560 O.3   993  BGC993     -0.3236
     12  O6        39.8460   32.2230   -0.6760 O.3   993  BGC993     -0.2176
@<TRIPOS>BOND
     1    12     5    1
     2     5     4    1
     3    11     4    1
     4    11     6    1
     5     7     6    1
     6     4     3    1
     7     6     1    1
     8     1     8    1
     9     1     2    1
    10     3     2    1
    11     3    10    1
    12     2     9    1
