@<TRIPOS>MOLECULE
1osf_KOS_A_1.pdb
 44 45 0 0 0
SMALL
GASTEIGER

@<TRIPOS>ATOM
      1  C27       79.1200  -25.7780   57.7570 C.3   280  KOS280      0.1741
      2  O6        79.7800  -25.6360   59.2230 O.3   280  KOS280     -0.3510
      3  C12       78.8920  -25.2050   60.2690 C.3   280  KOS280      0.1458
      4  C13       79.7860  -25.1940   61.5740 C.3   280  KOS280      0.0325
      5  C14       80.5360  -26.4640   62.1060 C.3   280  KOS280      0.0070
      6  C28       79.6400  -27.6890   61.7970 C.3   280  KOS280      0.0004
      7  C15       80.9970  -26.3810   63.7090 C.3   280  KOS280      0.0312
      8  C16       79.8370  -26.0850   64.7170 C.2   280  KOS280      0.0367
      9  C17       79.3790  -24.8540   65.2380 C.2   280  KOS280      0.0995
     10  N29       79.9890  -23.5820   64.9080 N.pl3 280  KOS280     -0.2335
     11  C30       81.3940  -23.2560   65.1140 C.3   280  KOS280      0.1296
     12  C31       81.9160  -22.8320   66.5430 C.3   280  KOS280      0.0958
     13  N32       81.2360  -21.9280   67.5940 N.3   280  KOS280     -0.2688
     14  C33       82.0880  -21.7470   68.7380 C.3   280  KOS280      0.0897
     15  C34       80.0670  -22.4710   68.2190 C.3   280  KOS280      0.0897
     16  C18       78.2110  -24.7300   66.1910 C.2   280  KOS280      0.1947
     17  O8        77.8760  -23.6050   66.5740 O.2   280  KOS280     -0.2895
     18  C19       77.5050  -25.9750   66.6380 C.3   280  KOS280      0.1336
     19  C20       77.9180  -27.2170   66.1890 C.2   280  KOS280      0.1680
     20  N1        77.3730  -28.4910   66.5340 N.2   280  KOS280     -0.3338
     21  C1        76.8570  -29.6750   65.8730 C.1   280  KOS280      0.2003
     22  O1        76.5190  -30.5170   66.5550 O.2   280  KOS280     -0.2096
     23  C2        76.8210  -29.7130   64.3290 C.2   280  KOS280      0.0728
     24  C22       77.4910  -30.9060   63.6900 C.3   280  KOS280      0.0447
     25  C3        76.2140  -28.6750   63.6590 C.2   280  KOS280      0.0081
     26  C4        76.0660  -28.4600   62.2140 C.2   280  KOS280     -0.0016
     27  C5        75.1460  -27.6980   61.6360 C.2   280  KOS280      0.0069
     28  C6        74.0670  -26.9070   62.3220 C.3   280  KOS280      0.1811
     29  O2        72.6720  -27.4180   62.0050 O.3   280  KOS280     -0.3451
     30  C23       72.4350  -28.7670   61.8240 C.3   280  KOS280      0.1746
     31  C7        74.0340  -25.3890   61.8970 C.3   280  KOS280      0.2197
     32  O3        73.0120  -24.7260   62.5950 O.3   280  KOS280     -0.4290
     33  C24       72.2830  -23.7610   61.8720 C.2   280  KOS280      0.4413
     34  N2        71.1520  -23.4860   62.5550 N.am  280  KOS280     -0.0475
     35  O4        72.6020  -23.2440   60.8110 O.2   280  KOS280     -0.2227
     36  C8        75.4050  -24.5260   62.1190 C.2   280  KOS280     -0.0059
     37  C25       75.8490  -24.3170   63.5630 C.3   280  KOS280      0.0297
     38  C9        76.0150  -24.0600   61.0660 C.2   280  KOS280     -0.0288
     39  C10       77.2700  -23.2220   60.9250 C.3   280  KOS280      0.0544
     40  C26       76.7300  -21.8360   60.5100 C.3   280  KOS280      0.0074
     41  C11       78.2730  -23.7950   59.9150 C.3   280  KOS280      0.1828
     42  O5        79.4060  -22.8590   59.9080 O.3   280  KOS280     -0.2202
     43  C21       79.1170  -27.3180   65.1960 C.2   280  KOS280      0.2195
     44  O9        79.4840  -28.4360   64.7900 O.2   280  KOS280     -0.2844
@<TRIPOS>BOND
     1     1     2    1
     2     2     3    1
     3    42    41    1
     4    41     3    1
     5    41    39    1
     6     3     4    1
     7    40    39    1
     8    35    33    2
     9    39    38    1
    10    38    36    2
    11     4     5    1
    12    27    26    2
    13    27    28    1
    14     6     5    1
    15    30    29    1
    16    33    34   am
    17    33    32    1
    18    31    36    1
    19    31    28    1
    20    31    32    1
    21    29    28    1
    22     5     7    1
    23    36    37    1
    24    26    25    1
    25    25    23    2
    26    24    23    1
    27     7     8    1
    28    23    21    1
    29     8    43    1
    30     8     9    2
    31    44    43    2
    32    10    11    1
    33    10     9    1
    34    11    12    1
    35    43    19    1
    36     9    16    1
    37    21    20    2
    38    21    22    2
    39    19    20    2
    40    19    18    1
    41    16    17    2
    42    16    18    1
    43    12    13    1
    44    13    15    1
    45    13    14    1
