@<TRIPOS>MOLECULE
1osh_FEX_A_1.pdb
 37 40 0 0 0
SMALL
GASTEIGER

@<TRIPOS>ATOM
      1  C26        4.4570   33.1380   58.4960 C.3     1  FEX1        0.2556
      2  O2         4.3650   32.3960   57.2740 O.3     1  FEX1       -0.4444
      3  C25        5.1670   32.9240   56.1170 C.2     1  FEX1        0.3174
      4  O3         5.8920   34.0800   56.3450 O.2     1  FEX1       -0.2501
      5  C24        5.0460   32.1330   54.8980 C.3     1  FEX1        0.1142
      6  C23        5.3470   32.6090   53.6670 C.3     1  FEX1        0.0380
      7  C21        5.9150   32.4190   52.5140 C.ar    1  FEX1       -0.0204
      8  C20        6.8730   33.0940   51.6650 C.ar    1  FEX1       -0.0042
      9  C19        7.2730   32.4860   50.4310 C.ar    1  FEX1        0.0009
     10  C18        6.7210   31.2230   50.0160 C.ar    1  FEX1        0.0146
     11  C17        5.7570   30.4930   50.7910 C.ar    1  FEX1        0.0495
     12  C22        5.3610   31.1180   52.0580 C.ar    1  FEX1        0.0103
     13  N2         5.0670   29.1470   50.4060 N.pl3   1  FEX1       -0.2795
     14  C15        5.9940   28.2470   50.7380 C.3     1  FEX1        0.1197
     15  C12        6.1060   27.5580   52.0880 C.ar    1  FEX1       -0.0023
     16  C13        7.3290   26.9640   52.4400 C.ar    1  FEX1       -0.0026
     17  C14        7.5180   26.3220   53.7010 C.ar    1  FEX1       -0.0003
     18  C9         6.4820   26.2470   54.6780 C.ar    1  FEX1       -0.0000
     19  C10        5.2150   26.8760   54.2780 C.ar    1  FEX1       -0.0003
     20  C11        5.0260   27.5070   53.0360 C.ar    1  FEX1       -0.0026
     21  C6         6.4510   25.7810   55.7910 C.ar    1  FEX1        0.0001
     22  C7         5.2630   25.1360   56.4530 C.ar    1  FEX1        0.0013
     23  C8         5.3320   24.6460   57.8100 C.ar    1  FEX1        0.0145
     24  C1         6.5540   24.7480   58.5970 C.ar    1  FEX1        0.0479
     25  C4         7.7430   25.3860   57.9230 C.ar    1  FEX1        0.0145
     26  C5         7.6810   25.8710   56.5820 C.ar    1  FEX1        0.0013
     27  N1         6.4390   24.1960   60.0530 N.pl3   1  FEX1       -0.3041
     28  C2         5.2190   23.5950   60.6310 C.3     1  FEX1        0.1122
     29  C3         7.8880   24.4850   60.7230 C.3     1  FEX1        0.1122
     30  C16        3.9360   28.8260   49.8070 C.3     1  FEX1        0.2282
     31  O1         3.4070   28.1030   50.0730 O.3     1  FEX1       -0.2007
     32  C27        2.6840   29.7150   49.5290 C.3     1  FEX1        0.0500
     33  C28        2.1280   30.5200   50.7210 C.3     1  FEX1        0.0043
     34  C29        0.8910   31.4380   50.4010 C.3     1  FEX1        0.0001
     35  C30        0.5030   31.4270   48.8960 C.3     1  FEX1        0.0000
     36  C31        1.7320   31.6150   47.9680 C.3     1  FEX1        0.0001
     37  C32        2.9330   30.6650   48.2750 C.3     1  FEX1        0.0043
@<TRIPOS>BOND
     1    36    37    1
     2    36    35    1
     3    37    32    1
     4    35    34    1
     5    32    30    1
     6    32    33    1
     7    30    31    1
     8    30    13    1
     9    10     9   ar
    10    10    11   ar
    11    34    33    1
    12    13    14    1
    13    13    11    1
    14     9     8   ar
    15    14    15    1
    16    11    12   ar
    17     8     7   ar
    18    12     7   ar
    19    15    16   ar
    20    15    20   ar
    21    16    17   ar
    22     7     6    1
    23    20    19   ar
    24     6     5    1
    25    17    18   ar
    26    19    18   ar
    27    18    21    1
    28     5     3    1
    29    21    22   ar
    30    21    26   ar
    31     3     4    2
    32     3     2    1
    33    22    23   ar
    34    26    25   ar
    35     2     1    1
    36    23    24   ar
    37    25    24   ar
    38    24    27    1
    39    27    28    1
    40    27    29    1
