@<TRIPOS>MOLECULE
1osn_BVP_A_1.pdb
 23 24 0 0 0
SMALL
GASTEIGER

@<TRIPOS>ATOM
      1  O3'       84.7750   22.9050   52.9710 O.3   500  BVP500     -0.2203
      2  C3'       84.8400   22.4930   54.3360 C.3   500  BVP500      0.1857
      3  C2'       84.2980   23.5280   55.3080 C.3   500  BVP500      0.0874
      4  C1'       82.8020   23.2790   55.2310 C.3   500  BVP500      0.2090
      5  O4'       82.6420   21.8990   54.8640 O.3   500  BVP500     -0.3339
      6  C4'       83.9190   21.3240   54.5020 C.3   500  BVP500      0.1774
      7  C5'       84.3040   20.3230   55.6030 C.3   500  BVP500      0.1858
      8  O5'       85.6350   19.8080   55.4080 O.3   500  BVP500     -0.2675
      9  P         86.8160   19.9640   56.5350 P.3   500  BVP500      0.5327
     10  O1P       86.3940   20.9800   57.5390 O.3   500  BVP500     -0.1145
     11  O2P       88.0810   20.4120   55.8610 O.2   500  BVP500     -0.2224
     12  O3P       87.0570   18.6800   57.2020 O.3   500  BVP500     -0.1145
     13  N1        81.9850   23.5340   56.5040 N.am  500  BVP500     -0.1791
     14  C6        82.1420   22.7360   57.6440 C.2   500  BVP500      0.0920
     15  C5        81.3640   22.9950   58.8420 C.2   500  BVP500      0.1115
     16  C5A       81.3490   22.4790   59.8630 C.2   500  BVP500      0.0212
     17  C5B       80.7190   21.2960   60.2180 C.2   500  BVP500      0.0416
     18 BR         80.4350   20.7210   62.0900 Br    500  BVP500     -0.0485
     19  C4        80.4170   24.1200   58.7910 C.1   500  BVP500      0.2175
     20  O4        79.6750   24.4740   59.7450 O.2   500  BVP500     -0.2085
     21  N3        80.3370   24.8470   57.6170 N.2   500  BVP500     -0.2452
     22  C2        81.0780   24.5920   56.4980 C.1   500  BVP500      0.2844
     23  O2        80.9210   25.3110   55.5220 O.2   500  BVP500     -0.1918
@<TRIPOS>BOND
     1     1     2    1
     2     2     6    1
     3     2     3    1
     4     6     5    1
     5     6     7    1
     6     5     4    1
     7     4     3    1
     8     4    13    1
     9     8     7    1
    10     8     9    1
    11    23    22    2
    12    11     9    2
    13    22    13   am
    14    22    21    2
    15    13    14    1
    16     9    12    1
    17     9    10    1
    18    21    19    2
    19    14    15    2
    20    19    15    1
    21    19    20    2
    22    15    16    1
    23    16    17    2
    24    17    18    1
