@<TRIPOS>MOLECULE
1osn_ADP_B_1.pdb
 27 29 0 0 0
SMALL
GASTEIGER

@<TRIPOS>ATOM
      1  PB        45.4540   33.8680   66.9120 P.3   1400  ADP1400     0.5373
      2  O1B       45.5020   32.7070   66.0030 O.2   1400  ADP1400    -0.2221
      3  O2B       45.6170   33.4440   68.3110 O.3   1400  ADP1400    -0.1143
      4  O3B       46.5210   34.8170   66.5500 O.3   1400  ADP1400    -0.1143
      5  PA        43.5490   35.9350   67.0830 P.3   1400  ADP1400     0.2231
      6  O1A       43.0850   35.9730   68.4830 O.3   1400  ADP1400    -0.4370
      7  O2A       44.4570   37.0690   66.7630 O.2   1400  ADP1400    -0.5169
      8  O3A       44.1750   34.6180   66.7230 O.3   1400  ADP1400    -0.2261
      9  O5'       42.2350   36.0910   66.1400 O.3   1400  ADP1400    -0.3111
     10  C5'       42.2070   36.9190   64.9390 C.3   1400  ADP1400     0.1813
     11  C4'       41.0430   37.9430   64.9630 C.3   1400  ADP1400     0.1821
     12  O4'       39.7380   37.2500   64.8830 O.3   1400  ADP1400    -0.3135
     13  C3'       41.0180   38.7390   66.2510 C.3   1400  ADP1400     0.2184
     14  O3'       41.6550   40.0050   66.0090 O.3   1400  ADP1400    -0.2174
     15  C2'       39.5620   38.8960   66.6220 C.3   1400  ADP1400     0.2570
     16  O2'       39.0610   40.2030   66.3330 O.3   1400  ADP1400    -0.2130
     17  C1'       38.7890   37.7940   65.8720 C.3   1400  ADP1400     0.3186
     18  N9        38.2830   36.7100   66.7910 N.pl3 1400  ADP1400    -0.1439
     19  C8        39.0030   35.8740   67.6320 C.3   1400  ADP1400     0.3377
     20  N7        38.2580   35.0300   68.3000 N.2   1400  ADP1400    -0.2095
     21  C5        36.9570   35.2550   67.9380 C.2   1400  ADP1400     0.2526
     22  C6        35.7020   34.6690   68.3050 C.2   1400  ADP1400     0.4393
     23  N6        35.6110   33.6600   69.1970 N.pl3 1400  ADP1400     0.2180
     24  N1        34.5600   35.1740   67.7110 N.2   1400  ADP1400     0.0021
     25  C2        34.6550   36.1840   66.8150 C.3   1400  ADP1400     0.5254
     26  N3        35.7750   36.8150   66.3870 N.2   1400  ADP1400    -0.0055
     27  C4        36.9390   36.3220   66.9730 C.2   1400  ADP1400     0.3518
@<TRIPOS>BOND
     1    12    11    1
     2    12    17    1
     3    10    11    1
     4    10     9    1
     5    11    13    1
     6    17    15    1
     7    17    18    1
     8     2     1    2
     9    14    13    1
    10     9     5    1
    11    13    15    1
    12    16    15    1
    13    26    25    1
    14    26    27    2
    15     4     1    1
    16     8     1    1
    17     8     5    1
    18     7     5    2
    19    18    27    1
    20    18    19    1
    21    25    24    1
    22     1     3    1
    23    27    21    1
    24     5     6    1
    25    19    20    1
    26    24    22    2
    27    21    20    2
    28    21    22    1
    29    22    23    1
