@<TRIPOS>MOLECULE
1osv_CHC_A_1.pdb
 30 33 0 0 0
SMALL
GASTEIGER

@<TRIPOS>ATOM
      1  C1         8.1840   35.1620   16.2230 C.3   202  CHC202      0.0026
      2  C2         8.4170   34.1640   17.4020 C.3   202  CHC202      0.0329
      3  C3         7.6930   34.7220   18.7130 C.3   202  CHC202      0.1520
      4  O3         7.8730   33.8450   19.7620 O.3   202  CHC202     -0.2232
      5  C4         8.2630   36.1690   19.1190 C.3   202  CHC202      0.0330
      6  C5         8.0750   37.2330   17.8970 C.3   202  CHC202      0.0050
      7  C6         8.6470   38.6960   18.1960 C.3   202  CHC202      0.0305
      8  C7        10.2460   38.7190   18.2750 C.3   202  CHC202      0.1519
      9  O7        10.7480   37.9790   19.4540 O.3   202  CHC202     -0.2232
     10  C8        10.9310   38.1380   16.9810 C.3   202  CHC202      0.0304
     11  C9        10.4430   36.6090   16.7030 C.3   202  CHC202      0.0024
     12  C10        8.7680   36.6150   16.5080 C.3   202  CHC202      0.0003
     13  C11       11.1790   36.0700   15.4650 C.3   202  CHC202      0.0001
     14  C12       12.7550   36.0600   15.5890 C.3   202  CHC202      0.0000
     15  C13       13.2940   37.5270   15.8220 C.3   202  CHC202      0.0001
     16  C14       12.5310   38.1110   17.0740 C.3   202  CHC202      0.0024
     17  C15       13.2940   39.4950   17.3090 C.3   202  CHC202      0.0001
     18  C16       14.7170   38.9970   17.2980 C.3   202  CHC202      0.0000
     19  C17       14.8150   37.6990   16.3720 C.3   202  CHC202      0.0000
     20  C18       12.9790   38.3930   14.4630 C.3   202  CHC202      0.0000
     21  C19        8.3320   37.3690   15.2560 C.3   202  CHC202      0.0000
     22  C20       15.9590   37.8080   15.2380 C.3   202  CHC202      0.0006
     23  C21       15.9720   36.4330   14.3830 C.3   202  CHC202      0.0000
     24  C22       17.3610   38.0110   15.8150 C.3   202  CHC202      0.0118
     25  C23       18.4670   38.1220   14.6950 C.3   202  CHC202      0.1141
     26  C24       19.8820   38.3250   15.1140 C.2   202  CHC202      0.3649
     27  C25        6.7350   39.2900   19.9220 C.3   202  CHC202      0.0001
     28  C26        8.2140   39.1380   19.5640 C.3   202  CHC202      0.0025
     29  OT1       20.3510   39.4660   15.0030 O.co2 202  CHC202     -0.2457
     30  OT2       20.5410   37.3480   15.5400 O.co2 202  CHC202     -0.2457
@<TRIPOS>BOND
     1    23    22    1
     2    20    15    1
     3    25    26    1
     4    25    24    1
     5    29    26   ar
     6    26    30   ar
     7    22    24    1
     8    22    19    1
     9    21    12    1
    10    13    14    1
    11    13    11    1
    12    14    15    1
    13    15    19    1
    14    15    16    1
    15     1    12    1
    16     1     2    1
    17    19    18    1
    18    12    11    1
    19    12     6    1
    20    11    10    1
    21    10    16    1
    22    10     8    1
    23    16    17    1
    24    18    17    1
    25     2     3    1
    26     6     7    1
    27     6     5    1
    28     7     8    1
    29     7    28    1
    30     8     9    1
    31     3     5    1
    32     3     4    1
    33    28    27    1
