@<TRIPOS>MOLECULE
1ot1_BGC_A_1.pdb
 12 12 0 0 0
SMALL
GASTEIGER

@<TRIPOS>ATOM
      1  C2        41.9590   84.7410   43.9230 C.3   695  BGC695      0.2434
      2  C3        41.0890   85.6750   44.7520 C.3   695  BGC695      0.2199
      3  C4        40.6880   84.9540   46.0430 C.3   695  BGC695      0.2144
      4  C5        41.9410   84.4690   46.8070 C.3   695  BGC695      0.1836
      5  C6        41.5810   83.5520   47.9630 C.3   695  BGC695      0.2142
      6  C1        43.2010   84.4490   44.7610 C.3   695  BGC695      0.3024
      7  O1        44.0970   83.6860   44.0400 O.3   695  BGC695     -0.1869
      8  O2        42.3190   85.3470   42.6900 O.3   695  BGC695     -0.2148
      9  O3        39.9360   86.0680   44.0210 O.3   695  BGC695     -0.2174
     10  O4        39.9500   85.8640   46.8720 O.3   695  BGC695     -0.2176
     11  O5        42.8200   83.7150   45.9350 O.3   695  BGC695     -0.3236
     12  O6        40.8870   82.4020   47.5010 O.3   695  BGC695     -0.2176
@<TRIPOS>BOND
     1     8     1    1
     2     1     2    1
     3     1     6    1
     4     9     2    1
     5     7     6    1
     6     2     3    1
     7     6    11    1
     8    11     4    1
     9     3     4    1
    10     3    10    1
    11     4     5    1
    12    12     5    1
