@<TRIPOS>MOLECULE
1ot1_GLC_A_1.pdb
 11 11 0 0 0
SMALL
GASTEIGER

@<TRIPOS>ATOM
      1  C1        38.7600   85.3760   47.4210 C.3   696  GLC696      0.1777
      2  C2        37.6160   86.2920   46.9960 C.3   696  GLC696      0.2141
      3  C3        37.8450   87.6940   47.5710 C.3   696  GLC696      0.2173
      4  C4        38.1010   87.6610   49.0930 C.3   696  GLC696      0.2142
      5  C5        39.1500   86.5980   49.4510 C.3   696  GLC696      0.1810
      6  C6        39.2910   86.3700   50.9460 C.3   696  GLC696      0.2141
      7  O2        37.5750   86.3620   45.5780 O.3   696  GLC696     -0.2176
      8  O3        36.7190   88.5100   47.2890 O.3   696  GLC696     -0.2175
      9  O4        38.6130   88.9400   49.5050 O.3   696  GLC696     -0.2176
     10  O5        38.8160   85.3310   48.8430 O.3   696  GLC696     -0.3481
     11  O6        38.0710   85.9210   51.5150 O.3   696  GLC696     -0.2176
@<TRIPOS>BOND
     1     7     2    1
     2     2     1    1
     3     2     3    1
     4     8     3    1
     5     1    10    1
     6     3     4    1
     7    10     5    1
     8     4     5    1
     9     4     9    1
    10     5     6    1
    11     6    11    1
