@<TRIPOS>MOLECULE
1ot2_BGC_A_1.pdb
 12 12 0 0 0
SMALL
GASTEIGER

@<TRIPOS>ATOM
      1  C2        42.0280   84.7790   44.1420 C.3   695  BGC695      0.2434
      2  C3        41.1150   85.6850   44.9480 C.3   695  BGC695      0.2199
      3  C4        40.6980   84.9510   46.2180 C.3   695  BGC695      0.2144
      4  C5        41.9410   84.5060   47.0210 C.3   695  BGC695      0.1836
      5  C6        41.5590   83.5510   48.1350 C.3   695  BGC695      0.2142
      6  C1        43.2660   84.5170   44.9970 C.3   695  BGC695      0.3024
      7  O1        44.1650   83.7430   44.2900 O.3   695  BGC695     -0.1869
      8  O2        42.3910   85.3950   42.9150 O.3   695  BGC695     -0.2148
      9  O3        39.9700   86.0440   44.1920 O.3   695  BGC695     -0.2174
     10  O4        39.9030   85.8410   47.0170 O.3   695  BGC695     -0.2176
     11  O5        42.8900   83.7950   46.1810 O.3   695  BGC695     -0.3236
     12  O6        40.9690   82.3690   47.6130 O.3   695  BGC695     -0.2176
@<TRIPOS>BOND
     1     8     1    1
     2     1     2    1
     3     1     6    1
     4     9     2    1
     5     7     6    1
     6     2     3    1
     7     6    11    1
     8    11     4    1
     9     3    10    1
    10     3     4    1
    11     4     5    1
    12    12     5    1
