@<TRIPOS>MOLECULE
1ot2_MAL_A_1.pdb
 23 24 0 0 0
SMALL
GASTEIGER

@<TRIPOS>ATOM
      1  C1        61.7890   97.4000   10.3800 C.3   1687  MAL1687     0.2695
      2  C2        62.3450   96.4620   11.4720 C.3   1687  MAL1687     0.2406
      3  C3        63.8420   96.2870   11.2980 C.3   1687  MAL1687     0.2198
      4  C4        64.1080   95.7440    9.9000 C.3   1687  MAL1687     0.2144
      5  C5        63.5340   96.7000    8.8410 C.3   1687  MAL1687     0.1835
      6  C6        63.7340   96.2330    7.4700 C.3   1687  MAL1687     0.2142
      7  O1        62.3580   98.6890   10.5500 O.3   1687  MAL1687    -0.3257
      8  O2        62.1020   96.9540   12.7920 O.3   1687  MAL1687    -0.2149
      9  O3        64.3530   95.4000   12.3040 O.3   1687  MAL1687    -0.2174
     10  O4        65.5040   95.6430    9.6490 O.3   1687  MAL1687    -0.2176
     11  O5        62.0950   96.9000    9.0490 O.3   1687  MAL1687    -0.3256
     12  O6        63.1870   97.1510    6.5130 O.3   1687  MAL1687    -0.2176
     13  C1'       61.1950  102.7160   10.8660 C.3   1687  MAL1687     0.3023
     14  C2'       60.6300  101.7600   11.9030 C.3   1687  MAL1687     0.2433
     15  C3'       61.5100  100.5120   11.9480 C.3   1687  MAL1687     0.2168
     16  C4'       61.5180   99.8690   10.5570 C.3   1687  MAL1687     0.1804
     17  C5'       62.0750  100.8650    9.5130 C.3   1687  MAL1687     0.1804
     18  C6'       62.0390  100.2580    8.1250 C.3   1687  MAL1687     0.2141
     19  O1'       62.4560  103.1310   11.2760 O.3   1687  MAL1687    -0.1869
     20  O2'       60.6010  102.3890   13.1840 O.3   1687  MAL1687    -0.2148
     21  O3'       60.9790   99.6120   12.9100 O.3   1687  MAL1687    -0.2175
     22  O5'       61.2350  102.0450    9.5720 O.3   1687  MAL1687    -0.3237
     23  O6'       62.5380  101.1860    7.1650 O.3   1687  MAL1687    -0.2176
@<TRIPOS>BOND
     1    12     6    1
     2    23    18    1
     3     6     5    1
     4    18    17    1
     5     5    11    1
     6     5     4    1
     7    11     1    1
     8    17    22    1
     9    17    16    1
    10    22    13    1
    11    10     4    1
    12     4     3    1
    13     1     7    1
    14     1     2    1
    15     7    16    1
    16    16    15    1
    17    13    19    1
    18    13    14    1
    19     3     2    1
    20     3     9    1
    21     2     8    1
    22    14    15    1
    23    14    20    1
    24    15    21    1
