@<TRIPOS>MOLECULE
1ot2_GLC_A_10.pdb
 12 12 0 0 0
SMALL
GASTEIGER

@<TRIPOS>ATOM
      1  C1        45.5790   99.6260   37.4150 C.3   1700  GLC1700     0.3024
      2  C2        46.5650   99.1310   36.3500 C.3   1700  GLC1700     0.2434
      3  C3        47.2230   97.8230   36.8060 C.3   1700  GLC1700     0.2199
      4  C4        47.8670   98.0170   38.1790 C.3   1700  GLC1700     0.2144
      5  C5        46.8170   98.5360   39.1680 C.3   1700  GLC1700     0.1836
      6  C6        47.3990   98.8180   40.5400 C.3   1700  GLC1700     0.2142
      7  O1        44.5470   98.7120   37.5690 O.3   1700  GLC1700    -0.1869
      8  O2        45.8810   98.9250   35.1240 O.3   1700  GLC1700    -0.2148
      9  O3        48.2100   97.4280   35.8650 O.3   1700  GLC1700    -0.2174
     10  O4        48.4010   96.7860   38.6430 O.3   1700  GLC1700    -0.2176
     11  O5        46.2450   99.7750   38.6820 O.3   1700  GLC1700    -0.3236
     12  O6        48.7160   99.3430   40.4400 O.3   1700  GLC1700    -0.2176
@<TRIPOS>BOND
     1     8     2    1
     2     9     3    1
     3     2     3    1
     4     2     1    1
     5     3     4    1
     6     1     7    1
     7     1    11    1
     8     4    10    1
     9     4     5    1
    10    11     5    1
    11     5     6    1
    12    12     6    1
