@<TRIPOS>MOLECULE
1ot3_THM_A_1.pdb
 17 18 0 0 0
SMALL
GASTEIGER

@<TRIPOS>ATOM
      1  O5'       19.6930    7.4140    4.6610 O.3   1400  THM1400    -0.2176
      2  C5'       20.2310    7.9380    5.8490 C.3   1400  THM1400     0.2141
      3  C4'       21.7130    7.4570    6.1040 C.3   1400  THM1400     0.1802
      4  O4'       21.9560    6.5680    7.1600 O.3   1400  THM1400    -0.3338
      5  C3'       22.5860    6.7130    5.0230 C.3   1400  THM1400     0.1858
      6  O3'       24.0830    6.9120    5.0420 O.3   1400  THM1400    -0.2203
      7  C2'       21.9640    5.3350    5.2610 C.3   1400  THM1400     0.0874
      8  C1'       22.1490    5.2340    6.7430 C.3   1400  THM1400     0.2090
      9  N1        21.2060    4.3800    7.5170 N.am  1400  THM1400    -0.1794
     10  C2        21.7200    3.3840    8.2930 C.1   1400  THM1400     0.2844
     11  O2        22.9870    3.2420    8.3230 O.2   1400  THM1400    -0.1918
     12  N3        20.9500    2.5610    9.0060 N.2   1400  THM1400    -0.2455
     13  C4        19.6310    2.6930    8.9790 C.1   1400  THM1400     0.2134
     14  O4        18.8990    1.8750    9.6880 O.2   1400  THM1400    -0.2088
     15  C5        19.0410    3.7040    8.1940 C.2   1400  THM1400     0.0891
     16  C5M       17.5220    3.8700    8.1460 C.3   1400  THM1400     0.0462
     17  C6        19.8690    4.5700    7.4450 C.2   1400  THM1400     0.0877
@<TRIPOS>BOND
     1     1     2    1
     2     5     6    1
     3     5     7    1
     4     5     3    1
     5     7     8    1
     6     2     3    1
     7     3     4    1
     8     8     4    1
     9     8     9    1
    10    17     9    1
    11    17    15    2
    12     9    10   am
    13    16    15    1
    14    15    13    1
    15    10    11    2
    16    10    12    2
    17    13    12    2
    18    13    14    2
