@<TRIPOS>MOLECULE
1ot7_IU5_B_1.pdb
 27 30 0 0 0
SMALL
GASTEIGER

@<TRIPOS>ATOM
      1  C1        18.3380   15.2470   56.2570 C.3   1002  IU51002     0.0000
      2  C10       18.0880   16.4830   57.2250 C.3   1002  IU51002     0.0002
      3  C11       15.4890   15.9960   57.4930 C.3   1002  IU51002     0.0001
      4  C12       14.0410   16.4950   57.4380 C.3   1002  IU51002     0.0000
      5  C13       13.7780   17.7550   58.3060 C.3   1002  IU51002     0.0001
      6  C14       14.8600   18.8200   57.9610 C.3   1002  IU51002     0.0024
      7  C15       14.3940   20.0290   58.8570 C.3   1002  IU51002     0.0001
      8  C16       12.9360   20.1310   58.4200 C.3   1002  IU51002     0.0000
      9  C17       12.5030   18.6540   58.0180 C.3   1002  IU51002     0.0000
     10  C18       13.8730   17.3190   59.8620 C.3   1002  IU51002     0.0000
     11  C19       18.3790   15.8150   58.5920 C.3   1002  IU51002     0.0000
     12  O1A       17.1270   20.1200   56.4820 O.3   1002  IU51002    -0.2232
     13  C2        18.1590   15.5910   54.7590 C.3   1002  IU51002     0.0000
     14  C20       11.1610   18.2170   58.7480 C.3   1002  IU51002     0.0006
     15  C21       10.6830   16.7150   58.3960 C.3   1002  IU51002     0.0000
     16  C22       10.0720   19.2000   58.3440 C.3   1002  IU51002     0.0118
     17  C23        8.7380   18.8630   58.9950 C.3   1002  IU51002     0.1141
     18  C24        7.6320   19.8150   58.5690 C.2   1002  IU51002     0.3649
     19  C3        19.0300   16.8400   54.3180 C.3   1002  IU51002     0.0000
     20  C4        18.8660   18.0730   55.2800 C.3   1002  IU51002     0.0001
     21  O4         7.3990   20.8080   59.2790 O.co2 1002  IU51002    -0.2457
     22  O4A        7.0270   19.5650   57.4960 O.co2 1002  IU51002    -0.2457
     23  C5        19.0930   17.7020   56.8410 C.3   1002  IU51002     0.0025
     24  C6        18.9010   18.9430   57.7950 C.3   1002  IU51002     0.0329
     25  C7        17.4540   19.4570   57.7800 C.3   1002  IU51002     0.1519
     26  C8        16.3790   18.3220   58.0880 C.3   1002  IU51002     0.0304
     27  C9        16.5620   17.0800   57.1300 C.3   1002  IU51002     0.0024
@<TRIPOS>BOND
     1    19    13    1
     2    19    20    1
     3    13     1    1
     4    20    23    1
     5     1     2    1
     6    12    25    1
     7    23     2    1
     8    23    24    1
     9    27     2    1
    10    27     3    1
    11    27    26    1
    12     2    11    1
    13     4     3    1
    14     4     5    1
    15    22    18   ar
    16    25    24    1
    17    25    26    1
    18     6    26    1
    19     6     5    1
    20     6     7    1
    21     9     5    1
    22     9     8    1
    23     9    14    1
    24     5    10    1
    25    16    14    1
    26    16    17    1
    27    15    14    1
    28     8     7    1
    29    18    17    1
    30    18    21   ar
