@<TRIPOS>MOLECULE
1ot7_CHC_A_1.pdb
 30 33 0 0 0
SMALL
GASTEIGER

@<TRIPOS>ATOM
      1  C1         8.7840   35.1580   16.2070 C.3   1001  CHC1001     0.0026
      2  C2         9.0330   34.1550   17.3700 C.3   1001  CHC1001     0.0329
      3  C3         8.4160   34.7480   18.7160 C.3   1001  CHC1001     0.1520
      4  O3         8.6240   33.8490   19.7490 O.3   1001  CHC1001    -0.2232
      5  C4         9.0720   36.2090   19.0800 C.3   1001  CHC1001     0.0330
      6  C5         8.8320   37.2570   17.8530 C.3   1001  CHC1001     0.0050
      7  C6         9.4650   38.7130   18.0450 C.3   1001  CHC1001     0.0305
      8  C7        11.0450   38.7340   18.1250 C.3   1001  CHC1001     0.1519
      9  O7        11.5660   38.0820   19.3400 O.3   1001  CHC1001    -0.2232
     10  C8        11.6710   38.0910   16.8300 C.3   1001  CHC1001     0.0304
     11  C9        11.1080   36.5570   16.5970 C.3   1001  CHC1001     0.0024
     12  C10        9.4280   36.6010   16.4530 C.3   1001  CHC1001     0.0003
     13  C11       11.7950   35.9730   15.3610 C.3   1001  CHC1001     0.0001
     14  C12       13.3820   35.9230   15.4510 C.3   1001  CHC1001     0.0000
     15  C13       13.9830   37.3750   15.6520 C.3   1001  CHC1001     0.0001
     16  C14       13.2620   38.0170   16.8960 C.3   1001  CHC1001     0.0024
     17  C15       14.0670   39.3870   17.0740 C.3   1001  CHC1001     0.0001
     18  C16       15.4790   38.8270   17.0600 C.3   1001  CHC1001     0.0000
     19  C17       15.5030   37.4910   16.1760 C.3   1001  CHC1001     0.0000
     20  C18       13.7190   38.2360   14.2770 C.3   1001  CHC1001     0.0000
     21  C19        8.9660   37.3570   15.2230 C.3   1001  CHC1001     0.0000
     22  C20       16.6470   37.5060   15.0370 C.3   1001  CHC1001     0.0006
     23  C21       16.5980   36.1200   14.2000 C.3   1001  CHC1001     0.0000
     24  C22       18.0430   37.6690   15.6370 C.3   1001  CHC1001     0.0118
     25  C23       19.1850   37.7030   14.5680 C.3   1001  CHC1001     0.1141
     26  C24       20.5670   37.8840   15.0680 C.2   1001  CHC1001     0.3649
     27  C25        7.6120   39.9320   19.3560 C.3   1001  CHC1001     0.0001
     28  C26        9.0120   39.2920   19.3220 C.3   1001  CHC1001     0.0025
     29  OT1       21.2610   36.8770   15.3810 O.co2 1001  CHC1001    -0.2457
     30  OT2       20.9700   39.0610   15.1620 O.co2 1001  CHC1001    -0.2457
@<TRIPOS>BOND
     1    23    22    1
     2    20    15    1
     3    25    26    1
     4    25    24    1
     5    22    24    1
     6    22    19    1
     7    26    30   ar
     8    26    29   ar
     9    21    12    1
    10    13    14    1
    11    13    11    1
    12    14    15    1
    13    15    19    1
    14    15    16    1
    15    19    18    1
    16     1    12    1
    17     1     2    1
    18    12    11    1
    19    12     6    1
    20    11    10    1
    21    10    16    1
    22    10     8    1
    23    16    17    1
    24    18    17    1
    25     2     3    1
    26     6     7    1
    27     6     5    1
    28     7     8    1
    29     7    28    1
    30     8     9    1
    31     3     5    1
    32     3     4    1
    33    28    27    1
