@<TRIPOS>MOLECULE
1oth_PAO_A_1.pdb
 16 15 0 0 0
SMALL
GASTEIGER

@<TRIPOS>ATOM
      1  N          5.1240    4.3770  -23.5400 N.3   355  PAO355     -0.1208
      2  CA         3.9640    4.1260  -22.7050 C.3   355  PAO355      0.1944
      3  CB         3.0140    3.1880  -23.4580 C.3   355  PAO355      0.0324
      4  CG         1.6420    2.9820  -22.8120 C.3   355  PAO355      0.0255
      5  CD         0.8040    1.9740  -23.6080 C.3   355  PAO355      0.1152
      6  NE        -0.6030    2.0950  -23.2570 N.am  355  PAO355     -0.2050
      7  C          4.4530    3.4980  -21.4060 C.2   355  PAO355      0.3819
      8  O          4.0350    3.9450  -20.3410 O.co2 355  PAO355     -0.2441
      9  OXT        5.2710    2.5840  -21.4690 O.co2 355  PAO355     -0.2441
     10  C1        -1.4600    1.0690  -23.2840 C.2   355  PAO355      0.2488
     11  O1        -1.1480   -0.0840  -23.5820 O.2   355  PAO355     -0.2728
     12  C1P       -2.8640    1.4360  -22.8430 C.3   355  PAO355      0.1454
     13  P         -3.1060    0.8570  -21.1450 P.3   355  PAO355      0.1264
     14  O1P       -1.8480    1.2590  -20.2430 O.3   355  PAO355     -0.3568
     15  O2P       -3.2630   -0.7220  -21.1320 O.2   355  PAO355     -0.4596
     16  O3P       -4.4170    1.5340  -20.5410 O.3   355  PAO355     -0.3568
@<TRIPOS>BOND
     1     5     6    1
     2     5     4    1
     3    11    10    2
     4     1     2    1
     5     3     4    1
     6     3     2    1
     7    10     6   am
     8    10    12    1
     9    12    13    1
    10     2     7    1
    11     9     7   ar
    12     7     8   ar
    13    13    15    2
    14    13    16    1
    15    13    14    1
