@<TRIPOS>MOLECULE
1otw_PQQ_A_1.pdb
 24 26 0 0 0
SMALL
GASTEIGER

@<TRIPOS>ATOM
      1  N1         3.6510   43.2730    1.7070 N.2   500  PQQ500     -0.3986
      2  C2         3.5600   44.5780    1.3900 C.2   500  PQQ500      0.2104
      3  C2X        4.2970   45.5610    2.2330 C.2   500  PQQ500      0.4168
      4  O2A        4.7180   45.2220    3.2960 O.co2 500  PQQ500     -0.2377
      5  O2B        4.3810   46.8360    1.9990 O.co2 500  PQQ500     -0.2377
      6  C3         2.6850   44.7970    0.3070 C.2   500  PQQ500      0.0444
      7  C3A        2.2490   43.5430   -0.0390 C.2   500  PQQ500      0.0711
      8  C1A        2.9070   42.6150    0.8240 C.2   500  PQQ500      0.1232
      9  C4         1.3060   43.0690   -1.1070 C.2   500  PQQ500      0.2387
     10  O4         0.7820   43.8840   -1.8790 O.2   500  PQQ500     -0.2830
     11  C5         1.0020   41.6010   -1.2220 C.2   500  PQQ500      0.2601
     12  O5         0.1160   41.0760   -1.9760 O.2   500  PQQ500     -0.2807
     13  C6A        1.6980   40.6910   -0.2910 C.2   500  PQQ500      0.1617
     14  N6         1.4120   39.4060   -0.3880 N.2   500  PQQ500     -0.3954
     15  C7         1.9600   38.4870    0.3860 C.2   500  PQQ500      0.2103
     16  C7X        1.4670   37.0970    0.2400 C.2   500  PQQ500      0.4168
     17  O7A        0.4700   36.8730   -0.4170 O.co2 500  PQQ500     -0.2377
     18  O7B        2.0710   36.1250    0.8920 O.co2 500  PQQ500     -0.2377
     19  C8         2.8630   38.8120    1.3570 C.2   500  PQQ500      0.0420
     20  C9         3.2590   40.1140    1.5720 C.2   500  PQQ500      0.0734
     21  C9X        4.3410   40.3500    2.5630 C.2   500  PQQ500      0.3847
     22  O9A        5.3390   39.6300    2.5760 O.co2 500  PQQ500     -0.2409
     23  O9B        4.2540   41.3400    3.3910 O.co2 500  PQQ500     -0.2409
     24  C9A        2.6670   41.1550    0.7190 C.3   500  PQQ500      0.1366
@<TRIPOS>BOND
     1    12    11    2
     2    10     9    2
     3    11     9    1
     4    11    13    1
     5     9     7    1
     6    17    16   ar
     7    14    13    2
     8    14    15    2
     9    13    24    1
    10     7     6    2
    11     7     8    1
    12    16    15    1
    13    16    18   ar
    14     6     2    1
    15    15    19    1
    16    24     8    1
    17    24    20    1
    18     8     1    2
    19    19    20    2
    20     2     1    2
    21     2     3    1
    22    20    21    1
    23     5     3   ar
    24     3     4   ar
    25    21    22   ar
    26    21    23   ar
