@<TRIPOS>MOLECULE
1oty_6MP_A_1.pdb
 10 11 0 0 0
SMALL
GASTEIGER

@<TRIPOS>ATOM
      1  N9        87.8250   66.3110   18.6130 N.2   247  6MP247     -0.1916
      2  C4        87.2130   65.0790   18.1740 C.1   247  6MP247      0.0493
      3  N3        87.4100   63.7520   18.6590 N.2   247  6MP247     -0.1917
      4  C2        86.6610   62.7810   18.0120 C.3   247  6MP247      0.2607
      5  N1        85.7770   63.0130   16.9730 N.2   247  6MP247     -0.2458
      6  C6        85.5890   64.3320   16.5000 C.2   247  6MP247      0.0830
      7  C7        84.5930   64.5430   15.3400 C.3   247  6MP247      0.0541
      8  C5        86.3270   65.4450   17.1060 C.2   247  6MP247      0.1526
      9  N7        86.3670   66.8100   16.8790 N.2   247  6MP247     -0.2323
     10  C8        87.2450   67.2410   17.7780 C.3   247  6MP247      0.2616
@<TRIPOS>BOND
     1     7     6    1
     2     6     5    2
     3     6     8    1
     4     9     8    2
     5     9    10    1
     6     5     4    1
     7     8     2    1
     8    10     1    1
     9     4     3    1
    10     2     1    2
    11     2     3    2
