@<TRIPOS>MOLECULE
1ou4_6MP_A_1.pdb
 10 11 0 0 0
SMALL
GASTEIGER

@<TRIPOS>ATOM
      1  N9        90.2090   65.2480   20.0770 N.2   244  6MP244     -0.1916
      2  C4        89.2120   65.5200   19.0640 C.1   244  6MP244      0.0493
      3  N3        88.2870   64.6250   18.4390 N.2   244  6MP244     -0.1917
      4  C2        87.4580   65.2130   17.4970 C.3   244  6MP244      0.2607
      5  N1        87.4760   66.5490   17.1480 N.2   244  6MP244     -0.2458
      6  C6        88.3960   67.4220   17.7750 C.2   244  6MP244      0.0830
      7  C7        88.3820   68.9100   17.3540 C.3   244  6MP244      0.0541
      8  C5        89.3230   66.9180   18.7860 C.2   244  6MP244      0.1526
      9  N7        90.3140   67.5040   19.5590 N.2   244  6MP244     -0.2323
     10  C8        90.7790   66.4910   20.2730 C.3   244  6MP244      0.2616
@<TRIPOS>BOND
     1     5     4    1
     2     5     6    2
     3     7     6    1
     4     4     3    1
     5     6     8    1
     6     3     2    2
     7     8     2    1
     8     8     9    2
     9     2     1    2
    10     9    10    1
    11     1    10    1
