@<TRIPOS>MOLECULE
1ou6_168_A_1.pdb
 27 26 0 0 0
SMALL
GASTEIGER

@<TRIPOS>ATOM
      1  C2        23.1810  -17.2590   12.6990 C.3   5001  1685001     0.1212
      2  C1        24.2390  -17.4080   13.7700 C.2   5001  1685001     0.3176
      3  O1        23.9890  -17.0460   14.9210 O.2   5001  1685001    -0.2501
      4  OP1       25.5220  -17.9700   13.4060 O.3   5001  1685001    -0.4465
      5  CP2       26.1180  -18.7620   14.4370 C.3   5001  1685001     0.2317
      6  CP3       26.7770  -17.9610   15.5500 C.3   5001  1685001     0.1624
      7  NP4       26.6720  -18.6880   16.8070 N.am  5001  1685001    -0.2014
      8  CP5       25.7920  -18.3960   17.7550 C.2   5001  1685001     0.2433
      9  OP5       24.9560  -17.5050   17.6870 O.2   5001  1685001    -0.2733
     10  CP6       25.8530  -19.2910   18.9540 C.3   5001  1685001     0.1102
     11  CP7       27.0600  -19.0190   19.8510 C.3   5001  1685001     0.1248
     12  NP8       26.9110  -19.9390   20.9630 N.am  5001  1685001    -0.2028
     13  CP9       27.7320  -20.1230   22.0040 C.2   5001  1685001     0.2720
     14  OP9       28.7920  -19.5280   22.2020 O.2   5001  1685001    -0.2706
     15  CPA       27.2180  -21.1880   22.9530 C.3   5001  1685001     0.2323
     16  OPA       26.4730  -22.1480   22.1680 O.3   5001  1685001    -0.2131
     17  CPB       26.3390  -20.6580   24.1220 C.3   5001  1685001     0.0772
     18  CPD       25.3080  -21.7250   24.5120 C.3   5001  1685001     0.0068
     19  CPE       27.2460  -20.3830   25.3220 C.3   5001  1685001     0.0068
     20  CPC       25.5990  -19.3730   23.7130 C.3   5001  1685001     0.2112
     21  OA6       24.5460  -18.9540   24.6160 O.3   5001  1685001    -0.4484
     22  CT1       23.2850  -18.7800   23.9370 C.2   5001  1685001     0.3159
     23  OT1       22.3400  -19.4440   24.3810 O.2   5001  1685001    -0.2501
     24  CT2       23.0690  -17.8200   22.7200 C.3   5001  1685001     0.0896
     25  CT3       22.6460  -18.5980   21.4790 C.3   5001  1685001     0.0111
     26  CT4       21.9460  -16.8570   23.0990 C.3   5001  1685001     0.0111
     27  CT5       24.2860  -16.9850   22.3110 C.3   5001  1685001     0.0111
@<TRIPOS>BOND
     1     1     2    1
     2     4     2    1
     3     4     5    1
     4     2     3    2
     5     5     6    1
     6     6     7    1
     7     7     8   am
     8     9     8    2
     9     8    10    1
    10    10    11    1
    11    11    12    1
    12    12    13   am
    13    25    24    1
    14    13    14    2
    15    13    15    1
    16    16    15    1
    17    27    24    1
    18    24    26    1
    19    24    22    1
    20    15    17    1
    21    20    17    1
    22    20    21    1
    23    22    23    2
    24    22    21    1
    25    17    18    1
    26    17    19    1
