@<TRIPOS>MOLECULE
1ouk_084_A_1.pdb
 37 41 0 0 0
SMALL
GASTEIGER

@<TRIPOS>ATOM
      1  C50       48.8660   37.8810   28.9940 C.3   501  084501      0.0291
      2  C49       48.2050   36.9510   29.6760 C.3   501  084501      0.1269
      3  N48       47.0720   37.5940   30.4500 N.pl3 501  084501     -0.1594
      4  C40       46.0840   37.0210   31.2700 C.1   501  084501      0.1652
      5  N39       45.3000   37.7980   32.0790 N.2   501  084501     -0.1686
      6  C38       44.3600   37.1260   32.8390 C.2   501  084501      0.1141
      7  C37       44.1730   35.7180   32.8290 C.2   501  084501      0.0521
      8  C12       45.0270   34.9760   31.9610 C.2   501  084501      0.1481
      9  N41       45.9620   35.6630   31.2030 N.2   501  084501     -0.3387
     10  C1        44.9460   33.4660   31.8690 C.3   501  084501      0.1809
     11  C5        43.7640   32.6320   31.6230 C.2   501  084501      0.1350
     12  N4        44.1470   31.3300   31.6380 N.2   501  084501     -0.3937
     13  C3        45.4830   31.3670   31.8750 C.2   501  084501      0.1598
     14  C10       46.3470   30.0170   31.9900 C.3   501  084501      0.0698
     15  C13       46.7950   29.5360   33.4310 C.3   501  084501      0.0272
     16  C14       47.5950   28.1990   33.4220 C.3   501  084501      0.0892
     17  N15       46.8650   27.1120   32.6760 N.3   501  084501     -0.2180
     18  C16       46.4210   27.5160   31.2870 C.3   501  084501      0.0892
     19  C17       45.5850   28.8310   31.2940 C.3   501  084501      0.0272
     20  N2        46.0340   32.6160   32.0190 N.pl3 501  084501     -0.2750
     21  C6        47.4420   33.0020   32.2860 C.3   501  084501      0.1150
     22  C11       42.3560   33.0670   31.3880 C.ar  501  084501      0.0275
     23  C28       41.3310   32.6070   32.2540 C.ar  501  084501      0.0061
     24  C29       39.9600   33.0110   32.0590 C.ar  501  084501      0.0715
     25  C30       39.6450   33.9100   30.9370 C.ar  501  084501      0.0039
     26  C31       40.6700   34.3740   30.0620 C.ar  501  084501      0.0000
     27  C32       42.0040   33.9570   30.2870 C.ar  501  084501      0.0023
     28  C44       38.8660   32.5000   33.0080 C.3   501  084501      0.4186
     29  F45       38.5890   31.2760   32.6640 F     501  084501     -0.1659
     30  F46       37.8140   33.2570   32.8650 F     501  084501     -0.1659
     31  F47       39.2280   32.5310   34.2780 F     501  084501     -0.1659
     32  C54       49.1270   36.0780   30.6230 C.ar  501  084501     -0.0018
     33  C60       49.3520   36.4390   32.0270 C.ar  501  084501     -0.0026
     34  C59       50.1880   35.6490   32.8850 C.ar  501  084501     -0.0003
     35  C58       50.8300   34.4780   32.3660 C.ar  501  084501     -0.0000
     36  C57       50.6370   34.0920   30.9960 C.ar  501  084501     -0.0003
     37  C56       49.7940   34.8830   30.1340 C.ar  501  084501     -0.0026
@<TRIPOS>BOND
     1     1     2    1
     2     2     3    1
     3     2    32    1
     4    26    27   ar
     5    26    25   ar
     6    37    32   ar
     7    37    36   ar
     8    27    22   ar
     9     3     4    1
    10    32    33   ar
    11    25    24   ar
    12    36    35   ar
    13     9     4    2
    14     9     8    2
    15     4     5    2
    16    18    19    1
    17    18    17    1
    18    19    14    1
    19    22    11    1
    20    22    23   ar
    21    11    12    2
    22    11    10    1
    23    12    13    2
    24    10     8    1
    25    10    20    1
    26    13    14    1
    27    13    20    1
    28     8     7    1
    29    14    15    1
    30    20    21    1
    31    33    34   ar
    32    24    23   ar
    33    24    28    1
    34     5     6    1
    35    35    34   ar
    36    29    28    1
    37    17    16    1
    38     7     6    2
    39    30    28    1
    40    28    31    1
    41    16    15    1
