@<TRIPOS>MOLECULE
1oum_TAL_A_1.pdb
 20 22 0 0 0
SMALL
GASTEIGER

@<TRIPOS>ATOM
      1  O5'       93.1710   65.8800   17.4280 O.3   245  TAL245     -0.2204
      2  C5'       92.9520   64.7770   18.2630 C.3   245  TAL245      0.1818
      3  C6'       93.6100   63.6310   17.7050 C.3   245  TAL245      0.0382
      4  C4'       93.4670   65.0660   19.6810 C.3   245  TAL245      0.1824
      5  O4'       92.9230   66.2790   20.2890 O.3   245  TAL245     -0.3135
      6  C1'       91.7450   65.9700   21.0330 C.3   245  TAL245      0.3186
      7  N9        90.5580   66.4450   20.2460 N.pl3 245  TAL245     -0.1441
      8  C8        90.2070   67.7360   20.1030 C.3   245  TAL245      0.3376
      9  N7        89.1500   67.9890   19.3830 N.2   245  TAL245     -0.2152
     10  C5        88.7360   66.7280   18.9920 C.2   245  TAL245      0.1750
     11  C4        89.5700   65.7540   19.5020 C.2   245  TAL245      0.3426
     12  N3        89.4310   64.3990   19.2980 N.2   245  TAL245     -0.0349
     13  C2        88.3630   64.1020   18.5240 C.3   245  TAL245      0.3916
     14  N1        87.4890   64.9660   17.9770 N.2   245  TAL245     -0.2213
     15  C6        87.6600   66.2890   18.2000 C.2   245  TAL245      0.0831
     16  C7        86.8100   67.1390   17.6680 C.3   245  TAL245      0.0537
     17  C2'       91.8410   64.4380   21.3700 C.3   245  TAL245      0.2570
     18  O2'       91.6400   64.0910   22.7780 O.3   245  TAL245     -0.2130
     19  C3'       93.1870   63.9690   20.7230 C.3   245  TAL245      0.2185
     20  O3'       94.2480   63.9810   21.6710 O.3   245  TAL245     -0.2174
@<TRIPOS>BOND
     1     1     2    1
     2    16    15    1
     3     3     2    1
     4    14    15    2
     5    14    13    1
     6    15    10    1
     7     2     4    1
     8    13    12    1
     9    10     9    2
    10    10    11    1
    11    12    11    2
    12     9     8    1
    13    11     7    1
    14     4     5    1
    15     4    19    1
    16     8     7    1
    17     7     6    1
    18     5     6    1
    19    19    17    1
    20    19    20    1
    21     6    17    1
    22    17    18    1
