@<TRIPOS>MOLECULE
1our_MAN_A_1.pdb
 12 12 0 0 0
SMALL
GASTEIGER

@<TRIPOS>ATOM
      1  C1        39.0730   17.1120   21.1420 C.3   301  MAN301      0.3024
      2  C2        38.7550   15.9150   22.0700 C.3   301  MAN301      0.2434
      3  C3        38.1720   14.7390   21.2750 C.3   301  MAN301      0.2199
      4  C4        36.9900   15.2100   20.4340 C.3   301  MAN301      0.2144
      5  C5        37.5060   16.3090   19.5180 C.3   301  MAN301      0.1836
      6  C6        36.5120   16.8020   18.4810 C.3   301  MAN301      0.2142
      7  O1        40.1710   16.8170   20.3520 O.3   301  MAN301     -0.1869
      8  O2        37.8300   16.2950   23.0780 O.3   301  MAN301     -0.2148
      9  O3        37.7380   13.7230   22.1650 O.3   301  MAN301     -0.2174
     10  O4        36.4560   14.1250   19.6800 O.3   301  MAN301     -0.2176
     11  O5        37.9300   17.4340   20.3250 O.3   301  MAN301     -0.3236
     12  O6        37.1530   17.6170   17.5080 O.3   301  MAN301     -0.2176
@<TRIPOS>BOND
     1    12     6    1
     2     6     5    1
     3     5    11    1
     4     5     4    1
     5    10     4    1
     6    11     1    1
     7     7     1    1
     8     4     3    1
     9     1     2    1
    10     3     2    1
    11     3     9    1
    12     2     8    1
