@<TRIPOS>MOLECULE
1out_HEM_A_1.pdb
 43 50 0 0 0
SMALL
GASTEIGER

@<TRIPOS>ATOM
      1 FE         38.0470   34.2750   35.2770 Fe    143  HEM143      0.0000
      2  CHA       38.4930   33.8450   31.9040 C.2   143  HEM143      0.0000
      3  CHB       37.6770   30.7860   35.5700 C.2   143  HEM143      0.0000
      4  CHC       36.8560   34.6030   38.4780 C.2   143  HEM143      0.0000
      5  CHD       37.5730   37.6590   34.7640 C.2   143  HEM143      0.0000
      6  NA        38.0460   32.6510   34.0100 N.2   143  HEM143      0.0000
      7  C1A       38.3100   32.6880   32.6540 C.2   143  HEM143      0.0000
      8  C2A       38.4170   31.3240   32.1310 C.2   143  HEM143      0.0000
      9  C3A       38.1930   30.5050   33.1490 C.2   143  HEM143      0.0000
     10  C4A       37.9550   31.3280   34.3410 C.2   143  HEM143      0.0000
     11  CMA       38.1720   28.9610   33.1750 C.3   143  HEM143      0.0000
     12  CAA       38.7560   31.0200   30.6630 C.3   143  HEM143      0.0000
     13  CBA       38.2680   29.7130   30.0450 C.3   143  HEM143      0.0000
     14  CGA       39.1030   29.0880   28.9480 C.2   143  HEM143      0.0000
     15  O1A       38.9520   27.8350   28.7370 O.co2 143  HEM143      0.0000
     16  O2A       39.8790   29.9050   28.3500 O.co2 143  HEM143      0.0000
     17  NB        37.3750   32.9720   36.7090 N.ar  143  HEM143      0.0000
     18  C1B       37.3870   31.5900   36.6570 C.ar  143  HEM143      0.0000
     19  C2B       37.0900   31.0570   37.9710 C.ar  143  HEM143      0.0000
     20  C3B       36.8570   32.0910   38.7840 C.ar  143  HEM143      0.0000
     21  C4B       37.0310   33.3010   38.0150 C.ar  143  HEM143      0.0000
     22  CMB       37.0310   29.5260   38.2730 C.3   143  HEM143      0.0000
     23  CAB       36.4350   32.0160   40.2600 C.2   143  HEM143      0.0000
     24  CBB       36.8480   32.8400   41.1990 C.2   143  HEM143      0.0000
     25  NC        37.3460   35.8130   36.3810 N.2   143  HEM143      0.0000
     26  C1C       36.8950   35.7390   37.6860 C.2   143  HEM143      0.0000
     27  C2C       36.4890   37.0770   38.1130 C.2   143  HEM143      0.0000
     28  C3C       36.7340   37.9290   37.1090 C.2   143  HEM143      0.0000
     29  C4C       37.2640   37.1450   36.0010 C.2   143  HEM143      0.0000
     30  CMC       35.9290   37.3730   39.5270 C.3   143  HEM143      0.0000
     31  CAC       36.5040   39.4460   36.9960 C.2   143  HEM143      0.0000
     32  CBC       36.1780   40.1840   38.0450 C.2   143  HEM143      0.0000
     33  ND        37.9610   35.4720   33.6640 N.ar  143  HEM143      0.0000
     34  C1D       37.8440   36.8600   33.6730 C.ar  143  HEM143      0.0000
     35  C2D       38.0610   37.3640   32.3300 C.ar  143  HEM143      0.0000
     36  C3D       38.3270   36.3120   31.5520 C.ar  143  HEM143      0.0000
     37  C4D       38.2860   35.1280   32.3580 C.ar  143  HEM143      0.0000
     38  CMD       37.9940   38.8710   31.9630 C.3   143  HEM143      0.0000
     39  CAD       38.5770   36.2900   30.0140 C.3   143  HEM143      0.0000
     40  CBD       37.6400   37.2590   29.2630 C.3   143  HEM143      0.0000
     41  CGD       37.2030   36.8810   27.8860 C.2   143  HEM143      0.0000
     42  O1D       37.2730   35.6530   27.6100 O.co2 143  HEM143      0.0000
     43  O2D       36.8060   37.8100   27.1200 O.co2 143  HEM143      0.0000
@<TRIPOS>BOND
     1    43    41   ar
     2    42    41   ar
     3    41    40    1
     4    16    14   ar
     5    15    14   ar
     6    14    13    1
     7    40    39    1
     8    39    36    1
     9    13    12    1
    10    12     8    1
    11    36    35   ar
    12    36    37   ar
    13     2    37    2
    14     2     7    1
    15    38    35    1
    16     8     7    1
    17     8     9    2
    18    35    34   ar
    19    37    33   ar
    20     7     6    2
    21     9    11    1
    22     9    10    1
    23    33    34   ar
    24    33     1    1
    25    34     5    2
    26     6    10    1
    27     6     1    1
    28    10     3    2
    29     5    29    1
    30     1    25    1
    31     1    17    1
    32     3    18    1
    33    29    25    2
    34    29    28    1
    35    25    26    1
    36    18    17   ar
    37    18    19   ar
    38    17    21   ar
    39    31    28    1
    40    31    32    2
    41    28    27    2
    42    26    27    1
    43    26     4    2
    44    19    22    1
    45    19    20   ar
    46    21     4    1
    47    21    20   ar
    48    27    30    1
    49    20    23    1
    50    23    24    2
