@<TRIPOS>MOLECULE
1ouu_HEM_A_1.pdb
 43 50 0 0 0
SMALL
GASTEIGER

@<TRIPOS>ATOM
      1 FE         13.7310   31.8230   26.2490 Fe    143  HEM143      0.0000
      2  CHA       12.2710   30.0020   23.7750 C.2   143  HEM143      0.0000
      3  CHB       15.7120   33.4130   23.9440 C.2   143  HEM143      0.0000
      4  CHC       15.2770   33.5590   28.7550 C.2   143  HEM143      0.0000
      5  CHD       12.0100   29.9980   28.6150 C.2   143  HEM143      0.0000
      6  NA        13.9220   31.7270   24.2730 N.ar  143  HEM143      0.0000
      7  C1A       13.2400   30.8970   23.3930 C.ar  143  HEM143      0.0000
      8  C2A       13.7410   31.1240   22.0770 C.ar  143  HEM143      0.0000
      9  C3A       14.6810   32.0760   22.1180 C.ar  143  HEM143      0.0000
     10  C4A       14.8180   32.4660   23.5080 C.ar  143  HEM143      0.0000
     11  CMA       15.5630   32.7280   21.0490 C.3   143  HEM143      0.0000
     12  CAA       13.1740   30.4160   20.8200 C.3   143  HEM143      0.0000
     13  CBA       12.0860   31.2840   20.1790 C.3   143  HEM143      0.0000
     14  CGA       11.7860   31.1060   18.7280 C.2   143  HEM143      0.0000
     15  O1A       12.0520   29.9830   18.2040 O.co2 143  HEM143      0.0000
     16  O2A       11.2820   32.1550   18.1850 O.co2 143  HEM143      0.0000
     17  NB        15.2010   33.2000   26.3370 N.2   143  HEM143      0.0000
     18  C1B       15.8850   33.7530   25.2630 C.2   143  HEM143      0.0000
     19  C2B       16.8430   34.7310   25.7510 C.2   143  HEM143      0.0000
     20  C3B       16.7370   34.7580   27.0810 C.2   143  HEM143      0.0000
     21  C4B       15.7070   33.8060   27.4730 C.2   143  HEM143      0.0000
     22  CMB       17.7710   35.5370   24.8070 C.3   143  HEM143      0.0000
     23  CAB       17.4990   35.6200   28.1050 C.2   143  HEM143      0.0000
     24  CBB       17.9520   36.8350   27.8430 C.2   143  HEM143      0.0000
     25  NC        13.6520   31.7940   28.2740 N.ar  143  HEM143      0.0000
     26  C1C       14.4010   32.5720   29.1500 C.ar  143  HEM143      0.0000
     27  C2C       14.1080   32.1750   30.5260 C.ar  143  HEM143      0.0000
     28  C3C       13.2370   31.1660   30.4820 C.ar  143  HEM143      0.0000
     29  C4C       12.9220   30.9190   29.0800 C.ar  143  HEM143      0.0000
     30  CMC       14.7400   32.8220   31.7660 C.3   143  HEM143      0.0000
     31  CAC       12.6020   30.4040   31.6370 C.2   143  HEM143      0.0000
     32  CBC       12.6820   30.8680   32.8780 C.2   143  HEM143      0.0000
     33  ND        12.3690   30.3300   26.2110 N.2   143  HEM143      0.0000
     34  C1D       11.7710   29.6930   27.3010 C.2   143  HEM143      0.0000
     35  C2D       10.9130   28.6250   26.8280 C.2   143  HEM143      0.0000
     36  C3D       11.0070   28.6200   25.4940 C.2   143  HEM143      0.0000
     37  C4D       11.9160   29.6690   25.0780 C.2   143  HEM143      0.0000
     38  CMD       10.1010   27.6880   27.7250 C.3   143  HEM143      0.0000
     39  CAD       10.3390   27.6530   24.4750 C.3   143  HEM143      0.0000
     40  CBD       11.3900   27.1030   23.4970 C.3   143  HEM143      0.0000
     41  CGD       11.2940   25.6800   23.0760 C.2   143  HEM143      0.0000
     42  O1D       11.2440   25.4670   21.8250 O.co2 143  HEM143      0.0000
     43  O2D       11.2610   24.8170   23.9700 O.co2 143  HEM143      0.0000
@<TRIPOS>BOND
     1    16    14   ar
     2    15    14   ar
     3    14    13    1
     4    13    12    1
     5    12     8    1
     6    11     9    1
     7    42    41   ar
     8     8     9   ar
     9     8     7   ar
    10     9    10   ar
    11    41    40    1
    12    41    43   ar
    13     7     2    2
    14     7     6   ar
    15    40    39    1
    16    10     3    2
    17    10     6   ar
    18     2    37    1
    19     3    18    1
    20     6     1    1
    21    39    36    1
    22    22    19    1
    23    37    36    1
    24    37    33    2
    25    18    19    1
    26    18    17    2
    27    36    35    2
    28    19    20    2
    29    33     1    1
    30    33    34    1
    31     1    17    1
    32     1    25    1
    33    17    21    1
    34    35    34    1
    35    35    38    1
    36    20    21    1
    37    20    23    1
    38    34     5    2
    39    21     4    2
    40    24    23    2
    41    25    29   ar
    42    25    26   ar
    43     5    29    1
    44     4    26    1
    45    29    28   ar
    46    26    27   ar
    47    28    27   ar
    48    28    31    1
    49    27    30    1
    50    31    32    2
