@<TRIPOS>MOLECULE
1ouy_094_A_1.pdb
 34 38 0 0 0
SMALL
GASTEIGER

@<TRIPOS>ATOM
      1  F1        37.0730   33.2760   32.3530 F     501  094501     -0.2041
      2  C1        38.2180   32.6250   32.1570 C.ar  501  094501      0.1424
      3  C2        38.5430   31.5490   33.0140 C.ar  501  094501      0.0303
      4  C3        39.7580   30.8530   32.8080 C.ar  501  094501      0.0111
      5  C4        40.6380   31.2380   31.7670 C.ar  501  094501      0.0591
      6  S1        42.1610   30.3360   31.5450 S.3   501  094501     -0.0569
      7  C5        43.4540   31.5380   31.7920 C.2   501  094501      0.1456
      8  C6        44.8030   31.3040   31.4080 C.3   501  094501      0.1000
      9  C7        45.7430   32.3490   31.6290 C.2   501  094501      0.0034
     10  C8        45.3470   33.5860   32.2450 C.2   501  094501      0.0904
     11  N1        46.2210   34.6870   32.4770 N.am  501  094501     -0.1906
     12  C9        45.7840   35.8880   33.0660 C.1   501  094501      0.2193
     13  O1        46.5150   36.8420   33.2720 O.2   501  094501     -0.2057
     14  N2        44.4820   35.9910   33.4170 N.2   501  094501     -0.1818
     15  C10       43.4750   34.9510   33.2350 C.3   501  094501      0.1988
     16  C11       43.9760   33.6940   32.5880 C.2   501  094501      0.1489
     17  N3        43.0750   32.7050   32.3870 N.2   501  094501     -0.4001
     18  C12       47.5780   34.6360   32.1330 C.ar  501  094501      0.0877
     19  C13       48.5990   34.1770   33.0440 C.ar  501  094501      0.0731
     20 CL1        48.2200   33.6570   34.6480 Cl    501  094501     -0.0809
     21  C14       49.9610   34.1470   32.6570 C.ar  501  094501      0.0127
     22  C15       50.3520   34.5530   31.3650 C.ar  501  094501      0.0018
     23  C16       49.3710   35.0070   30.4350 C.ar  501  094501      0.0127
     24  C17       48.0030   35.0420   30.8110 C.ar  501  094501      0.0731
     25 CL2        46.8530   35.6080   29.6160 Cl    501  094501     -0.0809
     26  C18       45.2450   30.0490   30.7750 C.2   501  094501     -0.0348
     27  C19       45.2790   28.7450   31.5960 C.3   501  094501      0.0413
     28  C20       45.7370   27.5000   30.7870 C.3   501  094501      0.0934
     29  N4        46.6500   27.8440   29.6650 N.3   501  094501     -0.2130
     30  C21       46.0820   28.8240   28.7090 C.3   501  094501      0.1141
     31  C22       45.6110   30.0690   29.4600 C.2   501  094501     -0.0151
     32  C23       40.2730   32.3300   30.9200 C.ar  501  094501      0.1483
     33  F2        41.0890   32.7100   29.9250 F     501  094501     -0.2036
     34  C24       39.0670   33.0370   31.1080 C.ar  501  094501      0.0598
@<TRIPOS>BOND
     1    30    31    1
     2    30    29    1
     3    31    26    2
     4    25    24    1
     5    29    28    1
     6    33    32    1
     7    23    24   ar
     8    23    22   ar
     9    26     8    1
    10    26    27    1
    11    28    27    1
    12    24    18   ar
    13    32    34   ar
    14    32     5   ar
    15    34     2   ar
    16    22    21   ar
    17     8     9    1
    18     8     7    1
    19     6     5    1
    20     6     7    1
    21     9    10    2
    22     5     4   ar
    23     7    17    2
    24    18    11    1
    25    18    19   ar
    26     2     1    1
    27     2     3   ar
    28    10    11    1
    29    10    16    1
    30    17    16    2
    31    11    12   am
    32    16    15    1
    33    21    19   ar
    34     4     3   ar
    35    19    20    1
    36    12    13    2
    37    12    14    2
    38    15    14    1
