@<TRIPOS>MOLECULE
1ov4_AE2_A_1.pdb
 21 24 0 0 0
SMALL
GASTEIGER

@<TRIPOS>ATOM
      1  C1        13.1620  -41.6100   50.1990 C.3   287  AE2287      0.0026
      2  C2        12.5990  -42.9770   50.8250 C.3   287  AE2287      0.0329
      3  C3        11.1500  -42.4480   51.2820 C.3   287  AE2287      0.1520
      4  O3        10.4530  -42.8850   52.4960 O.3   287  AE2287     -0.2232
      5  C4        10.1940  -42.5870   49.9790 C.3   287  AE2287      0.0329
      6  C5        10.6920  -41.2220   49.2420 C.3   287  AE2287      0.0025
      7  C6         9.9700  -40.8750   47.8110 C.3   287  AE2287      0.0001
      8  C7        10.3650  -39.4090   47.3430 C.3   287  AE2287      0.0000
      9  C8        11.9330  -39.4460   46.9720 C.3   287  AE2287      0.0004
     10  C9        12.7680  -39.8780   48.2760 C.3   287  AE2287      0.0000
     11  C10       12.3440  -41.2830   48.9220 C.3   287  AE2287      0.0002
     12  C11       14.3390  -39.9010   47.9420 C.3   287  AE2287      0.0004
     13  C12       14.8520  -38.5230   47.2900 C.3   287  AE2287      0.0069
     14  C13       13.9230  -37.9760   46.1320 C.3   287  AE2287      0.0515
     15  C14       12.4530  -38.0590   46.5000 C.3   287  AE2287      0.0070
     16  C15       11.7560  -37.4620   45.2470 C.3   287  AE2287      0.0082
     17  C16       12.5610  -36.1430   45.1860 C.3   287  AE2287      0.0645
     18  C17       13.9490  -36.4990   45.7600 C.2   287  AE2287      0.1498
     19  O17       14.8440  -35.7000   45.8660 O.2   287  AE2287     -0.2961
     20  C18       14.3720  -38.8120   44.8140 C.3   287  AE2287      0.0073
     21  C19       12.3730  -42.5210   47.8570 C.3   287  AE2287      0.0000
@<TRIPOS>BOND
     1    20    14    1
     2    17    16    1
     3    17    18    1
     4    16    15    1
     5    18    19    2
     6    18    14    1
     7    14    15    1
     8    14    13    1
     9    15     9    1
    10     9     8    1
    11     9    10    1
    12    13    12    1
    13     8     7    1
    14     7     6    1
    15    21    11    1
    16    12    10    1
    17    10    11    1
    18    11     6    1
    19    11     1    1
    20     6     5    1
    21     5     3    1
    22     1     2    1
    23     2     3    1
    24     3     4    1
