@<TRIPOS>MOLECULE
1ov5_2LP_A_1.pdb
 10 10 0 0 0
SMALL
GASTEIGER

@<TRIPOS>ATOM
      1  C1        27.2070    6.6180    3.3940 C.ar  403  2LP403      0.0211
      2  C2        27.5740    7.2830    4.5550 C.ar  403  2LP403      0.1920
      3  C3        26.3360    5.5300    3.4260 C.ar  403  2LP403     -0.0008
      4  C4        27.8250    7.0860    2.1010 C.3   403  2LP403      0.0555
      5  C5        27.0560    6.8530    5.7810 C.ar  403  2LP403      0.0417
      6  O6        28.4190    8.3750    4.3600 O.3   403  2LP403     -0.2869
      7  C7        25.8330    5.0960    4.6500 C.ar  403  2LP403     -0.0001
      8  C8        26.1710    5.7730    5.8240 C.ar  403  2LP403      0.0033
      9  C13       27.2670    8.4290    1.7190 C.2   403  2LP403     -0.0213
     10  C14       27.5150    8.9210    0.5010 C.2   403  2LP403     -0.0046
@<TRIPOS>BOND
     1    10     9    2
     2     9     4    1
     3     4     1    1
     4     1     3   ar
     5     1     2   ar
     6     3     7   ar
     7     6     2    1
     8     2     5   ar
     9     7     8   ar
    10     5     8   ar
