@<TRIPOS>MOLECULE
1ov6_DBM_A_1.pdb
 20 22 0 0 0
SMALL
GASTEIGER

@<TRIPOS>ATOM
      1  O5'       92.6140   69.8630   19.2820 O.3   245  DBM245     -0.2204
      2  C5'       91.6990   68.9740   18.6800 C.3   245  DBM245      0.1818
      3  C6'       90.5680   69.7690   18.0220 C.3   245  DBM245      0.0382
      4  C4'       91.2520   67.8830   19.6830 C.3   245  DBM245      0.1824
      5  O4'       89.8080   67.9190   19.9620 O.3   245  DBM245     -0.3135
      6  C1'       89.2660   66.6080   19.9190 C.3   245  DBM245      0.3186
      7  N9        88.3100   66.4840   18.7810 N.pl3 245  DBM245     -0.1441
      8  C8        87.9320   67.4700   17.8900 C.3   245  DBM245      0.3376
      9  N7        87.0690   67.0690   16.9920 N.2   245  DBM245     -0.2152
     10  C5        86.8640   65.7320   17.2810 C.2   245  DBM245      0.1750
     11  C4        87.6120   65.3460   18.3920 C.2   245  DBM245      0.3426
     12  N3        87.6770   64.1070   18.9840 N.2   245  DBM245     -0.0349
     13  C2        86.9030   63.1780   18.3750 C.3   245  DBM245      0.3916
     14  N1        86.1210   63.4570   17.2560 N.2   245  DBM245     -0.2213
     15  C6        86.0340   64.7210   16.6290 C.2   245  DBM245      0.0831
     16  C7        85.1660   64.9810   15.4010 C.3   245  DBM245      0.0537
     17  C2'       90.4600   65.6500   19.9320 C.3   245  DBM245      0.2570
     18  O2'       90.7910   65.2510   21.2700 O.3   245  DBM245     -0.2130
     19  C3'       91.5510   66.4440   19.2510 C.3   245  DBM245      0.2185
     20  O3'       92.8320   66.0290   19.7610 O.3   245  DBM245     -0.2174
@<TRIPOS>BOND
     1    16    15    1
     2    15    14    2
     3    15    10    1
     4     9    10    2
     5     9     8    1
     6    14    13    1
     7    10    11    1
     8     8     7    1
     9     3     2    1
    10    13    12    1
    11    11     7    1
    12    11    12    2
    13     2     1    1
    14     2     4    1
    15     7     6    1
    16    19     4    1
    17    19    20    1
    18    19    17    1
    19     4     5    1
    20     6    17    1
    21     6     5    1
    22    17    18    1
