@<TRIPOS>MOLECULE
1ov7_LYL_A_1.pdb
 11 11 0 0 0
SMALL
GASTEIGER

@<TRIPOS>ATOM
      1  C1        27.2790    6.5610    3.2440 C.ar  407  LYL407      0.0208
      2  C2        27.4330    7.2140    4.4630 C.ar  407  LYL407      0.1880
      3  C3        26.4960    5.4110    3.1430 C.ar  407  LYL407     -0.0008
      4  C4        28.0190    7.0940    2.0410 C.3   407  LYL407      0.0555
      5  C5        26.7960    6.6990    5.6010 C.ar  407  LYL407      0.0168
      6  C15       26.8670    7.3130    6.9770 C.3   407  LYL407      0.0344
      7  O6        28.2380    8.3330    4.4440 O.3   407  LYL407     -0.2872
      8  C7        25.8630    4.9010    4.2810 C.ar  407  LYL407     -0.0004
      9  C8        26.0000    5.5620    5.4990 C.ar  407  LYL407     -0.0011
     10  C13       27.5080    8.4680    1.6670 C.2   407  LYL407     -0.0213
     11  C14       28.0950    9.1450    0.6630 C.2   407  LYL407     -0.0046
@<TRIPOS>BOND
     1    11    10    2
     2    10     4    1
     3     4     1    1
     4     3     1   ar
     5     3     8   ar
     6     1     2   ar
     7     8     9   ar
     8     7     2    1
     9     2     5   ar
    10     9     5   ar
    11     5     6    1
