@<TRIPOS>MOLECULE
1ovd_ORO_A_1.pdb
 11 11 0 0 0
SMALL
GASTEIGER

@<TRIPOS>ATOM
      1  N1        13.6880   14.2740   19.1700 N.2   900  ORO900     -0.3044
      2  C2        13.9530   13.3990   18.0830 C.1   900  ORO900      0.3651
      3  O2        14.8130   12.5010   18.1200 O.2   900  ORO900     -0.1745
      4  N3        13.1470   13.6250   16.9560 N.2   900  ORO900     -0.2366
      5  C4        12.1490   14.6160   16.8100 C.1   900  ORO900      0.2010
      6  O4        11.5080   14.7210   15.7720 O.2   900  ORO900     -0.2129
      7  C5        11.9430   15.4750   17.9760 C.3   900  ORO900      0.2022
      8  C6        12.7090   15.2900   19.0980 C.2   900  ORO900      0.2212
      9  C7        12.5380   16.1540   20.3490 C.2   900  ORO900      0.4149
     10  O71       12.6000   17.4070   20.2110 O.co2 900  ORO900     -0.2380
     11  O72       12.3490   15.5130   21.4060 O.co2 900  ORO900     -0.2380
@<TRIPOS>BOND
     1     6     5    2
     2     5     4    2
     3     5     7    1
     4     4     2    2
     5     7     8    1
     6     2     3    2
     7     2     1    2
     8     8     1    2
     9     8     9    1
    10    10     9   ar
    11     9    11   ar
