@<TRIPOS>MOLECULE
1ovd_FMN_A_1.pdb
 31 33 0 0 0
SMALL
GASTEIGER

@<TRIPOS>ATOM
      1  N1        14.5920   15.6820   14.2170 N.2   800  FMN800     -0.2887
      2  C2        13.6530   16.5730   13.7490 C.1   800  FMN800      0.3669
      3  O2        13.1380   16.4400   12.6300 O.2   800  FMN800     -0.1744
      4  N3        13.3190   17.5970   14.5890 N.2   800  FMN800     -0.2300
      5  C4        13.8680   17.8170   15.8690 C.1   800  FMN800      0.2513
      6  O4        13.4770   18.7950   16.5360 O.2   800  FMN800     -0.2057
      7  C4A       14.8290   16.8710   16.3120 C.2   800  FMN800      0.2706
      8  N5        15.4380   17.0280   17.6090 N.2   800  FMN800     -0.3841
      9  C5A       16.5520   16.2400   17.9630 C.2   800  FMN800      0.1452
     10  C6        17.3060   16.4820   19.1210 C.2   800  FMN800      0.0252
     11  C7        18.4290   15.7140   19.5000 C.2   800  FMN800     -0.0375
     12  C7M       19.1870   16.0690   20.7810 C.3   800  FMN800      0.0268
     13  C8        18.8150   14.6250   18.6630 C.3   800  FMN800      0.0417
     14  C8M       20.0010   13.7330   18.9700 C.3   800  FMN800      0.0091
     15  C9        18.0610   14.3650   17.4870 C.2   800  FMN800     -0.0049
     16  C9A       16.9410   15.1420   17.1100 C.2   800  FMN800      0.0795
     17  N10       16.1520   14.8770   15.8670 N.pl3 800  FMN800     -0.2545
     18  C10       15.2010   15.8160   15.4780 C.2   800  FMN800      0.2449
     19  C1'       16.5650   13.8040   15.1120 C.3   800  FMN800      0.1336
     20  C2'       17.6500   14.1950   14.0580 C.3   800  FMN800      0.2048
     21  O2'       17.2060   15.2330   13.2240 O.3   800  FMN800     -0.2185
     22  C3'       18.1740   13.0000   13.2830 C.3   800  FMN800      0.2165
     23  O3'       17.0460   12.6630   12.4250 O.3   800  FMN800     -0.2175
     24  C4'       18.6820   11.7960   14.2260 C.3   800  FMN800      0.2147
     25  O4'       19.4500   12.2170   15.3170 O.3   800  FMN800     -0.2176
     26  C5'       19.2640   10.7340   13.3100 C.3   800  FMN800      0.1892
     27  O5'       20.5930   11.2970   12.9310 O.3   800  FMN800     -0.2674
     28  P         22.0280   11.0340   13.6340 P.3   800  FMN800      0.5327
     29  O1P       22.3220    9.5890   13.4770 O.3   800  FMN800     -0.1145
     30  O2P       21.9180   11.4710   15.0700 O.3   800  FMN800     -0.1145
     31  O3P       23.0650   11.8230   12.9050 O.2   800  FMN800     -0.2224
@<TRIPOS>BOND
     1    23    22    1
     2     3     2    2
     3    31    28    2
     4    27    26    1
     5    27    28    1
     6    21    20    1
     7    22    20    1
     8    22    24    1
     9    26    24    1
    10    29    28    1
    11    28    30    1
    12     2     1    2
    13     2     4    2
    14    20    19    1
    15     1    18    2
    16    24    25    1
    17     4     5    2
    18    19    17    1
    19    18    17    1
    20    18     7    1
    21    17    16    1
    22     5     7    1
    23     5     6    2
    24     7     8    2
    25    16    15    2
    26    16     9    1
    27    15    13    1
    28     8     9    2
    29     9    10    1
    30    13    14    1
    31    13    11    1
    32    10    11    2
    33    11    12    1
