@<TRIPOS>MOLECULE
1ove_358_A_1.pdb
 33 37 0 0 0
SMALL
GASTEIGER

@<TRIPOS>ATOM
      1 CL1        25.4610   11.1920   29.3270 Cl    401  358401     -0.0809
      2  C1        25.5450   10.6500   30.9290 C.ar  401  358401      0.0725
      3  C2        26.8120   10.5510   31.5650 C.ar  401  358401      0.0127
      4  C3        26.8670   10.1040   32.9290 C.ar  401  358401      0.0018
      5  C4        25.6630    9.7640   33.6410 C.ar  401  358401      0.0127
      6  C5        24.4110    9.8780   32.9570 C.ar  401  358401      0.0725
      7 CL2        22.9370    9.4910   33.7730 Cl    401  358401     -0.0809
      8  C6        24.3230   10.3190   31.5960 C.ar  401  358401      0.0791
      9  N1        23.0540   10.4210   30.9550 N.am  401  358401     -0.2360
     10  C7        22.5670    9.3050   30.2650 C.2   401  358401      0.2335
     11  O1        23.1460    8.2470   30.1610 O.2   401  358401     -0.2742
     12  C8        21.1570    9.4630   29.5990 C.3   401  358401      0.0907
     13  C9        20.1580   10.2560   30.5120 C.3   401  358401      0.0372
     14  C10       20.9360   11.6600   30.8950 C.ar  401  358401     -0.0076
     15  C11       22.3300   11.6460   31.0720 C.ar  401  358401      0.0538
     16  C12       22.9690   12.9410   31.4040 C.ar  401  358401      0.0106
     17  C13       22.2470   14.1610   31.5460 C.ar  401  358401     -0.0212
     18  C14       20.8030   14.0820   31.3600 C.ar  401  358401     -0.0044
     19  C15       20.1060   12.8540   31.0330 C.ar  401  358401     -0.0009
     20  C16       18.6070   12.9010   30.8860 C.ar  401  358401      0.0273
     21  C17       17.9290   13.5750   29.8040 C.ar  401  358401      0.0045
     22  C18       16.4870   13.5510   29.7500 C.ar  401  358401      0.0298
     23  C19       15.7560   12.8570   30.7710 C.ar  401  358401      0.1424
     24  F1        14.4260   12.8280   30.7190 F     401  358401     -0.2041
     25  C20       16.4020   12.1950   31.8430 C.ar  401  358401      0.0592
     26  C21       17.7970   12.2180   31.8960 C.ar  401  358401      0.1423
     27  F2        18.3240   11.5570   32.9500 F     401  358401     -0.2041
     28  C22       22.9910   15.5020   31.9050 C.3   401  358401      0.0252
     29  C23       22.1620   16.8360   32.2690 C.3   401  358401      0.0232
     30  C24       22.4490   18.1460   31.4380 C.3   401  358401      0.0890
     31  N2        23.7960   18.1860   30.8620 N.3   401  358401     -0.2180
     32  C25       24.0150   17.0570   29.9620 C.3   401  358401      0.0890
     33  C26       24.0860   15.7500   30.7630 C.3   401  358401      0.0232
@<TRIPOS>BOND
     1     1     2    1
     2    12    10    1
     3    12    13    1
     4    22    21   ar
     5    22    23   ar
     6    21    20   ar
     7    32    33    1
     8    32    31    1
     9    11    10    2
    10    10     9   am
    11    13    14    1
    12    24    23    1
    13    33    28    1
    14    23    25   ar
    15    31    30    1
    16    20    19    1
    17    20    26   ar
    18    14    19   ar
    19    14    15   ar
    20     2     3   ar
    21     2     8   ar
    22     9    15    1
    23     9     8    1
    24    19    18   ar
    25    15    16   ar
    26    18    17   ar
    27    16    17   ar
    28    30    29    1
    29    17    28    1
    30     3     4   ar
    31     8     6   ar
    32    25    26   ar
    33    26    27    1
    34    28    29    1
    35     4     5   ar
    36     6     5   ar
    37     6     7    1
