@<TRIPOS>MOLECULE
1ovg_MDR_A_1.pdb
 18 20 0 0 0
SMALL
GASTEIGER

@<TRIPOS>ATOM
      1  C6'       85.6140   65.7850   15.1580 C.3   245  MDR245      0.0537
      2  C6        86.4910   65.3030   16.2780 C.2   245  MDR245      0.0831
      3  N1        86.4860   63.9940   16.7680 N.2   245  MDR245     -0.2213
      4  C2        87.3150   63.6320   17.7880 C.3   245  MDR245      0.3916
      5  N3        88.1890   64.4760   18.3980 N.2   245  MDR245     -0.0349
      6  C4        88.1720   65.7910   17.8830 C.2   245  MDR245      0.3426
      7  C5        87.3590   66.2550   16.8470 C.2   245  MDR245      0.1750
      8  N7        87.5840   67.6020   16.5810 N.2   245  MDR245     -0.2152
      9  C8        88.5050   67.9040   17.4420 C.3   245  MDR245      0.3375
     10  N9        88.9290   66.9200   18.2580 N.pl3 245  MDR245     -0.1463
     11  C1'       89.9740   67.1520   19.2680 C.3   245  MDR245      0.2873
     12  C2'       90.1030   66.2590   20.5060 C.3   245  MDR245      0.1151
     13  C3'       91.0530   65.1840   20.1170 C.3   245  MDR245      0.1884
     14  O3'       91.6020   64.6130   21.3020 O.3   245  MDR245     -0.2202
     15  C4'       92.0370   65.9610   19.2690 C.3   245  MDR245      0.1824
     16  C5'       92.7520   65.0420   18.2500 C.3   245  MDR245      0.2142
     17  O5'       93.7870   65.7220   17.5100 O.3   245  MDR245     -0.2176
     18  O4'       91.2940   67.0270   18.6160 O.3   245  MDR245     -0.3154
@<TRIPOS>BOND
     1     1     2    1
     2     2     3    2
     3     2     7    1
     4     8     7    2
     5     8     9    1
     6     3     4    1
     7     7     6    1
     8     9    10    1
     9    17    16    1
    10     4     5    1
    11     6    10    1
    12     6     5    2
    13    16    15    1
    14    10    11    1
    15    18    11    1
    16    18    15    1
    17    11    12    1
    18    15    13    1
    19    13    12    1
    20    13    14    1
