@<TRIPOS>MOLECULE
1ovk_NYL_A_1.pdb
 10 10 0 0 0
SMALL
GASTEIGER

@<TRIPOS>ATOM
      1  C1        27.4060    7.0850    3.7960 C.ar  405  NYL405      0.0657
      2  C2        26.7960    5.9720    3.2080 C.ar  405  NYL405      0.0161
      3  C3        27.2410    7.3000    5.1570 C.ar  405  NYL405      0.0161
      4  N4        28.1880    7.9980    3.0530 N.pl3 405  NYL405     -0.2328
      5  C5        26.0260    5.0920    3.9720 C.ar  405  NYL405      0.0013
      6  C6        26.4770    6.4160    5.9140 C.ar  405  NYL405      0.0013
      7  C7        25.8640    5.3070    5.3370 C.ar  405  NYL405      0.0001
      8  C13       28.4190    7.7340    1.6300 C.3   405  NYL405      0.1383
      9  C15       27.9060    8.8680    0.7510 C.2   405  NYL405     -0.0030
     10  C16       27.2050    8.6250   -0.3440 C.2   405  NYL405     -0.0031
@<TRIPOS>BOND
     1    10     9    2
     2     9     8    1
     3     8     4    1
     4     4     1    1
     5     2     1   ar
     6     2     5   ar
     7     1     3   ar
     8     5     7   ar
     9     3     6   ar
    10     7     6   ar
