@<TRIPOS>MOLECULE
1ovm_TPP_A_1.pdb
 26 27 0 0 0
SMALL
GASTEIGER

@<TRIPOS>ATOM
      1  N1'       50.2980   17.7080   36.4850 N.2   600  TPP600     -0.1861
      2  C2'       49.0210   18.1390   36.6800 C.1   600  TPP600      0.0663
      3  CM2       48.8440   19.4420   37.3060 C.3   600  TPP600      0.1291
      4  N3'       47.9440   17.4170   36.3140 N.2   600  TPP600     -0.3368
      5  C4'       48.0510   16.1480   35.7070 C.2   600  TPP600      0.2292
      6  N4'       46.8990   15.5420   35.4000 N.pl3 600  TPP600     -0.0925
      7  C5'       49.4880   15.5370   35.4290 C.2   600  TPP600      0.0654
      8  C6'       50.5970   16.4820   35.9010 C.2   600  TPP600      0.1115
      9  C7'       49.7790   14.1920   34.7910 C.3   600  TPP600      0.1237
     10  N3        49.2420   13.0560   35.6930 N.pl3 600  TPP600     -0.2970
     11  C2        48.0420   12.4640   35.5370 C.3   600  TPP600      0.1543
     12  S1        47.7040   11.2530   36.6880 S.3   600  TPP600     -0.0951
     13  C5        49.2110   11.5410   37.4010 C.2   600  TPP600      0.0164
     14  C4        49.9070   12.5410   36.7380 C.2   600  TPP600      0.0279
     15  CM4       51.2670   13.0200   37.1130 C.3   600  TPP600      0.0473
     16  C6        49.6460   10.7530   38.5950 C.3   600  TPP600      0.0661
     17  C7        48.5680   10.3840   39.5080 C.3   600  TPP600      0.1544
     18  O7        49.2280   10.0430   40.7110 O.3   600  TPP600     -0.3134
     19  PA        48.3670    9.6380   41.9030 P.3   600  TPP600      0.2230
     20  O1A       47.5840   10.7240   42.6080 O.2   600  TPP600     -0.5169
     21  O2A       49.4050    8.9750   42.6500 O.3   600  TPP600     -0.4370
     22  O3A       47.5420    8.3290   41.4780 O.3   600  TPP600     -0.2261
     23  PB        47.5330    6.7370   41.3650 P.3   600  TPP600      0.5373
     24  O1B       46.5370    6.5810   42.4220 O.3   600  TPP600     -0.1143
     25  O2B       47.0160    6.4460   40.0250 O.2   600  TPP600     -0.2221
     26  O3B       48.9050    6.2120   41.5520 O.3   600  TPP600     -0.1143
@<TRIPOS>BOND
     1     9     7    1
     2     9    10    1
     3     6     5    1
     4     7     5    1
     5     7     8    2
     6    11    10    1
     7    11    12    1
     8    10    14    1
     9     5     4    2
    10     8     1    1
    11     4     2    2
    12     1     2    2
    13     2     3    1
    14    12    13    1
    15    14    15    1
    16    14    13    2
    17    13    16    1
    18    16    17    1
    19    17    18    1
    20    25    23    2
    21    18    19    1
    22    23    22    1
    23    23    26    1
    24    23    24    1
    25    22    19    1
    26    19    20    2
    27    19    21    1
