@<TRIPOS>MOLECULE
1ovp_BDF_A_1.pdb
 12 12 0 0 0
SMALL
GASTEIGER

@<TRIPOS>ATOM
      1  C1        36.7490   16.9640   18.3510 C.3   115  BDF115      0.2434
      2  C2        37.7290   16.1590   19.4310 C.3   115  BDF115      0.2807
      3  C3        37.1510   15.1330   20.3950 C.3   115  BDF115      0.2410
      4  C4        38.3300   14.7560   21.3980 C.3   115  BDF115      0.2198
      5  C5        38.9690   15.8920   22.1640 C.3   115  BDF115      0.2143
      6  C6        39.3450   16.9900   21.1410 C.3   115  BDF115      0.1803
      7  O1        37.5050   17.7740   17.3680 O.3   115  BDF115     -0.2148
      8  O2        38.8030   15.5790   18.8420 O.3   115  BDF115     -0.1896
      9  O3        36.6990   13.9250   19.6680 O.3   115  BDF115     -0.2149
     10  O4        38.0200   13.7110   22.2720 O.3   115  BDF115     -0.2174
     11  O5        37.9900   16.2530   23.2180 O.3   115  BDF115     -0.2176
     12  O6        38.1980   17.2320   20.2940 O.3   115  BDF115     -0.3254
@<TRIPOS>BOND
     1     7     1    1
     2     1     2    1
     3     8     2    1
     4     2    12    1
     5     2     3    1
     6     9     3    1
     7    12     6    1
     8     3     4    1
     9     6     5    1
    10     4     5    1
    11     4    10    1
    12     5    11    1
