@<TRIPOS>MOLECULE
1ovs_MAN_A_1.pdb
 11 11 0 0 0
SMALL
GASTEIGER

@<TRIPOS>ATOM
      1  C1        10.4570   40.7650   10.5660 C.3   201  MAN201      0.1777
      2  C2        11.4460   40.7790    9.3890 C.3   201  MAN201      0.2141
      3  C3        10.8760   40.0060    8.1960 C.3   201  MAN201      0.2173
      4  C4        10.5060   38.5940    8.6530 C.3   201  MAN201      0.2142
      5  C5         9.5120   38.6840    9.8140 C.3   201  MAN201      0.1810
      6  C6         9.0820   37.3330   10.3540 C.3   201  MAN201      0.2141
      7  O2        12.6730   40.1930    9.7960 O.3   201  MAN201     -0.2176
      8  O3        11.8450   39.9480    7.1590 O.3   201  MAN201     -0.2175
      9  O4         9.9490   37.8600    7.5740 O.3   201  MAN201     -0.2176
     10  O5        10.1030   39.4230   10.9030 O.3   201  MAN201     -0.3481
     11  O6         7.8340   37.4360   11.0250 O.3   201  MAN201     -0.2176
@<TRIPOS>BOND
     1     8     3    1
     2     9     4    1
     3     3     4    1
     4     3     2    1
     5     4     5    1
     6     2     7    1
     7     2     1    1
     8     5     6    1
     9     5    10    1
    10     6    11    1
    11     1    10    1
