@<TRIPOS>MOLECULE
1ovw_NAG_A_1.pdb
 14 14 0 0 0
SMALL
GASTEIGER

@<TRIPOS>ATOM
      1  C1        71.1250   65.3990   16.8490 C.3   399  NAG399      0.1665
      2  C2        70.3040   65.4100   15.5800 C.3   399  NAG399      0.1576
      3  C3        71.2270   65.3020   14.3700 C.3   399  NAG399      0.2069
      4  C4        72.3110   66.4010   14.4580 C.3   399  NAG399      0.2134
      5  C5        73.0150   66.3590   15.8370 C.3   399  NAG399      0.1809
      6  C6        74.0120   67.4840   15.9500 C.3   399  NAG399      0.2141
      7  C7        68.0050   64.5520   15.2460 C.2   399  NAG399      0.2420
      8  C8        67.1540   63.3370   15.3220 C.3   399  NAG399      0.0964
      9  N2        69.3150   64.3080   15.5060 N.am  399  NAG399     -0.2019
     10  O3        70.4750   65.4590   13.1650 O.3   399  NAG399     -0.2184
     11  O4        73.3360   66.1510   13.4950 O.3   399  NAG399     -0.2176
     12  O5        72.0270   66.5550   16.8270 O.3   399  NAG399     -0.3489
     13  O6        74.6130   67.5790   17.1920 O.3   399  NAG399     -0.2176
     14  O7        67.5890   65.5960   15.0260 O.2   399  NAG399     -0.2733
@<TRIPOS>BOND
     1    10     3    1
     2    11     4    1
     3     3     4    1
     4     3     2    1
     5     4     5    1
     6    14     7    2
     7     7     8    1
     8     7     9   am
     9     9     2    1
    10     2     1    1
    11     5     6    1
    12     5    12    1
    13     6    13    1
    14    12     1    1
