@<TRIPOS>MOLECULE
1ovw_DP5_A_1.pdb
 34 36 0 0 0
SMALL
GASTEIGER

@<TRIPOS>ATOM
      1  C1A       47.7860   70.0880   26.3370 C.3   401  DP5401      0.1955
      2  C2A       48.6420   71.3320   26.4830 C.3   401  DP5401      0.2202
      3  C3A       48.9410   71.9320   25.1070 C.3   401  DP5401      0.1986
      4  C4A       49.5460   70.8470   24.2110 C.3   401  DP5401      0.1206
      5  C5A       48.6230   69.6530   24.0840 C.3   401  DP5401      0.1624
      6  C6A       49.1900   68.5310   23.2930 C.3   401  DP5401      0.2124
      7  O2A       47.8750   72.2760   27.2320 O.3   401  DP5401     -0.2168
      8  O3A       49.7050   73.0670   25.3400 O.3   401  DP5401     -0.2193
      9  S4A       49.9910   71.3920   22.5040 S.3   401  DP5401     -0.0777
     10  O5A       48.3410   69.1290   25.3980 O.3   401  DP5401     -0.3415
     11  O6A       50.5500   68.2970   23.5580 O.3   401  DP5401     -0.2177
     12  C1B       44.2590   67.4720   29.5090 C.3   401  DP5401      0.1955
     13  C2B       45.3920   66.4800   29.4150 C.3   401  DP5401      0.2202
     14  C3B       46.6700   67.2270   29.0450 C.3   401  DP5401      0.1978
     15  C4B       46.2730   68.5390   28.2820 C.3   401  DP5401      0.1127
     16  C5B       45.7050   69.4420   29.3420 C.3   401  DP5401      0.1617
     17  C6B       45.3380   70.7710   28.8600 C.3   401  DP5401      0.2124
     18  O2B       45.6050   65.7710   30.6020 O.3   401  DP5401     -0.2168
     19  O3B       47.5130   66.4430   28.2670 O.3   401  DP5401     -0.2193
     20  S4B       47.9070   69.3120   27.9770 S.3   401  DP5401     -0.1050
     21  O5B       44.5190   68.8190   29.8380 O.3   401  DP5401     -0.3415
     22  O6B       44.7680   70.7830   27.6200 O.3   401  DP5401     -0.2177
     23  C1C       40.5880   64.2370   27.6190 C.3   401  DP5401      0.2050
     24  C2C       40.8360   64.7810   28.9660 C.3   401  DP5401      0.2210
     25  C3C       41.5250   66.1670   28.7630 C.3   401  DP5401      0.1978
     26  C4C       42.7050   65.8940   27.8560 C.3   401  DP5401      0.1127
     27  C5C       42.2970   65.3580   26.5180 C.3   401  DP5401      0.1617
     28  C6C       43.3280   65.2080   25.4520 C.3   401  DP5401      0.2124
     29  S1C       39.5310   62.8040   27.6250 S.3   401  DP5401     -0.0481
     30  O2C       39.6210   65.0070   29.6590 O.3   401  DP5401     -0.2168
     31  O3C       41.7420   66.6470   30.0470 O.3   401  DP5401     -0.2193
     32  S4C       43.6870   67.4410   27.7280 S.3   401  DP5401     -0.1050
     33  O5C       41.7370   64.0260   26.8310 O.3   401  DP5401     -0.3407
     34  O6C       44.6070   64.7190   25.7920 O.3   401  DP5401     -0.2177
@<TRIPOS>BOND
     1     9     4    1
     2     6    11    1
     3     6     5    1
     4     5     4    1
     5     5    10    1
     6     4     3    1
     7     3     8    1
     8     3     2    1
     9    10     1    1
    10    28    34    1
    11    28    27    1
    12     1     2    1
    13     1    20    1
    14     2     7    1
    15    27    33    1
    16    27    26    1
    17    33    23    1
    18    23    29    1
    19    23    24    1
    20    22    17    1
    21    32    26    1
    22    32    12    1
    23    26    25    1
    24    20    15    1
    25    19    14    1
    26    15    14    1
    27    15    16    1
    28    25    24    1
    29    25    31    1
    30    17    16    1
    31    24    30    1
    32    14    13    1
    33    16    21    1
    34    13    12    1
    35    13    18    1
    36    12    21    1
