@<TRIPOS>MOLECULE
1ow0_GAL_A_1.pdb
 11 11 0 0 0
SMALL
GASTEIGER

@<TRIPOS>ATOM
      1  C1        26.6020   60.1850   20.7880 C.3   506  GAL506      0.1777
      2  C2        26.8400   60.7710   22.1940 C.3   506  GAL506      0.2141
      3  C3        27.1480   59.6680   23.2330 C.3   506  GAL506      0.2173
      4  C4        26.1790   58.4780   23.1040 C.3   506  GAL506      0.2142
      5  C5        25.9760   58.0390   21.6510 C.3   506  GAL506      0.1810
      6  C6        24.8610   57.0130   21.5490 C.3   506  GAL506      0.2141
      7  O2        27.9270   61.6850   22.1470 O.3   506  GAL506     -0.2176
      8  O3        27.0110   60.2100   24.5730 O.3   506  GAL506     -0.2175
      9  O4        24.9200   58.8110   23.6760 O.3   506  GAL506     -0.2176
     10  O5        25.5880   59.1680   20.8410 O.3   506  GAL506     -0.3481
     11  O6        24.4120   56.8650   20.2120 O.3   506  GAL506     -0.2176
@<TRIPOS>BOND
     1    11     6    1
     2     1    10    1
     3     1     2    1
     4    10     5    1
     5     6     5    1
     6     5     4    1
     7     7     2    1
     8     2     3    1
     9     4     3    1
    10     4     9    1
    11     3     8    1
