@<TRIPOS>MOLECULE
1ow0_BMA_A_1.pdb
 11 11 0 0 0
SMALL
GASTEIGER

@<TRIPOS>ATOM
      1  C1        27.4430   64.3000   13.7110 C.3   504  BMA504      0.1777
      2  C2        27.5060   62.7650   13.4690 C.3   504  BMA504      0.2141
      3  C3        26.2160   62.2240   12.7910 C.3   504  BMA504      0.2173
      4  C4        25.7470   63.1260   11.6310 C.3   504  BMA504      0.2142
      5  C5        25.7740   64.6280   12.0050 C.3   504  BMA504      0.1810
      6  C6        24.4390   65.3260   11.7910 C.3   504  BMA504      0.2141
      7  O2        27.8310   62.0110   14.6750 O.3   504  BMA504     -0.2176
      8  O3        25.1660   62.0980   13.7350 O.3   504  BMA504     -0.2175
      9  O4        26.5540   62.9040   10.4840 O.3   504  BMA504     -0.2176
     10  O5        26.1440   64.8060   13.3960 O.3   504  BMA504     -0.3481
     11  O6        24.3570   66.5330   12.5360 O.3   504  BMA504     -0.2176
@<TRIPOS>BOND
     1     9     4    1
     2     4     5    1
     3     4     3    1
     4     6     5    1
     5     6    11    1
     6     5    10    1
     7     3     2    1
     8     3     8    1
     9    10     1    1
    10     2     1    1
    11     2     7    1
