@<TRIPOS>MOLECULE
1ow2_EIP_A_1.pdb
 15 14 0 0 0
SMALL
GASTEIGER

@<TRIPOS>ATOM
      1  O1         8.9540    2.1650   10.8470 O.3   301  EIP301     -0.1143
      2  O2        11.1280    2.6150   10.1100 O.2   301  EIP301     -0.2221
      3  O3        10.8180    2.1970   12.3760 O.3   301  EIP301     -0.1143
      4  P4        10.2850    2.8310   11.1210 P.3   301  EIP301      0.5373
      5  O5         9.9950    4.2930   11.4620 O.3   301  EIP301     -0.2261
      6  O6        11.7680    4.4900   13.0700 O.3   301  EIP301     -0.4370
      7  O7        11.6400    6.0290   11.2850 O.2   301  EIP301     -0.5169
      8  P8        10.8950    5.3070   12.1510 P.3   301  EIP301      0.2230
      9  O9        10.0610    6.0830   13.1450 O.3   301  EIP301     -0.3138
     10  C10        9.1350    7.0760   12.6970 C.3   301  EIP301      0.1492
     11  C11        8.5030    7.7910   13.9140 C.3   301  EIP301      0.0351
     12  C12        8.3610    9.3570   13.5820 C.3   301  EIP301      0.0355
     13  C13        9.9150    9.7310   13.4020 C.3   301  EIP301      0.1821
     14  C14        8.1460    9.9200   15.0490 C.3   301  EIP301      0.0028
     15  O15       10.0890    9.7510   11.9800 O.3   301  EIP301     -0.2204
@<TRIPOS>BOND
     1     2     4    2
     2     1     4    1
     3     4     5    1
     4     4     3    1
     5     7     8    2
     6     5     8    1
     7    15    13    1
     8     8     6    1
     9     8     9    1
    10    10     9    1
    11    10    11    1
    12    13    12    1
    13    12    11    1
    14    12    14    1
