@<TRIPOS>MOLECULE
1ow4_2AN_A_1.pdb
 21 23 0 0 0
SMALL
GASTEIGER

@<TRIPOS>ATOM
      1  C1       -11.2190    8.1300   -6.8530 C.ar  1004  2AN1004     0.0717
      2  C2       -12.1670    7.3340   -7.4710 C.ar  1004  2AN1004     0.0165
      3  C3       -12.1390    5.9520   -7.3640 C.ar  1004  2AN1004     0.0013
      4  C4       -11.1450    5.3120   -6.6180 C.ar  1004  2AN1004     0.0001
      5  C5       -10.1770    6.0780   -5.9820 C.ar  1004  2AN1004     0.0025
      6  C6        -9.2180    5.3650   -5.2580 C.ar  1004  2AN1004     0.0001
      7  C7        -8.2280    6.0500   -4.5950 C.ar  1004  2AN1004     0.0013
      8  C8        -8.1690    7.4400   -4.6640 C.ar  1004  2AN1004     0.0189
      9  N        -11.1900    9.4720   -7.0130 N.pl3 1004  2AN1004    -0.2124
     10  S         -8.7520    9.9830   -5.3750 S.3   1004  2AN1004     0.0421
     11  C9        -9.1270    8.1760   -5.3790 C.ar  1004  2AN1004     0.1135
     12  C10      -10.1770    7.4910   -6.0770 C.ar  1004  2AN1004     0.0329
     13  C11      -11.7270   10.4460   -7.7430 C.ar  1004  2AN1004     0.0705
     14  C12      -11.7790   11.7050   -7.1110 C.ar  1004  2AN1004     0.0165
     15  C13      -12.3680   12.8320   -7.7210 C.ar  1004  2AN1004     0.0013
     16  C14      -12.9040   12.6620   -8.9910 C.ar  1004  2AN1004     0.0001
     17  C15      -12.8360   11.4330   -9.6310 C.ar  1004  2AN1004     0.0013
     18  C16      -12.2770   10.3110   -9.0030 C.ar  1004  2AN1004     0.0165
     19  O1        -8.8720   10.4270   -6.8150 O.3   1004  2AN1004    -0.0650
     20  O2        -9.6640   10.7630   -4.4870 O.3   1004  2AN1004    -0.0650
     21  O3        -7.3150   10.1290   -5.0090 O.3   1004  2AN1004    -0.0650
@<TRIPOS>BOND
     1    17    18   ar
     2    17    16   ar
     3    18    13   ar
     4    16    15   ar
     5    13    14   ar
     6    13     9    1
     7    15    14   ar
     8     2     3   ar
     9     2     1   ar
    10     3     4   ar
    11     9     1    1
    12     1    12   ar
    13    19    10    1
    14     4     5   ar
    15    12     5   ar
    16    12    11   ar
    17     5     6   ar
    18    11    10    1
    19    11     8   ar
    20    10    21    1
    21    10    20    1
    22     6     7   ar
    23     8     7   ar
