@<TRIPOS>MOLECULE
1owb_NAD_A_1.pdb
 44 48 0 0 0
SMALL
GASTEIGER

@<TRIPOS>ATOM
      1  PA        68.5090   37.1250   64.0230 P.3   3000  NAD3000     0.2189
      2  O1A       67.7010   38.4230   64.0630 O.3   3000  NAD3000    -0.4371
      3  O2A       68.5300   36.5640   62.5930 O.2   3000  NAD3000    -0.5170
      4  O5B       69.8920   37.2100   64.6100 O.3   3000  NAD3000    -0.3112
      5  C5B       70.1450   37.7340   65.9380 C.3   3000  NAD3000     0.1813
      6  C4B       70.8580   36.6910   66.7730 C.3   3000  NAD3000     0.1821
      7  O4B       71.0850   37.2990   68.0880 O.3   3000  NAD3000    -0.3135
      8  C3B       70.0200   35.4520   67.0320 C.3   3000  NAD3000     0.2184
      9  O3B       70.8950   34.2920   67.0060 O.3   3000  NAD3000    -0.2174
     10  C2B       69.3640   35.7910   68.3910 C.3   3000  NAD3000     0.2570
     11  O2B       69.0460   34.6230   69.1720 O.3   3000  NAD3000    -0.2130
     12  C1B       70.4120   36.6350   69.0960 C.3   3000  NAD3000     0.3186
     13  N9A       69.8720   37.7110   69.8910 N.pl3 3000  NAD3000    -0.1439
     14  C8A       68.9880   38.6920   69.5270 C.3   3000  NAD3000     0.3377
     15  N7A       68.7120   39.5560   70.5220 N.2   3000  NAD3000    -0.2095
     16  C5A       69.4720   39.0840   71.5740 C.2   3000  NAD3000     0.2526
     17  C6A       69.6240   39.5540   72.8860 C.2   3000  NAD3000     0.4393
     18  N6A       68.9950   40.6240   73.3390 N.pl3 3000  NAD3000     0.2180
     19  N1A       70.4640   38.8530   73.7040 N.2   3000  NAD3000     0.0021
     20  C2A       71.0980   37.7480   73.1920 C.3   3000  NAD3000     0.5254
     21  N3A       71.0140   37.2460   71.9850 N.2   3000  NAD3000    -0.0055
     22  C4A       70.1840   37.9530   71.2080 C.2   3000  NAD3000     0.3518
     23  O3        67.8160   36.0620   64.9900 O.3   3000  NAD3000    -0.2703
     24  PN        66.2740   36.0510   65.6760 P.3   3000  NAD3000     0.2189
     25  O1N       66.3080   36.5170   67.1400 O.3   3000  NAD3000    -0.4371
     26  O2N       65.2780   36.6610   64.9230 O.2   3000  NAD3000    -0.5170
     27  O5D       66.1610   34.4580   65.6470 O.3   3000  NAD3000    -0.3112
     28  C5D       66.1330   33.7320   66.9050 C.3   3000  NAD3000     0.1813
     29  C4D       65.9370   32.2420   66.6840 C.3   3000  NAD3000     0.1799
     30  O4D       64.8740   31.8730   67.6210 O.3   3000  NAD3000    -0.3327
     31  C3D       65.3370   31.7920   65.3380 C.3   3000  NAD3000     0.2158
     32  O3D       65.5940   30.4230   64.9620 O.3   3000  NAD3000    -0.2175
     33  C2D       63.8340   32.1310   65.5130 C.3   3000  NAD3000     0.2309
     34  O2D       63.0300   31.2750   64.6810 O.3   3000  NAD3000    -0.2158
     35  C1D       63.6110   31.8680   66.9570 C.3   3000  NAD3000     0.2263
     36  N1N       62.7160   32.8460   67.5800 N.pl3 3000  NAD3000    -0.2787
     37  C2N       61.9390   32.2080   68.4340 C.3   3000  NAD3000     0.1244
     38  C3N       61.0460   32.8950   69.0190 C.2   3000  NAD3000     0.0544
     39  C7N       60.0900   32.4130   69.9810 C.2   3000  NAD3000     0.2818
     40  O7N       59.3280   33.2880   70.4000 O.2   3000  NAD3000    -0.2670
     41  N7N       60.0490   31.1080   70.3750 N.am  3000  NAD3000    -0.0839
     42  C4N       60.8050   34.3530   68.8290 C.2   3000  NAD3000     0.0033
     43  C5N       61.7060   34.9110   67.8990 C.2   3000  NAD3000     0.0157
     44  C6N       62.6880   34.2170   67.2360 C.2   3000  NAD3000     0.0633
@<TRIPOS>BOND
     1     3     1    2
     2     1     2    1
     3     1     4    1
     4     1    23    1
     5     4     5    1
     6    34    33    1
     7    26    24    2
     8    32    31    1
     9    23    24    1
    10    31    33    1
    11    31    29    1
    12    33    35    1
    13    27    24    1
    14    27    28    1
    15    24    25    1
    16     5     6    1
    17    29    28    1
    18    29    30    1
    19     6     8    1
    20     6     7    1
    21    35    36    1
    22    35    30    1
    23     9     8    1
    24     8    10    1
    25    44    36    1
    26    44    43    2
    27    36    37    1
    28    43    42    1
    29     7    12    1
    30    10    12    1
    31    10    11    1
    32    37    38    1
    33    42    38    2
    34    38    39    1
    35    12    13    1
    36    14    13    1
    37    14    15    1
    38    13    22    1
    39    39    41   am
    40    39    40    2
    41    15    16    2
    42    22    16    1
    43    22    21    2
    44    16    17    1
    45    21    20    1
    46    17    18    1
    47    17    19    2
    48    20    19    1
