@<TRIPOS>MOLECULE
1owd_497_A_1.pdb
 28 31 0 0 0
SMALL
GASTEIGER

@<TRIPOS>ATOM
      1  C47       29.9610   10.5100   33.5110 C.3   1001  4971001     0.0004
      2  C45       28.5190   10.8440   33.1590 C.3   1001  4971001     0.0058
      3  C39       28.3610   10.9620   31.6530 C.3   1001  4971001     0.0395
      4  C38       28.8240    9.8200   30.7370 C.3   1001  4971001     0.0934
      5  N37       29.2180   10.4030   29.4480 N.3   1001  4971001    -0.2129
      6  C36       28.2460   11.2590   28.7480 C.3   1001  4971001     0.1147
      7  C26       27.3310   12.0620   29.6560 C.ar  1001  4971001    -0.0086
      8  C27       27.2540   11.7970   31.0550 C.ar  1001  4971001    -0.0224
      9  C28       26.1890   12.3400   31.8040 C.ar  1001  4971001     0.0121
     10  C22       25.3520   13.3140   31.2130 C.ar  1001  4971001     0.0733
     11  N21       24.2760   13.8910   31.8340 N.am  1001  4971001    -0.1755
     12  C20       24.3750   14.6380   32.9380 C.2   1001  4971001     0.2690
     13  O23       25.3290   14.4670   33.6600 O.2   1001  4971001    -0.2680
     14  C11       23.3220   15.6590   33.2280 C.ar  1001  4971001     0.0554
     15  C12       23.6510   16.7190   34.1180 C.ar  1001  4971001     0.0046
     16  C13       22.7050   17.6950   34.4790 C.ar  1001  4971001     0.0002
     17  C4        21.4010   17.6640   33.9270 C.ar  1001  4971001     0.0003
     18  C5        20.4950   18.7210   34.1490 C.ar  1001  4971001     0.0080
     19  C6        19.2050   18.7230   33.5720 C.ar  1001  4971001     0.0975
     20  C1        18.8770   17.7140   32.6360 C.ar  1001  4971001     0.0080
     21  C2        19.7930   16.6790   32.3730 C.ar  1001  4971001     0.0003
     22  C3        21.0590   16.6360   33.0030 C.ar  1001  4971001     0.0002
     23  C10       22.0140   15.6320   32.6690 C.ar  1001  4971001     0.0046
     24  C17       18.2110   19.7350   33.9890 C.2   1001  4971001     0.4766
     25  N18       18.5880   20.9290   34.4080 N.pl3 1001  4971001     0.2047
     26  N19       16.9240   19.4960   33.9780 N.pl3 1001  4971001     0.2047
     27  C24       25.6060   13.7230   29.8970 C.ar  1001  4971001     0.0163
     28  C25       26.5440   13.0830   29.0890 C.ar  1001  4971001    -0.0018
@<TRIPOS>BOND
     1     6     5    1
     2     6     7    1
     3    28     7   ar
     4    28    27   ar
     5     5     4    1
     6     7     8   ar
     7    27    10   ar
     8     4     3    1
     9     8     3    1
    10     8     9   ar
    11    10     9   ar
    12    10    11    1
    13     3     2    1
    14    11    12   am
    15    21    20   ar
    16    21    22   ar
    17    20    19   ar
    18    23    22   ar
    19    23    14   ar
    20    12    14    1
    21    12    13    2
    22    22    17   ar
    23     2     1    1
    24    14    15   ar
    25    19    24    1
    26    19    18   ar
    27    17    18   ar
    28    17    16   ar
    29    26    24    2
    30    24    25    1
    31    15    16   ar
