@<TRIPOS>MOLECULE
1owe_675_A_1.pdb
 22 24 0 0 0
SMALL
GASTEIGER

@<TRIPOS>ATOM
      1  N18       16.9100   19.4810   33.7500 N.pl3 1001  6751001     0.2047
      2  C17       18.2190   19.7910   33.9580 C.2   1001  6751001     0.4766
      3  N19       18.6640   20.9890   34.4480 N.pl3 1001  6751001     0.2047
      4  C12       19.1860   18.7150   33.5770 C.ar  1001  6751001     0.0975
      5  C11       18.9160   17.6690   32.6200 C.ar  1001  6751001     0.0080
      6  C10       19.7700   16.5850   32.2740 C.ar  1001  6751001     0.0003
      7  C2        21.0350   16.5470   32.9080 C.ar  1001  6751001     0.0002
      8  C1        21.9800   15.5860   32.5700 C.ar  1001  6751001     0.0046
      9  C6        23.3190   15.5600   33.1020 C.ar  1001  6751001     0.0554
     10  C5        23.5420   16.6870   34.0250 C.ar  1001  6751001     0.0046
     11  C4        22.6570   17.6790   34.3910 C.ar  1001  6751001     0.0002
     12  C3        21.4130   17.5940   33.8380 C.ar  1001  6751001     0.0003
     13  C13       20.5120   18.5880   34.1190 C.ar  1001  6751001     0.0080
     14  C23       24.3420   14.5750   32.7800 C.2   1001  6751001     0.2690
     15  O36       25.1790   14.3330   33.6420 O.2   1001  6751001    -0.2680
     16  N24       24.3970   14.1850   31.4660 N.am  1001  6751001    -0.1754
     17  C25       25.3720   13.3340   30.9910 C.ar  1001  6751001     0.0737
     18  C30       25.8210   13.7000   29.7180 C.ar  1001  6751001     0.0166
     19  C29       26.7490   12.8940   29.0580 C.ar  1001  6751001     0.0013
     20  C28       27.2650   11.7530   29.7480 C.ar  1001  6751001     0.0001
     21  C27       26.9000   11.4270   31.0520 C.ar  1001  6751001     0.0013
     22  C26       25.9430   12.2340   31.6880 C.ar  1001  6751001     0.0166
@<TRIPOS>BOND
     1    19    18   ar
     2    19    20   ar
     3    18    17   ar
     4    20    21   ar
     5    17    16    1
     6    17    22   ar
     7    21    22   ar
     8    16    14   am
     9     6     5   ar
    10     6     7   ar
    11     8     7   ar
    12     8     9   ar
    13     5     4   ar
    14    14     9    1
    15    14    15    2
    16     7    12   ar
    17     9    10   ar
    18     4     2    1
    19     4    13   ar
    20     1     2    2
    21    12    13   ar
    22    12    11   ar
    23     2     3    1
    24    10    11   ar
