@<TRIPOS>MOLECULE
1owh_239_A_1.pdb
 24 26 0 0 0
SMALL
GASTEIGER

@<TRIPOS>ATOM
      1  N18       17.0260   19.5340   33.8170 N.pl3 1001  2391001     0.2047
      2  C17       18.3420   19.7790   34.0210 C.2   1001  2391001     0.4766
      3  N19       18.8990   20.9440   34.4160 N.pl3 1001  2391001     0.2047
      4  C12       19.2400   18.6840   33.6740 C.ar  1001  2391001     0.0975
      5  C13       20.5630   18.5360   34.1950 C.ar  1001  2391001     0.0080
      6  C3        21.4750   17.5390   33.8390 C.ar  1001  2391001     0.0003
      7  C4        22.6920   17.4620   34.5200 C.ar  1001  2391001     0.0002
      8  C5        23.5100   16.3800   34.1390 C.ar  1001  2391001     0.0046
      9  C6        23.3010   15.4310   33.1170 C.ar  1001  2391001     0.0554
     10  C1        22.0280   15.5900   32.5470 C.ar  1001  2391001     0.0046
     11  C2        21.0740   16.5880   32.8630 C.ar  1001  2391001     0.0002
     12  C10       19.8070   16.5780   32.2680 C.ar  1001  2391001     0.0003
     13  C11       18.9440   17.6150   32.6920 C.ar  1001  2391001     0.0080
     14  C23       24.3060   14.4770   32.6780 C.2   1001  2391001     0.2690
     15  O35       25.1000   14.1030   33.5500 O.2   1001  2391001    -0.2680
     16  N24       24.4480   14.1640   31.3640 N.am  1001  2391001    -0.1754
     17  C25       25.3860   13.3270   30.7300 C.ar  1001  2391001     0.0737
     18  C30       25.9770   12.2390   31.4150 C.ar  1001  2391001     0.0163
     19  C29       26.9420   11.4730   30.7230 C.ar  1001  2391001    -0.0015
     20  C28       27.1990   11.7810   29.3630 C.ar  1001  2391001    -0.0031
     21  C27       26.5550   12.8220   28.6630 C.ar  1001  2391001    -0.0015
     22  C26       25.7090   13.6600   29.4110 C.ar  1001  2391001     0.0163
     23  C37       28.2610   10.9740   28.6540 C.3   1001  2391001     0.1356
     24  N38       29.6080   11.4260   28.9550 N.3   1001  2391001    -0.1262
@<TRIPOS>BOND
     1    23    24    1
     2    23    20    1
     3    21    20   ar
     4    21    22   ar
     5    20    19   ar
     6    22    17   ar
     7    19    18   ar
     8    17    16    1
     9    17    18   ar
    10    16    14   am
    11    12    13   ar
    12    12    11   ar
    13    10    11   ar
    14    10     9   ar
    15    14     9    1
    16    14    15    2
    17    13     4   ar
    18    11     6   ar
    19     9     8   ar
    20     4     2    1
    21     4     5   ar
    22     1     2    2
    23     6     5   ar
    24     6     7   ar
    25     2     3    1
    26     8     7   ar
