@<TRIPOS>MOLECULE
1owi_426_A_1.pdb
 28 31 0 0 0
SMALL
GASTEIGER

@<TRIPOS>ATOM
      1  N18       17.1460   19.5630   34.0330 N.pl3 245  426245      0.2047
      2  C17       18.4370   19.6740   34.0900 C.2   245  426245      0.4766
      3  N19       18.9670   20.8550   34.4390 N.pl3 245  426245      0.2047
      4  C4        19.2930   18.5410   33.7320 C.ar  245  426245      0.0975
      5  C5        20.6190   18.5020   34.2910 C.ar  245  426245      0.0080
      6  C6        21.5790   17.5160   33.9250 C.ar  245  426245      0.0003
      7  C10       22.8780   17.5500   34.5090 C.ar  245  426245      0.0002
      8  C11       23.8840   16.6040   34.1530 C.ar  245  426245      0.0046
      9  C12       23.6000   15.5920   33.1820 C.ar  245  426245      0.0554
     10  C13       22.2620   15.5510   32.5840 C.ar  245  426245      0.0046
     11  C1        21.2320   16.4980   32.9410 C.ar  245  426245      0.0002
     12  C2        19.8860   16.5220   32.3900 C.ar  245  426245      0.0003
     13  C3        18.9060   17.5200   32.7710 C.ar  245  426245      0.0080
     14  C20       24.7200   14.6820   32.8550 C.2   245  426245      0.2690
     15  O23       25.6970   14.5930   33.5810 O.2   245  426245     -0.2680
     16  N21       24.6130   13.9590   31.6980 N.am  245  426245     -0.1753
     17  C22       25.5790   13.1240   31.1960 C.ar  245  426245      0.0767
     18  C28       25.9280   11.9100   31.8250 C.ar  245  426245      0.0168
     19  C27       26.9330   11.0850   31.2780 C.ar  245  426245      0.0044
     20  C26       27.5790   11.4640   30.0960 C.ar  245  426245      0.0370
     21  C25       27.2350   12.6810   29.4580 C.ar  245  426245      0.1397
     22  O33       27.8420   13.2250   28.3150 O.3   245  426245     -0.4791
     23  C34       28.5880   12.3390   27.4780 C.3   245  426245      0.1659
     24  C38       27.8360   12.1370   26.1280 C.3   245  426245      0.0435
     25  C37       28.6730   12.8340   25.0470 C.3   245  426245      0.0038
     26  C36       29.9700   13.3800   25.7140 C.3   245  426245      0.0038
     27  C35       29.9990   12.9220   27.1930 C.3   245  426245      0.0435
     28  C24       26.2310   13.4860   30.0120 C.ar  245  426245      0.0535
@<TRIPOS>BOND
     1    25    26    1
     2    25    24    1
     3    26    27    1
     4    24    23    1
     5    27    23    1
     6    23    22    1
     7    22    21    1
     8    21    28   ar
     9    21    20   ar
    10    28    17   ar
    11    20    19   ar
    12    17    16    1
    13    17    18   ar
    14    19    18   ar
    15    16    14   am
    16    12    13   ar
    17    12    11   ar
    18    10    11   ar
    19    10     9   ar
    20    13     4   ar
    21    14     9    1
    22    14    15    2
    23    11     6   ar
    24     9     8   ar
    25     4     2    1
    26     4     5   ar
    27     6     5   ar
    28     6     7   ar
    29     1     2    2
    30     2     3    1
    31     8     7   ar
