@<TRIPOS>MOLECULE
1owj_155_A_1.pdb
 29 32 0 0 0
SMALL
GASTEIGER

@<TRIPOS>ATOM
      1  N18       16.9940   19.3640   33.9700 N.pl3 245  155245      0.2047
      2  C17       18.3390   19.5220   33.8470 C.2   245  155245      0.4766
      3  N19       18.8700   20.7450   34.0460 N.pl3 245  155245      0.2047
      4  C12       19.2140   18.3740   33.5180 C.ar  245  155245      0.0975
      5  C13       20.5230   18.4320   34.0230 C.ar  245  155245      0.0080
      6  C4        21.4790   17.4170   33.7980 C.ar  245  155245      0.0003
      7  C5        22.8110   17.6010   34.2710 C.ar  245  155245      0.0002
      8  C6        23.8200   16.6450   33.9990 C.ar  245  155245      0.0046
      9  C1        23.5200   15.4740   33.2540 C.ar  245  155245      0.0554
     10  C2        22.1640   15.2740   32.7570 C.ar  245  155245      0.0046
     11  C3        21.1230   16.2440   33.0190 C.ar  245  155245      0.0002
     12  C10       19.7810   16.1780   32.5020 C.ar  245  155245      0.0003
     13  C11       18.8270   17.2240   32.7360 C.ar  245  155245      0.0080
     14  C20       24.6030   14.5240   33.1280 C.2   245  155245      0.2690
     15  O21       25.6470   14.5040   33.7740 O.2   245  155245     -0.2680
     16  N22       24.3870   13.6500   32.2380 N.am  245  155245     -0.1754
     17  C23       25.4120   13.3340   31.4890 C.ar  245  155245      0.0737
     18  C28       26.2970   12.3250   31.8630 C.ar  245  155245      0.0175
     19  C27       27.1750   11.8500   30.8780 C.ar  245  155245      0.0105
     20  C26       27.2290   12.4480   29.5920 C.ar  245  155245     -0.0190
     21  C25       26.4010   13.5300   29.2700 C.ar  245  155245     -0.0028
     22  C24       25.4790   13.9600   30.2360 C.ar  245  155245      0.0163
     23  C32       28.1780   11.8880   28.5710 C.3   245  155245      0.0526
     24  C33       28.3580   10.3340   28.6940 C.3   245  155245      0.1298
     25  N34       28.5270    9.9480   30.0860 N.2   245  155245     -0.2744
     26  C35       27.9770   10.6620   31.1000 C.2   245  155245      0.0530
     27  C40       28.1660   10.1520   32.4700 C.3   245  155245      0.0399
     28  C41       29.5320   10.6490   32.9620 C.3   245  155245      0.0063
     29  C45       27.8690    8.6460   32.3810 C.3   245  155245      0.0063
@<TRIPOS>BOND
     1    23    24    1
     2    23    20    1
     3    24    25    1
     4    21    20   ar
     5    21    22   ar
     6    20    19   ar
     7    25    26    2
     8    22    17   ar
     9    19    26    1
    10    19    18   ar
    11    26    27    1
    12    17    18   ar
    13    17    16    1
    14    16    14   am
    15    29    27    1
    16    27    28    1
    17    12    13   ar
    18    12    11   ar
    19    13     4   ar
    20    10    11   ar
    21    10     9   ar
    22    11     6   ar
    23    14     9    1
    24    14    15    2
    25     9     8   ar
    26     4     2    1
    27     4     5   ar
    28     6     5   ar
    29     6     7   ar
    30     2     1    2
    31     2     3    1
    32     8     7   ar
