@<TRIPOS>MOLECULE
1owk_303_A_1.pdb
 29 32 0 0 0
SMALL
GASTEIGER

@<TRIPOS>ATOM
      1  N18       16.8270   19.5210   33.8950 N.pl3 245  303245      0.2047
      2  C17       18.1490   19.6460   34.0260 C.2   245  303245      0.4766
      3  N19       18.6210   20.6980   34.6860 N.pl3 245  303245      0.2047
      4  C4        19.0720   18.6300   33.4680 C.ar  245  303245      0.0975
      5  C5        20.3550   18.4680   34.0840 C.ar  245  303245      0.0080
      6  C6        21.3000   17.4730   33.6990 C.ar  245  303245      0.0003
      7  C10       22.5670   17.3690   34.3590 C.ar  245  303245      0.0002
      8  C11       23.5250   16.3790   33.9880 C.ar  245  303245      0.0046
      9  C12       23.2420   15.4560   32.9260 C.ar  245  303245      0.0554
     10  C13       21.9590   15.5450   32.2480 C.ar  245  303245      0.0046
     11  C1        20.9680   16.5530   32.6240 C.ar  245  303245      0.0002
     12  C2        19.6650   16.7340   31.9940 C.ar  245  303245      0.0003
     13  C3        18.7250   17.7480   32.3870 C.ar  245  303245      0.0080
     14  C20       24.3510   14.5100   32.6360 C.2   245  303245      0.2690
     15  O21       25.1630   14.2110   33.5140 O.2   245  303245     -0.2680
     16  N22       24.4400   14.0100   31.3670 N.am  245  303245     -0.1755
     17  C23       25.5050   13.3080   30.8260 C.ar  245  303245      0.0734
     18  C28       26.3210   12.4060   31.5490 C.ar  245  303245      0.0134
     19  C27       27.3380   11.6730   30.9030 C.ar  245  303245     -0.0091
     20  C26       27.4820   11.7860   29.4900 C.ar  245  303245     -0.0233
     21  C25       26.6960   12.7020   28.7690 C.ar  245  303245     -0.0032
     22  C24       25.7510   13.4800   29.4470 C.ar  245  303245      0.0163
     23  C32       28.4830   10.9230   28.7370 C.3   245  303245      0.0449
     24  C33       28.9420    9.7200   29.5700 C.3   245  303245      0.0937
     25  N34       29.4040   10.2470   30.8550 N.3   245  303245     -0.2147
     26  C35       28.3050   10.7780   31.6790 C.3   245  303245      0.0946
     27  C40       28.9100   11.4320   32.9320 C.3   245  303245      0.0202
     28  C42       29.9000   12.5830   32.6320 C.3   245  303245      0.0018
     29  C46       29.4260   10.4000   33.9300 C.3   245  303245      0.0018
@<TRIPOS>BOND
     1    23    20    1
     2    23    24    1
     3    21    22   ar
     4    21    20   ar
     5    22    17   ar
     6    20    19   ar
     7    24    25    1
     8    17    16    1
     9    17    18   ar
    10    25    26    1
    11    19    18   ar
    12    19    26    1
    13    16    14   am
    14    26    27    1
    15    12    13   ar
    16    12    11   ar
    17    10    11   ar
    18    10     9   ar
    19    13     4   ar
    20    11     6   ar
    21    28    27    1
    22    14     9    1
    23    14    15    2
    24     9     8   ar
    25    27    29    1
    26     4     2    1
    27     4     5   ar
    28     6     5   ar
    29     6     7   ar
    30     1     2    2
    31     8     7   ar
    32     2     3    1
