@<TRIPOS>MOLECULE
1owy_PRY_A_1.pdb
 10 10 0 0 0
SMALL
GASTEIGER

@<TRIPOS>ATOM
      1  C1        27.1170    6.7820    3.3530 C.ar  406  PRY406     -0.0054
      2  C2        27.5120    7.2880    4.5850 C.ar  406  PRY406      0.0851
      3  C3        26.1920    5.7510    3.2730 C.ar  406  PRY406     -0.0029
      4  C4        27.7210    7.3650    2.0880 C.3   406  PRY406      0.0277
      5  C5        26.9380    6.7440    5.7480 C.ar  406  PRY406      0.0177
      6  N6        28.4630    8.3730    4.5670 N.pl3 406  PRY406     -0.1284
      7  C7        25.6580    5.1760    4.4330 C.ar  406  PRY406     -0.0002
      8  C8        26.0230    5.7010    5.6820 C.ar  406  PRY406      0.0014
      9  C9        26.9930    8.6640    1.6770 C.3   406  PRY406      0.0047
     10  C10       27.5660    9.1620    0.3470 C.3   406  PRY406      0.0004
@<TRIPOS>BOND
     1    10     9    1
     2     9     4    1
     3     4     1    1
     4     3     1   ar
     5     3     7   ar
     6     1     2   ar
     7     7     8   ar
     8     6     2    1
     9     2     5   ar
    10     8     5   ar
