@<TRIPOS>MOLECULE
1owz_4FA_A_1.pdb
 10 10 0 0 0
SMALL
GASTEIGER

@<TRIPOS>ATOM
      1  C1        27.3840    6.7690    3.1430 C.ar  409  4FA409     -0.0194
      2  C2        27.4730    7.5180    4.3090 C.ar  409  4FA409     -0.0019
      3  C3        26.7180    5.5450    3.1030 C.ar  409  4FA409     -0.0019
      4  C4        28.0270    7.3200    1.9420 C.3   409  4FA409      0.0619
      5  C5        26.8920    7.0220    5.4740 C.ar  409  4FA409      0.0293
      6  C6        26.1320    5.0610    4.2770 C.ar  409  4FA409      0.0293
      7  C7        26.2180    5.8010    5.4550 C.ar  409  4FA409      0.1401
      8  F8        25.6560    5.3080    6.5710 F     409  4FA409     -0.2042
      9  C13       27.8970    8.7990    1.9440 C.3   409  4FA409      0.1868
     10  O14       28.1960    9.1310    0.6030 O.3   409  4FA409     -0.2200
@<TRIPOS>BOND
     1    10     9    1
     2     4     9    1
     3     4     1    1
     4     3     1   ar
     5     3     6   ar
     6     1     2   ar
     7     6     7   ar
     8     2     5   ar
     9     7     5   ar
    10     7     8    1
