@<TRIPOS>MOLECULE
1ox5_1PR_A_1.pdb
 37 38 0 0 0
SMALL
GASTEIGER

@<TRIPOS>ATOM
      1  O9'       88.2040    7.3750   14.2630 O.3   991  1PR991     -0.1145
      2  O8'       87.9690    6.8470   11.8370 O.2   991  1PR991     -0.2224
      3  O'1       87.8350    5.0670   13.5530 O.3   991  1PR991     -0.1145
      4  O6'       85.9080    6.6500   13.2770 O.3   991  1PR991     -0.2675
      5  C5'       85.2720    7.5220   14.2010 C.3   991  1PR991      0.1860
      6  C4'       84.0790    6.8990   14.8790 C.3   991  1PR991      0.1823
      7  O4'       82.9480    6.8110   13.9470 O.3   991  1PR991     -0.3135
      8  C3'       84.1870    5.4530   15.3700 C.3   991  1PR991      0.2184
      9  O3'       84.7430    5.3740   16.4860 O.3   991  1PR991     -0.2174
     10  C2'       82.7760    4.9310   15.3390 C.3   991  1PR991      0.2570
     11  O2'       82.0370    5.0620   16.5270 O.3   991  1PR991     -0.2130
     12  C1'       82.1410    5.6670   14.1890 C.3   991  1PR991      0.3186
     13  N1        82.0400    4.7890   13.0010 N.pl3 991  1PR991     -0.1437
     14  C2        83.0230    4.5940   12.0500 C.3   991  1PR991      0.3377
     15  N3        82.6950    3.7820   11.0990 N.2   991  1PR991     -0.2121
     16  C4        81.4310    3.3800   11.3820 C.2   991  1PR991      0.2190
     17  C9        80.5980    2.4800   10.6320 C.2   991  1PR991      0.3090
     18  O9        79.4290    2.0970   10.8740 O.2   991  1PR991     -0.2647
     19  N9        81.2600    2.0070    9.4920 N.am  991  1PR991     -0.0821
     20  N6        79.6100    3.7310   13.1280 N.2   991  1PR991     -0.0128
     21  C5        80.9590    3.9830   12.5680 C.2   991  1PR991      0.3512
     22  C7        79.0210    4.2260   14.2180 C.2   991  1PR991      0.3347
     23  C1B       78.1340    3.5850   16.5010 C.3   991  1PR991      0.1962
     24  C2B       77.5860    4.9740   16.8920 C.2   991  1PR991      0.2079
     25  C3B       76.0940    5.3320   16.6940 C.3   991  1PR991      0.2432
     26  C4B       75.2190    5.2790   17.9690 C.3   991  1PR991      0.2193
     27  C5B       73.7860    5.6730   17.5680 C.3   991  1PR991      0.1896
     28  N8        78.7960    3.3380   15.1950 N.2   991  1PR991     -0.2176
     29  O2B       78.3620    5.8310   17.3750 O.2   991  1PR991     -0.2912
     30  O3B       76.0660    6.6450   16.1470 O.3   991  1PR991     -0.2122
     31  O4B       75.3130    3.9570   18.4270 O.3   991  1PR991     -0.2172
     32  O6B       72.9120    4.8280   18.0980 O.3   991  1PR991     -0.2674
     33  P7B       71.4090    4.8630   17.9620 P.3   991  1PR991      0.5327
     34  O'L       70.9840    4.7990   16.4890 O.2   991  1PR991     -0.2224
     35  O8B       70.9160    6.2220   18.6550 O.3   991  1PR991     -0.1145
     36  O9B       71.0900    3.6360   18.8060 O.3   991  1PR991     -0.1145
     37  P7'       87.5420    6.4980   13.2410 P.3   991  1PR991      0.5327
@<TRIPOS>BOND
     1    19    17   am
     2    17    18    2
     3    17    16    1
     4    15    16    2
     5    15    14    1
     6    16    21    1
     7     2    37    2
     8    14    13    1
     9    21    13    1
    10    21    20    2
    11    13    12    1
    12    20    22    1
    13    37     4    1
    14    37     3    1
    15    37     1    1
    16     4     5    1
    17     7    12    1
    18     7     6    1
    19    12    10    1
    20     5     6    1
    21    22    28    2
    22     6     8    1
    23    28    23    1
    24    10     8    1
    25    10    11    1
    26     8     9    1
    27    30    25    1
    28    34    33    2
    29    23    24    1
    30    25    24    1
    31    25    26    1
    32    24    29    2
    33    27    26    1
    34    27    32    1
    35    33    32    1
    36    33    35    1
    37    33    36    1
    38    26    31    1
