@<TRIPOS>MOLECULE
1oxa_HEM_A_1.pdb
 43 50 0 0 0
SMALL
GASTEIGER

@<TRIPOS>ATOM
      1 FE         -7.5500   12.4030    9.8470 Fe    410  HEM410      0.0000
      2  CHA      -10.4810   14.1990    9.8350 C.2   410  HEM410      0.0000
      3  CHB       -8.9810   10.1660    7.7070 C.2   410  HEM410      0.0000
      4  CHC       -4.8980   10.4530   10.2910 C.2   410  HEM410      0.0000
      5  CHD       -6.6260   14.1190   12.7130 C.2   410  HEM410      0.0000
      6  NA        -9.3190   12.2450    8.9390 N.ar  410  HEM410      0.0000
      7  C1A      -10.3940   13.1220    8.9740 C.ar  410  HEM410      0.0000
      8  C2A      -11.4210   12.7440    8.0070 C.ar  410  HEM410      0.0000
      9  C3A      -10.9970   11.5890    7.4920 C.ar  410  HEM410      0.0000
     10  C4A       -9.7130   11.2800    8.0450 C.ar  410  HEM410      0.0000
     11  CMA      -11.7970   10.6940    6.5690 C.3   410  HEM410      0.0000
     12  CAA      -12.6860   13.5040    7.6270 C.3   410  HEM410      0.0000
     13  CBA      -13.8100   13.1660    8.6000 C.3   410  HEM410      0.0000
     14  CGA      -15.1750   13.7310    8.1990 C.2   410  HEM410      0.0000
     15  O1A      -15.3590   14.1680    7.0430 O.co2 410  HEM410      0.0000
     16  O2A      -16.0810   13.7030    9.0560 O.co2 410  HEM410      0.0000
     17  NB        -7.0530   10.6970    9.1150 N.2   410  HEM410      0.0000
     18  C1B       -7.7080    9.9030    8.1750 C.2   410  HEM410      0.0000
     19  C2B       -6.8440    8.8130    7.7140 C.2   410  HEM410      0.0000
     20  C3B       -5.6800    8.9490    8.4360 C.2   410  HEM410      0.0000
     21  C4B       -5.8410   10.0790    9.3240 C.2   410  HEM410      0.0000
     22  CMB       -7.1930    7.7810    6.6540 C.3   410  HEM410      0.0000
     23  CAB       -4.4520    8.2830    8.3800 C.2   410  HEM410      0.0000
     24  CBB       -4.0980    7.1500    7.7250 C.2   410  HEM410      0.0000
     25  NC        -6.0420   12.3560   11.1780 N.ar  410  HEM410      0.0000
     26  C1C       -4.9870   11.4920   11.1650 C.ar  410  HEM410      0.0000
     27  C2C       -3.9610   11.8450   12.1520 C.ar  410  HEM410      0.0000
     28  C3C       -4.4870   12.8930   12.8660 C.ar  410  HEM410      0.0000
     29  C4C       -5.7660   13.1880   12.2490 C.ar  410  HEM410      0.0000
     30  CMC       -2.5420   11.2230   12.1730 C.3   410  HEM410      0.0000
     31  CAC       -4.0500   13.5480   14.0140 C.2   410  HEM410      0.0000
     32  CBC       -2.7810   13.6660   14.4730 C.2   410  HEM410      0.0000
     33  ND        -8.3220   13.8120   10.9910 N.2   410  HEM410      0.0000
     34  C1D       -7.8080   14.4140   12.1230 C.2   410  HEM410      0.0000
     35  C2D       -8.6790   15.4660   12.6120 C.2   410  HEM410      0.0000
     36  C3D       -9.7220   15.5320   11.7680 C.2   410  HEM410      0.0000
     37  C4D       -9.5350   14.4960   10.7890 C.2   410  HEM410      0.0000
     38  CMD       -8.5610   16.2760   13.8810 C.3   410  HEM410      0.0000
     39  CAD      -10.8940   16.4720   11.8320 C.3   410  HEM410      0.0000
     40  CBD      -10.7630   17.7210   10.9760 C.3   410  HEM410      0.0000
     41  CGD      -12.0480   18.5370   10.8990 C.2   410  HEM410      0.0000
     42  O1D      -13.0930   18.0880   11.4030 O.co2 410  HEM410      0.0000
     43  O2D      -12.0230   19.6370   10.3320 O.co2 410  HEM410      0.0000
@<TRIPOS>BOND
     1    11     9    1
     2    22    19    1
     3    15    14   ar
     4     9     8   ar
     5     9    10   ar
     6    12     8    1
     7    12    13    1
     8     3    10    2
     9     3    18    1
    10    19    18    1
    11    19    20    2
    12    24    23    2
    13     8     7   ar
    14    10     6   ar
    15    18    17    2
    16    14    13    1
    17    14    16   ar
    18    23    20    1
    19    20    21    1
    20     6     7   ar
    21     6     1    1
    22     7     2    2
    23    17    21    1
    24    17     1    1
    25    21     4    2
    26     2    37    1
    27     1    33    1
    28     1    25    1
    29     4    26    1
    30    43    41   ar
    31    37    33    2
    32    37    36    1
    33    41    40    1
    34    41    42   ar
    35    40    39    1
    36    33    34    1
    37    26    25   ar
    38    26    27   ar
    39    25    29   ar
    40    36    39    1
    41    36    35    2
    42    34    35    1
    43    34     5    2
    44    27    30    1
    45    27    28   ar
    46    29     5    1
    47    29    28   ar
    48    35    38    1
    49    28    31    1
    50    31    32    2
