@<TRIPOS>MOLECULE
1oxa_DEB_A_1.pdb
 27 27 0 0 0
SMALL
GASTEIGER

@<TRIPOS>ATOM
      1  C1       -12.8670    7.8400   16.2990 C.2   420  DEB420      0.3188
      2  C2       -12.0260    6.7460   15.6540 C.3   420  DEB420      0.1294
      3  C3       -11.1060    7.3670   14.5920 C.3   420  DEB420      0.1648
      4  C4       -11.8780    8.0420   13.4450 C.3   420  DEB420      0.0614
      5  C5       -10.8780    8.8510   12.5800 C.3   420  DEB420      0.1543
      6  C6       -11.2900    9.9030   11.5210 C.3   420  DEB420      0.0309
      7  C7       -12.3470   10.8640   12.0830 C.3   420  DEB420      0.0098
      8  C8       -12.0770   11.6290   13.3890 C.3   420  DEB420      0.0578
      9  C9       -13.3020   12.4570   13.7970 C.2   420  DEB420      0.1523
     10  C10      -14.6270   11.7360   14.0900 C.3   420  DEB420      0.0881
     11  C11      -14.4130   10.6370   15.1740 C.3   420  DEB420      0.1622
     12  C12      -15.6190    9.7330   15.4990 C.3   420  DEB420      0.0710
     13  C13      -15.2200    8.7110   16.5950 C.3   420  DEB420      0.1712
     14  C14      -16.4410    7.9060   17.0500 C.3   420  DEB420      0.0437
     15  C15      -16.1750    7.0240   18.2550 C.3   420  DEB420      0.0038
     16  O16      -14.2860    7.8250   16.1090 O.3   420  DEB420     -0.4521
     17  O17      -12.3520    8.6990   17.0200 O.2   420  DEB420     -0.2500
     18  C18      -11.2220    5.9970   16.7060 C.3   420  DEB420      0.0143
     19  O19      -10.2470    6.3600   14.0530 O.3   420  DEB420     -0.2225
     20  C20      -12.6400    7.0060   12.6100 C.3   420  DEB420      0.0052
     21  O21       -9.9010    7.9690   12.0210 O.3   420  DEB420     -0.2231
     22  C22      -11.7970    9.2350   10.2570 C.3   420  DEB420      0.0026
     23  C23      -10.8510   12.5120   13.2860 C.3   420  DEB420      0.0078
     24  O24      -13.2250   13.6830   13.8770 O.2   420  DEB420     -0.2960
     25  C25      -15.7070   12.7350   14.5120 C.3   420  DEB420      0.0104
     26  O26      -13.9200   11.2310   16.3850 O.3   420  DEB420     -0.2226
     27  C27      -16.1060    9.0120   14.2450 C.3   420  DEB420      0.0063
@<TRIPOS>BOND
     1    22     6    1
     2     6     7    1
     3     6     5    1
     4    21     5    1
     5     7     8    1
     6     5     4    1
     7    20     4    1
     8    23     8    1
     9     8     9    1
    10     4     3    1
    11     9    24    2
    12     9    10    1
    13    19     3    1
    14    10    25    1
    15    10    11    1
    16    27    12    1
    17     3     2    1
    18    11    12    1
    19    11    26    1
    20    12    13    1
    21     2     1    1
    22     2    18    1
    23    16     1    1
    24    16    13    1
    25     1    17    2
    26    13    14    1
    27    14    15    1
