@<TRIPOS>MOLECULE
1oxc_FUC_A_1.pdb
 11 11 0 0 0
SMALL
GASTEIGER

@<TRIPOS>ATOM
      1  C1        10.0600   38.3890   10.0830 C.3   1115  FUC1115     0.3023
      2  C2        10.8430   38.6460    8.7770 C.3   1115  FUC1115     0.2434
      3  C3        10.9150   40.1040    8.3650 C.3   1115  FUC1115     0.2198
      4  C4        11.4060   40.9260    9.5220 C.3   1115  FUC1115     0.2118
      5  C5        10.4540   40.7420   10.7000 C.3   1115  FUC1115     0.1509
      6  C6        10.9420   41.5530   11.8920 C.3   1115  FUC1115     0.0350
      7  O1         8.7450   38.9430    9.7190 O.3   1115  FUC1115    -0.1869
      8  O2        10.2180   37.9440    7.7180 O.3   1115  FUC1115    -0.2148
      9  O3        11.8420   40.2140    7.2900 O.3   1115  FUC1115    -0.2174
     10  O4        12.7050   40.4820    9.8760 O.3   1115  FUC1115    -0.2177
     11  O5        10.4110   39.3590   11.1100 O.3   1115  FUC1115    -0.3264
@<TRIPOS>BOND
     1     9     3    1
     2     8     2    1
     3     3     2    1
     4     3     4    1
     5     2     1    1
     6     4    10    1
     7     4     5    1
     8     7     1    1
     9     1    11    1
    10     5    11    1
    11     5     6    1
