@<TRIPOS>MOLECULE
1oxc_FUL_A_1.pdb
 11 11 0 0 0
SMALL
GASTEIGER

@<TRIPOS>ATOM
      1  C1        10.0600   38.3890   10.0830 C.2   115  FUL115      0.3504
      2  C2        10.8430   38.6460    8.7770 C.3   115  FUL115      0.2822
      3  O2        10.2180   37.9440    7.7180 O.3   115  FUL115     -0.2082
      4  C3        10.9150   40.1040    8.3650 C.3   115  FUL115      0.2269
      5  O3        11.8420   40.2140    7.2900 O.3   115  FUL115     -0.2169
      6  C4        11.4060   40.9260    9.5220 C.3   115  FUL115      0.2249
      7  O4        12.7050   40.4820    9.8760 O.3   115  FUL115     -0.2164
      8  C5        10.4540   40.7420   10.7000 C.3   115  FUL115      0.2018
      9  C6        10.9420   41.5530   11.8920 C.3   115  FUL115      0.0502
     10  O5        10.4110   39.3590   11.1100 O.3   115  FUL115     -0.4477
     11  O1         9.6050   37.2320   10.3730 O.2   115  FUL115     -0.2472
@<TRIPOS>BOND
     1     5     4    1
     2     3     2    1
     3     4     2    1
     4     4     6    1
     5     2     1    1
     6     6     7    1
     7     6     8    1
     8     1    11    2
     9     1    10    1
    10     8    10    1
    11     8     9    1
