@<TRIPOS>MOLECULE
1oxl_IDA_A_1.pdb
 20 21 0 0 0
SMALL
GASTEIGER

@<TRIPOS>ATOM
      1  N2        21.2480   21.3740   48.5040 N.3   501  IDA501     -0.0963
      2  C10       20.1160   20.7250   47.8360 C.3   501  IDA501      0.2488
      3  O1        19.0350   20.6540   48.7460 O.3   501  IDA501     -0.2017
      4  C9        19.8230   21.5680   46.5990 C.3   501  IDA501      0.1116
      5  C1        18.4640   21.8960   45.9420 C.2   501  IDA501      0.1124
      6  N1        18.4960   22.5190   44.7200 N.2   501  IDA501     -0.4108
      7  C4        17.2510   22.7480   44.3060 C.2   501  IDA501      0.1045
      8  C3        16.3500   22.2490   45.3050 C.2   501  IDA501      0.0054
      9  C2        17.0940   21.7170   46.3280 C.2   501  IDA501      0.0256
     10  C5        14.8880   22.3000   45.2740 C.3   501  IDA501      0.0287
     11  C6        14.3190   22.7750   44.0860 C.3   501  IDA501      0.0048
     12  C12       12.9390   22.2700   43.5140 C.3   501  IDA501      0.0003
     13  C13       12.7060   20.8500   42.9040 C.3   501  IDA501      0.0000
     14  C14       12.6900   19.9410   41.6880 C.3   501  IDA501      0.0000
     15  C7        15.2210   23.3750   43.0940 C.3   501  IDA501      0.0076
     16  C8        16.6470   23.3730   43.1310 C.3   501  IDA501      0.0599
     17  C11       17.3290   23.1900   41.8260 C.3   501  IDA501      0.1068
     18  C15       18.7510   23.5210   41.4150 C.3   501  IDA501      0.4264
     19  O3        18.7910   24.9280   41.3990 O.2   501  IDA501     -0.2671
     20  O2        19.7330   22.9370   42.2470 O.2   501  IDA501     -0.2671
@<TRIPOS>BOND
     1    19    18    1
     2    18    17    1
     3    18    20    1
     4    14    13    1
     5    17    16    1
     6    13    12    1
     7    15    16    1
     8    15    11    1
     9    16     7    1
    10    12    11    1
    11    11    10    1
    12     7     6    2
    13     7     8    1
    14     6     5    2
    15    10     8    1
    16     8     9    2
    17     5     9    1
    18     5     4    1
    19     4     2    1
    20     2     1    1
    21     2     3    1
