@<TRIPOS>MOLECULE
1oxm_TC4_A_1.pdb
 28 27 0 0 0
SMALL
GASTEIGER

@<TRIPOS>ATOM
      1  C1        15.3270   58.2820    9.9150 C.3   901  TC4901      0.0809
      2  C2        15.4430   57.0250   10.7630 C.3   901  TC4901      0.0095
      3  C3        16.5310   56.1140   10.2330 C.3   901  TC4901      0.0005
      4  C4        16.1680   54.7090   10.5490 C.3   901  TC4901      0.0000
      5  C5        13.4580   60.4590   12.6000 C.3   901  TC4901      0.1960
      6  C6        13.6980   60.0490   14.0510 C.3   901  TC4901      0.2437
      7  C7        13.7880   57.6990   15.0690 C.2   901  TC4901      0.4017
      8  C8        13.0230   55.6990   16.3120 C.3   901  TC4901      0.0927
      9  C9        11.7790   55.4930   17.1720 C.3   901  TC4901      0.0214
     10  C10       12.0630   55.7980   18.6290 C.3   901  TC4901      0.0018
     11  C11       13.2130   54.9470   19.1470 C.3   901  TC4901      0.0001
     12  C12       12.7830   60.8420   14.9790 C.3   901  TC4901      0.2560
     13  C13       12.4520   60.8060   17.3520 C.2   901  TC4901      0.4017
     14  C14       12.1220   60.3650   19.7680 C.3   901  TC4901      0.0927
     15  C15       12.9750   59.9590   20.9680 C.3   901  TC4901      0.0214
     16  C16       12.5280   58.6210   21.5550 C.3   901  TC4901      0.0018
     17  C17       13.2480   58.3640   22.8670 C.3   901  TC4901      0.0001
     18  N1        12.8550   56.7910   15.3560 N.am  901  TC4901     -0.2707
     19  N2        12.8810   60.3240   18.5180 N.am  901  TC4901     -0.2707
     20  O1        12.8710   59.0680    9.5450 O.3   901  TC4901     -0.1774
     21  O2        14.1830   59.5210   11.8150 O.3   901  TC4901     -0.3133
     22  O3        13.2960   58.6780   14.0910 O.3   901  TC4901     -0.4319
     23  O4        14.9090   57.6980   15.5820 O.2   901  TC4901     -0.2264
     24  O5        13.4050   60.6470   16.2490 O.3   901  TC4901     -0.4306
     25  O6        11.3460   61.3480   17.1990 O.2   901  TC4901     -0.2264
     26  P1        14.2330   59.4490   10.2260 P.3   901  TC4901      0.2201
     27  H1        11.9940   56.8730   14.8980 H     901  TC4901      0.1527
     28  H2        13.7720   59.9150   18.5350 H     901  TC4901      0.1527
@<TRIPOS>BOND
     1    20    26    1
     2     1    26    1
     3     1     2    1
     4    26    21    1
     5     3     4    1
     6     3     2    1
     7    21     5    1
     8     5     6    1
     9     6    22    1
    10     6    12    1
    11    22     7    1
    12    27    18    1
    13    12    24    1
    14     7    18   am
    15     7    23    2
    16    18     8    1
    17    24    13    1
    18     8     9    1
    19     9    10    1
    20    25    13    2
    21    13    19   am
    22    19    28    1
    23    19    14    1
    24    10    11    1
    25    14    15    1
    26    15    16    1
    27    16    17    1
