@<TRIPOS>MOLECULE
1oxn_III_F_1.pdb
 26 25 0 0 0
SMALL
GASTEIGER

@<TRIPOS>ATOM
      1  N         22.3800   48.2560   -7.6980 N.3     1  ALA1       -0.1231
      2  CA        22.6610   47.9030   -6.2860 C.3     1  ALA1        0.1694
      3  C         22.0840   46.5380   -5.9750 C.2     1  ALA1        0.2592
      4  O         21.1330   46.1020   -6.6260 O.2     1  ALA1       -0.2718
      5  CB        22.0710   48.9410   -5.3520 C.3     1  ALA1        0.0304
      6  N         22.6680   45.8690   -4.9840 N.am    2  GLU2       -0.1966
      7  CA        22.1220   44.6230   -4.4610 C.3     2  GLU2        0.1733
      8  C         22.1700   44.5980   -2.9320 C.2     2  GLU2        0.2616
      9  O         23.0520   45.2130   -2.3170 O.2     2  GLU2       -0.2715
     10  CB        22.8480   43.4070   -5.0430 C.3     2  GLU2        0.0429
     11  CG        24.3520   43.5600   -5.1660 C.3     2  GLU2        0.1163
     12  CD        25.1050   42.3880   -4.5700 C.2     2  GLU2        0.3649
     13  OE1       25.2690   42.3550   -3.3270 O.co2   2  GLU2       -0.2457
     14  OE2       25.5290   41.5010   -5.3490 O.co2   2  GLU2       -0.2457
     15  N         21.2120   43.8930   -2.3320 N.am    3  ALA3       -0.1963
     16  CA        21.1440   43.7440   -0.8800 C.3     3  ALA3        0.1728
     17  C         22.3510   42.9700   -0.3710 C.2     3  ALA3        0.2616
     18  O         22.9460   42.1850   -1.1090 O.2     3  ALA3       -0.2715
     19  CB        19.8550   43.0480   -0.4810 C.3     3  ALA3        0.0334
     20  N         22.7310   43.2130    0.8780 N.am    4  VAL4       -0.1977
     21  CA        23.8300   42.4700    1.4910 C.3     4  VAL4        0.1596
     22  C         23.3010   41.2020    2.1740 C.2     4  VAL4        0.2287
     23  O         22.2170   41.1930    2.7640 O.2     4  VAL4       -0.2864
     24  CB        24.6810   43.3540    2.4590 C.3     4  VAL4        0.0276
     25  CG1       23.8660   43.8230    3.6580 C.3     4  VAL4        0.0022
     26  CG2       25.9520   42.6230    2.9070 C.3     4  VAL4        0.0022
@<TRIPOS>BOND
     1     1     2    1
     2     4     3    2
     3     2     3    1
     4     2     5    1
     5     3     6   am
     6    14    12   ar
     7    11    10    1
     8    11    12    1
     9    10     7    1
    10     6     7    1
    11    12    13   ar
    12     7     8    1
    13     8    15   am
    14     8     9    2
    15    15    16    1
    16    18    17    2
    17    16    19    1
    18    16    17    1
    19    17    20   am
    20    20    21    1
    21    21    22    1
    22    21    24    1
    23    22    23    2
    24    24    26    1
    25    24    25    1
