@<TRIPOS>MOLECULE
1oxo_IK2_A_1.pdb
 21 21 0 0 0
SMALL
GASTEIGER

@<TRIPOS>ATOM
      1  N1         7.2250   -1.1400   11.4270 N.ar  411  IK2411     -0.2452
      2  C2         7.9210   -1.4430   10.2900 C.ar  411  IK2411      0.0981
      3  C2A        7.2060   -2.3790    9.3370 C.3   411  IK2411      0.0555
      4  C3         9.2120   -0.8370   10.1590 C.ar  411  IK2411      0.2104
      5  O3         9.8320   -1.1660    9.0180 O.3   411  IK2411     -0.2853
      6  C4         9.7130   -0.0340   11.1440 C.ar  411  IK2411      0.0624
      7  C4A       11.0300    0.6430   11.0960 C.2   411  IK2411      0.1431
      8  N4A       12.1750    0.3730   10.6940 N.2   411  IK2411     -0.0806
      9  OX        13.2240    1.3460   10.8230 O.2   411  IK2411     -0.3648
     10  C1'       13.7830    1.3170   12.1220 C.3   411  IK2411      0.3510
     11  C2'       14.9140    0.2660   12.2870 C.2   411  IK2411      0.4114
     12  O1'       14.9120   -0.8000   11.5450 O.co2 411  IK2411     -0.2414
     13  O2'       15.8380    0.4630   13.1540 O.co2 411  IK2411     -0.2414
     14  C5         8.8780    0.2180   12.3050 C.ar  411  IK2411      0.0317
     15  C6         7.6750   -0.3450   12.3940 C.ar  411  IK2411      0.0968
     16  C5A        9.4640    1.1550   13.3790 C.3   411  IK2411      0.1819
     17  O4P        9.9720    2.4080   12.9750 O.3   411  IK2411     -0.2653
     18  P         10.2530    3.6540   13.9640 P.3   411  IK2411      0.5329
     19  O1P       10.3840    3.0760   15.3340 O.3   411  IK2411     -0.1145
     20  O2P        9.0240    4.5530   13.9070 O.3   411  IK2411     -0.1145
     21  O3P       11.3990    4.3740   13.4520 O.2   411  IK2411     -0.2224
@<TRIPOS>BOND
     1     5     4    1
     2     3     2    1
     3     4     2   ar
     4     4     6   ar
     5     2     1   ar
     6     8     9    1
     7     8     7    2
     8     9    10    1
     9     7     6    1
    10     6    14   ar
    11     1    15   ar
    12    12    11   ar
    13    10    11    1
    14    11    13   ar
    15    14    15   ar
    16    14    16    1
    17    17    16    1
    18    17    18    1
    19    21    18    2
    20    20    18    1
    21    18    19    1
