@<TRIPOS>MOLECULE
1oxp_IK2_A_1.pdb
 21 21 0 0 0
SMALL
GASTEIGER

@<TRIPOS>ATOM
      1  N1        43.8280   15.7740   45.2150 N.ar  411  IK2411     -0.2452
      2  C2        45.0560   15.3880   45.6030 C.ar  411  IK2411      0.0981
      3  C2A       45.6820   15.8340   46.8870 C.3   411  IK2411      0.0555
      4  C3        45.7350   14.5080   44.6790 C.ar  411  IK2411      0.2104
      5  O3        46.8920   14.3350   45.3260 O.3   411  IK2411     -0.2853
      6  C4        45.1700   14.0950   43.5130 C.ar  411  IK2411      0.0624
      7  C4A       45.6610   13.2030   42.3950 C.2   411  IK2411      0.1431
      8  N4A       46.8670   13.0110   42.2160 N.2   411  IK2411     -0.0806
      9  OX        47.6260   12.0960   41.4690 O.2   411  IK2411     -0.3648
     10  C1'       47.6780   12.4160   40.0940 C.3   411  IK2411      0.3510
     11  C2'       48.1000   13.8210   39.6210 C.2   411  IK2411      0.4114
     12  O1'       48.8610   14.6940   40.2090 O.co2 411  IK2411     -0.2414
     13  O2'       47.4830   14.3050   38.5820 O.co2 411  IK2411     -0.2414
     14  C5        43.8300   14.5940   43.2360 C.ar  411  IK2411      0.0317
     15  C6        43.2020   15.4060   44.0980 C.ar  411  IK2411      0.0968
     16  C5A       43.2410   14.1110   41.8800 C.3   411  IK2411      0.1819
     17  O4P       43.2600   12.7430   41.5860 O.3   411  IK2411     -0.2653
     18  P         42.3340   11.9660   40.5720 P.3   411  IK2411      0.5329
     19  O1P       43.1880   10.9810   39.8910 O.3   411  IK2411     -0.1145
     20  O2P       41.8350   13.0420   39.6000 O.2   411  IK2411     -0.2224
     21  O3P       41.1790   11.4140   41.2350 O.3   411  IK2411     -0.1145
@<TRIPOS>BOND
     1    13    11   ar
     2    20    18    2
     3    11    10    1
     4    11    12   ar
     5    19    18    1
     6    10     9    1
     7    18    21    1
     8    18    17    1
     9     9     8    1
    10    17    16    1
    11    16    14    1
    12     8     7    2
    13     7     6    1
    14    14     6   ar
    15    14    15   ar
    16     6     4   ar
    17    15     1   ar
    18     4     5    1
    19     4     2   ar
    20     1     2   ar
    21     2     3    1
