@<TRIPOS>MOLECULE
1oxq_III_F_1.pdb
 27 27 0 0 0
SMALL
GASTEIGER

@<TRIPOS>ATOM
      1  N         22.2690   48.5480   -7.6420 N.3     1  ALA1       -0.1231
      2  CA        22.6620   48.1820   -6.2580 C.3     1  ALA1        0.1694
      3  C         21.9960   46.8720   -5.8630 C.2     1  ALA1        0.2592
      4  O         20.9800   46.4800   -6.4400 O.2     1  ALA1       -0.2718
      5  CB        22.2940   49.2960   -5.2770 C.3     1  ALA1        0.0304
      6  N         22.5740   46.2140   -4.8660 N.am    2  VAL2       -0.1966
      7  CA        22.1160   44.9170   -4.4070 C.3     2  VAL2        0.1712
      8  C         22.2050   44.9340   -2.8710 C.2     2  VAL2        0.2458
      9  O         23.0470   45.6550   -2.3290 O.2     2  VAL2       -0.2730
     10  CB        22.9730   43.7940   -5.1050 C.3     2  VAL2        0.0289
     11  CG1       22.7520   43.7160   -6.6300 C.3     2  VAL2        0.0023
     12  CG2       24.4340   43.8910   -4.7180 C.3     2  VAL2        0.0023
     13  N         21.3290   44.2180   -2.1560 N.am    3  PRO3       -0.2716
     14  CA        21.4480   44.1390   -0.6910 C.3     3  PRO3        0.1536
     15  C         22.7890   43.6040   -0.2330 C.2     3  PRO3        0.2598
     16  O         23.4190   42.8220   -0.9470 O.2     3  PRO3       -0.2715
     17  CB        20.3310   43.1710   -0.2980 C.3     3  PRO3        0.0310
     18  CG        19.3260   43.3490   -1.3570 C.3     3  PRO3        0.0237
     19  CD        20.1380   43.4900   -2.6330 C.3     3  PRO3        0.0939
     20  N         23.2330   44.0670    0.9340 N.am    4  ILE4       -0.1978
     21  CA        24.3870   43.4850    1.6090 C.3     4  ILE4        0.1596
     22  C         23.8790   42.2230    2.2870 C.2     4  ILE4        0.2287
     23  O         23.1160   42.3070    3.2530 O.2     4  ILE4       -0.2864
     24  CB        24.9930   44.4510    2.6690 C.3     4  ILE4        0.0276
     25  CG1       25.3380   45.8130    2.0580 C.3     4  ILE4        0.0022
     26  CG2       26.2200   43.8240    3.3300 C.3     4  ILE4        0.0022
     27  CD1       25.5220   46.9150    3.0920 C.3     4  ILE4        0.0001
@<TRIPOS>BOND
     1     1     2    1
     2    11    10    1
     3     4     3    2
     4     2     3    1
     5     2     5    1
     6     3     6   am
     7    10    12    1
     8    10     7    1
     9     6     7    1
    10     7     8    1
    11     8     9    2
    12     8    13   am
    13    19    13    1
    14    19    18    1
    15    13    14    1
    16    18    17    1
    17    16    15    2
    18    14    17    1
    19    14    15    1
    20    15    20   am
    21    20    21    1
    22    21    22    1
    23    21    24    1
    24    25    24    1
    25    25    27    1
    26    22    23    2
    27    24    26    1
