@<TRIPOS>MOLECULE
1oxr_AIN_A_1.pdb
 13 13 0 0 0
SMALL
GASTEIGER

@<TRIPOS>ATOM
      1  O1        13.9070   16.1300    0.6240 O.co2 141  AIN141     -0.2404
      2  C7        13.2540   15.7780    1.7230 C.2   141  AIN141      0.3907
      3  O2        13.9110   15.7590    2.7490 O.co2 141  AIN141     -0.2404
      4  C3        11.8300   15.3160    1.6640 C.ar  141  AIN141      0.1143
      5  C4        11.1140   15.3810    0.4560 C.ar  141  AIN141      0.0097
      6  C5         9.7740   15.0010    0.4290 C.ar  141  AIN141      0.0004
      7  C6         9.1200   14.6010    1.5800 C.ar  141  AIN141      0.0031
      8  C1         9.7520   14.5680    2.8020 C.ar  141  AIN141      0.0378
      9  C2        11.0880   14.9220    2.9230 C.ar  141  AIN141      0.1547
     10  O3        11.8230   14.9060    4.0900 O.3   141  AIN141     -0.4239
     11  C8        12.4770   13.7700    4.7690 C.2   141  AIN141      0.3220
     12  O4        12.6860   13.8700    5.9710 O.2   141  AIN141     -0.2497
     13  C9        12.8900   12.5090    4.0560 C.3   141  AIN141      0.1216
@<TRIPOS>BOND
     1     6     5   ar
     2     6     7   ar
     3     5     4   ar
     4     1     2   ar
     5     7     8   ar
     6     4     2    1
     7     4     9   ar
     8     2     3   ar
     9     8     9   ar
    10     9    10    1
    11    13    11    1
    12    10    11    1
    13    11    12    2
