@<TRIPOS>MOLECULE
1oxu_ADP_A_1.pdb
 27 29 0 0 0
SMALL
GASTEIGER

@<TRIPOS>ATOM
      1  PB        12.0670   61.4450   62.5790 P.3   1486  ADP1486     0.5373
      2  O1B       11.0770   62.5090   62.8140 O.3   1486  ADP1486    -0.1143
      3  O2B       12.0140   60.4230   63.7190 O.3   1486  ADP1486    -0.1143
      4  O3B       11.7460   60.7260   61.2550 O.2   1486  ADP1486    -0.2221
      5  PA        14.8860   61.8100   63.1820 P.3   1486  ADP1486     0.2231
      6  O1A       14.8730   62.3840   64.5580 O.3   1486  ADP1486    -0.4370
      7  O2A       15.2110   60.3120   63.1850 O.2   1486  ADP1486    -0.5169
      8  O3A       13.5050   62.1790   62.4300 O.3   1486  ADP1486    -0.2261
      9  O5'       15.9950   62.5710   62.3080 O.3   1486  ADP1486    -0.3111
     10  C5'       15.9860   63.9690   62.1320 C.3   1486  ADP1486     0.1813
     11  C4'       17.1560   64.3780   61.2440 C.3   1486  ADP1486     0.1821
     12  O4'       18.3840   64.1050   61.9060 O.3   1486  ADP1486    -0.3135
     13  C3'       17.1590   63.5790   59.9540 C.3   1486  ADP1486     0.2184
     14  O3'       17.6690   64.3970   58.9230 O.3   1486  ADP1486    -0.2174
     15  C2'       18.1450   62.4700   60.2380 C.3   1486  ADP1486     0.2570
     16  O2'       18.7920   62.0560   59.0600 O.3   1486  ADP1486    -0.2130
     17  C1'       19.1240   63.1450   61.1810 C.3   1486  ADP1486     0.3186
     18  N9        19.7140   62.1650   62.0950 N.pl3 1486  ADP1486    -0.1439
     19  C8        19.0880   61.4910   63.1120 C.3   1486  ADP1486     0.3377
     20  N7        19.9970   60.6830   63.7030 N.2   1486  ADP1486    -0.2095
     21  C5        21.1840   60.8350   63.0790 C.2   1486  ADP1486     0.2526
     22  C6        22.4310   60.2550   63.2740 C.2   1486  ADP1486     0.4393
     23  N6        22.7200   59.6370   64.4190 N.pl3 1486  ADP1486     0.2180
     24  N1        23.4630   60.6300   62.4460 N.2   1486  ADP1486     0.0021
     25  C2        23.2770   61.5580   61.4410 C.3   1486  ADP1486     0.5254
     26  N3        22.0380   62.1230   61.2520 N.2   1486  ADP1486    -0.0055
     27  C4        21.0150   61.7680   62.0620 C.2   1486  ADP1486     0.3518
@<TRIPOS>BOND
     1    14    13    1
     2    16    15    1
     3    13    15    1
     4    13    11    1
     5    15    17    1
     6    17    12    1
     7    17    18    1
     8    11    12    1
     9    11    10    1
    10    26    25    1
    11    26    27    2
    12     4     1    2
    13    25    24    1
    14    27    18    1
    15    27    21    1
    16    18    19    1
    17    10     9    1
    18     9     5    1
    19     8     1    1
    20     8     5    1
    21    24    22    2
    22     1     2    1
    23     1     3    1
    24    21    22    1
    25    21    20    2
    26    19    20    1
    27     5     7    2
    28     5     6    1
    29    22    23    1
