@<TRIPOS>MOLECULE
1oxv_ANP_A_1.pdb
 31 33 0 0 0
SMALL
GASTEIGER

@<TRIPOS>ATOM
      1  PG        10.1770   59.2410   61.2310 P.3   1104  ANP1104     0.4884
      2  O1G        8.8260   59.8660   61.3750 O.3   1104  ANP1104    -0.1240
      3  O2G       10.3980   58.6250   59.8790 O.2   1104  ANP1104    -0.2331
      4  O3G       10.3260   58.1870   62.2540 O.3   1104  ANP1104    -0.1240
      5  PB        11.6450   61.2410   62.8120 P.3   1104  ANP1104     0.4669
      6  O1B       10.6720   62.3410   62.9590 O.2   1104  ANP1104    -0.2351
      7  O2B       11.5780   60.3060   63.9640 O.3   1104  ANP1104    -0.1253
      8  N3B       11.3400   60.4240   61.3890 N.3   1104  ANP1104    -0.0163
      9  PA        14.3890   61.5190   63.2920 P.3   1104  ANP1104     0.2220
     10  O1A       14.4140   62.1800   64.6260 O.3   1104  ANP1104    -0.4370
     11  O2A       14.6950   60.0870   63.4240 O.2   1104  ANP1104    -0.5170
     12  O3A       13.0540   61.8700   62.5900 O.3   1104  ANP1104    -0.2360
     13  O5'       15.5310   62.1310   62.4960 O.3   1104  ANP1104    -0.3111
     14  C5'       15.5740   63.5340   62.4120 C.3   1104  ANP1104     0.1813
     15  C4'       16.6680   64.0120   61.4490 C.3   1104  ANP1104     0.1821
     16  O4'       17.9310   63.7170   62.0120 O.3   1104  ANP1104    -0.3135
     17  C3'       16.7110   63.3030   60.1060 C.3   1104  ANP1104     0.2184
     18  O3'       17.2710   64.1800   59.1320 O.3   1104  ANP1104    -0.2174
     19  C2'       17.6420   62.1340   60.3320 C.3   1104  ANP1104     0.2570
     20  O2'       18.3020   61.6860   59.1600 O.3   1104  ANP1104    -0.2130
     21  C1'       18.6540   62.7340   61.2830 C.3   1104  ANP1104     0.3186
     22  N9        19.2420   61.7690   62.2090 N.pl3 1104  ANP1104    -0.1439
     23  C8        18.6250   61.1500   63.2400 C.3   1104  ANP1104     0.3377
     24  N7        19.5070   60.3520   63.9000 N.2   1104  ANP1104    -0.2095
     25  C5        20.6970   60.4820   63.2880 C.2   1104  ANP1104     0.2526
     26  C6        22.0560   59.9310   63.4560 C.2   1104  ANP1104     0.4393
     27  N6        22.3380   59.0320   64.4840 N.pl3 1104  ANP1104     0.2180
     28  N1        23.0040   60.3330   62.5990 N.2   1104  ANP1104     0.0021
     29  C2        22.7690   61.2010   61.6080 C.3   1104  ANP1104     0.5254
     30  N3        21.5510   61.7280   61.3880 N.2   1104  ANP1104    -0.0055
     31  C4        20.5210   61.4200   62.1800 C.2   1104  ANP1104     0.3518
@<TRIPOS>BOND
     1    18    17    1
     2    20    19    1
     3     3     1    2
     4    17    19    1
     5    17    15    1
     6    19    21    1
     7     1     2    1
     8     1     8    1
     9     1     4    1
    10    21    16    1
    11    21    22    1
    12    30    29    1
    13    30    31    2
    14     8     5    1
    15    15    16    1
    16    15    14    1
    17    29    28    1
    18    31    22    1
    19    31    25    1
    20    22    23    1
    21    14    13    1
    22    13     9    1
    23    12     5    1
    24    12     9    1
    25    28    26    2
    26     5     6    2
    27     5     7    1
    28    23    24    1
    29    25    26    1
    30    25    24    2
    31     9    11    2
    32     9    10    1
    33    26    27    1
