@<TRIPOS>MOLECULE
1oy7_III_F_1.pdb
 28 27 0 0 0
SMALL
GASTEIGER

@<TRIPOS>ATOM
      1  N         22.4370   48.7420   -7.8020 N.3     1  ALA1       -0.1231
      2  CA        22.8640   48.4000   -6.4240 C.3     1  ALA1        0.1694
      3  C         22.2130   47.0990   -5.9830 C.2     1  ALA1        0.2592
      4  O         21.1540   46.7250   -6.4890 O.2     1  ALA1       -0.2718
      5  CB        22.5220   49.5310   -5.4610 C.3     1  ALA1        0.0304
      6  N         22.8600   46.4010   -5.0570 N.am    2  GLU2       -0.1966
      7  CA        22.3240   45.1550   -4.5120 C.3     2  GLU2        0.1733
      8  C         22.3740   45.1810   -3.0010 C.2     2  GLU2        0.2616
      9  O         23.2350   45.8280   -2.4080 O.2     2  GLU2       -0.2715
     10  CB        23.0750   43.9260   -5.0440 C.3     2  GLU2        0.0429
     11  CG        24.5400   44.1580   -5.3730 C.3     2  GLU2        0.1163
     12  CD        25.4520   43.0520   -4.8600 C.2     2  GLU2        0.3649
     13  OE1       25.5070   42.8320   -3.6210 O.co2   2  GLU2       -0.2457
     14  OE2       26.1210   42.4080   -5.7050 O.co2   2  GLU2       -0.2457
     15  N         21.4340   44.4790   -2.3840 N.am    3  VAL3       -0.1963
     16  CA        21.3520   44.3870   -0.9350 C.3     3  VAL3        0.1727
     17  C         22.5870   43.6920   -0.3850 C.2     3  VAL3        0.2616
     18  O         23.1140   42.7760   -1.0080 O.2     3  VAL3       -0.2715
     19  CB        20.0920   43.6230   -0.5230 C.3     3  VAL3        0.0290
     20  CG1       20.2400   43.0280    0.8610 C.3     3  VAL3        0.0023
     21  CG2       18.9000   44.5460   -0.5770 C.3     3  VAL3        0.0023
     22  N         23.0690   44.1510    0.7640 N.am    4  VAL4       -0.1977
     23  CA        24.1310   43.4350    1.4590 C.3     4  VAL4        0.1596
     24  C         23.4990   42.4760    2.4670 C.2     4  VAL4        0.2287
     25  O         22.9010   42.9250    3.4550 O.2     4  VAL4       -0.2864
     26  CB        25.2050   44.3760    2.1060 C.3     4  VAL4        0.0276
     27  CG1       24.5800   45.4350    3.0180 C.3     4  VAL4        0.0022
     28  CG2       26.2700   43.5570    2.8470 C.3     4  VAL4        0.0022
@<TRIPOS>BOND
     1     1     2    1
     2     4     3    2
     3     2     3    1
     4     2     5    1
     5     3     6   am
     6    14    12   ar
     7    11    10    1
     8    11    12    1
     9     6     7    1
    10    10     7    1
    11    12    13   ar
    12     7     8    1
    13     8     9    2
    14     8    15   am
    15    15    16    1
    16    18    17    2
    17    16    19    1
    18    16    17    1
    19    21    19    1
    20    19    20    1
    21    17    22   am
    22    22    23    1
    23    23    26    1
    24    23    24    1
    25    26    28    1
    26    26    27    1
    27    24    25    2
