@<TRIPOS>MOLECULE
1oya_FMN_A_1.pdb
 31 33 0 0 0
SMALL
GASTEIGER

@<TRIPOS>ATOM
      1  N1        35.1790   67.8050   22.3250 N.2   401  FMN401     -0.2887
      2  C2        35.8480   68.5050   23.2240 C.1   401  FMN401      0.3669
      3  O2        36.9330   68.1300   23.6300 O.2   401  FMN401     -0.1744
      4  N3        35.3490   69.7040   23.7170 N.2   401  FMN401     -0.2300
      5  C4        34.2440   70.3330   23.1480 C.1   401  FMN401      0.2513
      6  O4        33.8970   71.4090   23.6550 O.2   401  FMN401     -0.2057
      7  C4A       33.5560   69.6010   22.0780 C.2   401  FMN401      0.2703
      8  N5        32.4170   70.0810   21.5110 N.2   401  FMN401     -0.3882
      9  C5A       31.6780   69.3120   20.6840 C.2   401  FMN401      0.1277
     10  C6        30.4640   69.8470   20.1860 C.3   401  FMN401      0.0820
     11  C7        29.6060   69.0290   19.4100 C.2   401  FMN401     -0.0408
     12  C7M       28.2800   69.5470   18.9320 C.3   401  FMN401      0.0265
     13  C8        30.0270   67.7110   19.0450 C.2   401  FMN401     -0.0280
     14  C8M       29.1980   66.8400   18.1280 C.3   401  FMN401      0.0304
     15  C9        31.2530   67.2140   19.5300 C.2   401  FMN401      0.0123
     16  C9A       32.0830   67.9830   20.3710 C.2   401  FMN401      0.0793
     17  N10       33.2470   67.4880   20.9370 N.pl3 401  FMN401     -0.2545
     18  C10       34.0270   68.2810   21.7600 C.2   401  FMN401      0.2449
     19  C1'       33.5720   66.0410   20.7980 C.3   401  FMN401      0.1336
     20  C2'       32.8190   65.0880   21.7500 C.3   401  FMN401      0.2048
     21  O2'       33.2380   65.3020   23.1040 O.3   401  FMN401     -0.2185
     22  C3'       33.0360   63.6350   21.3840 C.3   401  FMN401      0.2165
     23  O3'       34.4160   63.2830   21.5810 O.3   401  FMN401     -0.2175
     24  C4'       32.6480   63.3720   19.9250 C.3   401  FMN401      0.2147
     25  O4'       31.3680   63.9080   19.7140 O.3   401  FMN401     -0.2176
     26  C5'       32.6120   61.8710   19.5980 C.3   401  FMN401      0.1892
     27  O5'       31.5970   61.1850   20.4770 O.3   401  FMN401     -0.2674
     28  P         30.1940   60.8150   19.9540 P.3   401  FMN401      0.5327
     29  O1P       30.3470   59.9030   18.8570 O.2   401  FMN401     -0.2224
     30  O2P       29.3820   61.9990   19.7920 O.3   401  FMN401     -0.1145
     31  O3P       29.6070   60.0570   21.2280 O.3   401  FMN401     -0.1145
@<TRIPOS>BOND
     1    14    13    1
     2    29    28    2
     3    12    11    1
     4    13    11    2
     5    13    15    1
     6    11    10    1
     7    15    16    2
     8    26    24    1
     9    26    27    1
    10    25    24    1
    11    30    28    1
    12    24    22    1
    13    28    27    1
    14    28    31    1
    15    10     9    1
    16    16     9    1
    17    16    17    1
    18     9     8    2
    19    19    17    1
    20    19    20    1
    21    17    18    1
    22    22    23    1
    23    22    20    1
    24     8     7    2
    25    20    21    1
    26    18     7    1
    27    18     1    2
    28     7     5    1
    29     1     2    2
    30     5     6    2
    31     5     4    2
    32     2     3    2
    33     2     4    2
