@<TRIPOS>MOLECULE
1oyb_FMN_A_1.pdb
 35 37 0 0 0
SMALL
GASTEIGER

@<TRIPOS>ATOM
      1  N1        35.1960   67.8450   22.2620 N.2   401  FMN401     -0.3028
      2  C2        35.8970   68.5650   23.1150 C.1   401  FMN401      0.2727
      3  O2        36.9120   68.0970   23.5890 O.2   401  FMN401     -0.1927
      4  N3        35.5190   69.8700   23.4320 N.am  401  FMN401     -0.1956
      5  C4        34.2940   70.4270   23.0360 C.2   401  FMN401      0.2930
      6  O4        33.9130   71.5060   23.5400 O.2   401  FMN401     -0.2661
      7  C4A       33.5550   69.6760   22.0280 C.2   401  FMN401      0.2295
      8  N5        32.3950   70.1370   21.5020 N.2   401  FMN401     -0.3956
      9  C5A       31.6960   69.3940   20.6410 C.2   401  FMN401      0.1312
     10  C6        30.4890   69.9380   20.1620 C.2   401  FMN401      0.0250
     11  C7        29.6930   69.1330   19.3440 C.2   401  FMN401     -0.0238
     12  C7M       28.3680   69.6490   18.8850 C.3   401  FMN401      0.0308
     13  C8        30.1580   67.8090   18.9490 C.2   401  FMN401     -0.0280
     14  C8M       29.3850   66.9170   18.0320 C.3   401  FMN401      0.0304
     15  C9        31.3370   67.2920   19.4550 C.2   401  FMN401     -0.0041
     16  C9A       32.1260   68.0790   20.3020 C.3   401  FMN401      0.1497
     17  N10       33.3180   67.5990   20.8190 N.pl3 401  FMN401     -0.2698
     18  C10       34.0740   68.3700   21.6630 C.2   401  FMN401      0.2325
     19  C1'       33.7510   66.1930   20.5450 C.3   401  FMN401      0.1256
     20  C2'       32.9570   65.1950   21.4390 C.3   401  FMN401      0.1594
     21  O2'       33.2790   65.4130   22.8280 O.3   401  FMN401     -0.3801
     22  C3'       33.1710   63.7290   21.1040 C.3   401  FMN401      0.1681
     23  O3'       34.5450   63.3130   21.3210 O.3   401  FMN401     -0.3795
     24  C4'       32.7550   63.3740   19.6960 C.3   401  FMN401      0.1698
     25  O4'       31.4860   63.9190   19.4980 O.3   401  FMN401     -0.3794
     26  C5'       32.7060   61.8630   19.5180 C.3   401  FMN401      0.1854
     27  O5'       31.6680   61.2940   20.4260 O.3   401  FMN401     -0.2676
     28  P         30.3100   60.9010   19.8440 P.3   401  FMN401      0.5327
     29  O1P       30.4670   60.0060   18.7150 O.2   401  FMN401     -0.2224
     30  O2P       29.5200   62.1140   19.6970 O.3   401  FMN401     -0.1145
     31  O3P       29.7000   60.1510   21.0110 O.3   401  FMN401     -0.1145
     32  HN3       36.1970   70.4840   23.8250 H     401  FMN401      0.1693
     33 HO2'       33.0630   66.3330   23.0220 H     401  FMN401      0.2105
     34 HO3'       34.5320   62.3540   21.3270 H     401  FMN401      0.2105
     35 HO4'       30.8500   63.2050   19.6410 H     401  FMN401      0.2105
@<TRIPOS>BOND
     1    14    13    1
     2    29    28    2
     3    12    11    1
     4    13    11    1
     5    13    15    2
     6    11    10    2
     7    15    16    1
     8    25    35    1
     9    25    24    1
    10    26    24    1
    11    26    27    1
    12    24    22    1
    13    30    28    1
    14    28    27    1
    15    28    31    1
    16    10     9    1
    17    16     9    1
    18    16    17    1
    19    19    17    1
    20    19    20    1
    21     9     8    2
    22    17    18    1
    23    22    23    1
    24    22    20    1
    25    23    34    1
    26    20    21    1
    27     8     7    2
    28    18     7    1
    29    18     1    2
    30     7     5    1
    31     1     2    2
    32    21    33    1
    33     5     4   am
    34     5     6    2
    35     2     4   am
    36     2     3    2
    37     4    32    1
