@<TRIPOS>MOLECULE
1oyc_FMN_A_1.pdb
 35 37 0 0 0
SMALL
GASTEIGER

@<TRIPOS>ATOM
      1  N1        35.0640   67.8540   22.3830 N.2   401  FMN401     -0.3025
      2  C2        35.7780   68.5380   23.2880 C.1   401  FMN401      0.2727
      3  O2        36.8170   68.0350   23.7340 O.2   401  FMN401     -0.1927
      4  N3        35.4550   69.8720   23.6490 N.am  401  FMN401     -0.1956
      5  C4        34.2750   70.4520   23.1020 C.2   401  FMN401      0.2930
      6  O4        33.9070   71.5160   23.6530 O.2   401  FMN401     -0.2661
      7  C4A       33.5880   69.7370   21.9630 C.2   401  FMN401      0.2298
      8  N5        32.4920   70.2400   21.2900 N.2   401  FMN401     -0.3960
      9  C5A       31.6750   69.4100   20.6070 C.2   401  FMN401      0.1269
     10  C6        30.3860   69.8730   20.2430 C.3   401  FMN401      0.0820
     11  C7        29.4420   69.0050   19.6900 C.2   401  FMN401     -0.0408
     12  C7M       28.1570   69.4830   19.1140 C.3   401  FMN401      0.0265
     13  C8        29.7890   67.6580   19.5370 C.2   401  FMN401     -0.0280
     14  C8M       28.9290   66.6420   18.8820 C.3   401  FMN401      0.0304
     15  C9        31.0450   67.2090   19.8970 C.2   401  FMN401      0.0123
     16  C9A       31.9880   68.0340   20.4700 C.2   401  FMN401      0.0792
     17  N10       33.1540   67.5200   20.9770 N.pl3 401  FMN401     -0.2552
     18  C10       33.9850   68.3680   21.7180 C.2   401  FMN401      0.2358
     19  C1'       33.4450   66.0290   20.8040 C.3   401  FMN401      0.1298
     20  C2'       32.7200   65.0640   21.7410 C.3   401  FMN401      0.1597
     21  O2'       33.1270   65.3400   23.0700 O.3   401  FMN401     -0.3801
     22  C3'       33.0580   63.6120   21.5770 C.3   401  FMN401      0.1681
     23  O3'       34.4690   63.2890   21.5590 O.3   401  FMN401     -0.3795
     24  C4'       32.5980   62.9400   20.3420 C.3   401  FMN401      0.1698
     25  O4'       31.5320   63.6790   19.7650 O.3   401  FMN401     -0.3794
     26  C5'       31.9800   61.7910   21.1010 C.3   401  FMN401      0.1854
     27  O5'       31.4720   61.0160   20.0060 O.3   401  FMN401     -0.2676
     28  P         29.9910   60.6550   19.9680 P.3   401  FMN401      0.5327
     29  O1P       29.8930   59.6870   18.9310 O.2   401  FMN401     -0.2224
     30  O2P       29.2830   61.9020   19.8920 O.3   401  FMN401     -0.1145
     31  O3P       29.6850   60.0000   21.3760 O.3   401  FMN401     -0.1145
     32  HN3       36.0700   70.4250   24.1950 H     401  FMN401      0.1693
     33 HO2'       32.9740   66.2790   23.2380 H     401  FMN401      0.2105
     34 HO3'       34.8980   63.8850   22.1790 H     401  FMN401      0.2105
     35 HO4'       30.8480   63.0310   19.5330 H     401  FMN401      0.2105
@<TRIPOS>BOND
     1    14    13    1
     2    29    28    2
     3    12    11    1
     4    35    25    1
     5    13    11    2
     6    13    15    1
     7    11    10    1
     8    25    24    1
     9    30    28    1
    10    15    16    2
    11    28    27    1
    12    28    31    1
    13    27    26    1
    14    10     9    1
    15    24    26    1
    16    24    22    1
    17    16     9    1
    18    16    17    1
    19     9     8    2
    20    19    17    1
    21    19    20    1
    22    17    18    1
    23     8     7    2
    24    23    22    1
    25    23    34    1
    26    22    20    1
    27    18     7    1
    28    18     1    2
    29    20    21    1
    30     7     5    1
    31     1     2    2
    32    21    33    1
    33     5     4   am
    34     5     6    2
    35     2     4   am
    36     2     3    2
    37     4    32    1
