@<TRIPOS>MOLECULE
1oyj_GSH_A_1.pdb
 20 19 0 0 0
SMALL
GASTEIGER

@<TRIPOS>ATOM
      1  N1        35.4770    5.8160   43.3310 N.3   799  GSH799     -0.1208
      2  CA1       35.7730    5.9420   41.9410 C.3   799  GSH799      0.1948
      3  C1        35.0140    5.1240   40.9670 C.2   799  GSH799      0.3819
      4  O11       34.5880    5.4070   39.8670 O.co2 799  GSH799     -0.2441
      5  O12       34.8470    3.9900   41.3610 O.co2 799  GSH799     -0.2441
      6  CB1       37.0720    6.5640   41.4760 C.3   799  GSH799      0.0402
      7  CG1       37.1920    6.8980   39.9840 C.3   799  GSH799      0.0889
      8  CD1       38.5200    7.6080   39.7460 C.2   799  GSH799      0.2418
      9  OE1       39.4070    7.4550   40.5680 O.2   799  GSH799     -0.2733
     10  N2        38.6950    8.3280   38.6370 N.am  799  GSH799     -0.1968
     11  CA2       39.9320    9.0200   38.3730 C.3   799  GSH799      0.1843
     12  C2        39.5470   10.5070   38.2910 C.2   799  GSH799      0.2627
     13  O2        38.6480   10.7850   37.5250 O.2   799  GSH799     -0.2714
     14  CB2       40.4780    8.4970   37.0440 C.3   799  GSH799      0.0997
     15  SG2       41.1190    6.7860   37.2210 S.3   799  GSH799     -0.0797
     16  N3        39.9900   11.4250   39.1510 N.am  799  GSH799     -0.1917
     17  CA3       40.3210   12.6840   38.4360 C.3   799  GSH799      0.2285
     18  C3        41.5790   13.5020   38.7240 C.2   799  GSH799      0.3865
     19  O31       41.5370   14.7720   38.8120 O.co2 799  GSH799     -0.2437
     20  O32       42.6570   12.9350   38.8150 O.co2 799  GSH799     -0.2437
@<TRIPOS>BOND
     1    14    15    1
     2    14    11    1
     3    13    12    2
     4    12    11    1
     5    12    16   am
     6    11    10    1
     7    17    18    1
     8    17    16    1
     9    10     8   am
    10    18    19   ar
    11    18    20   ar
    12     8     7    1
    13     8     9    2
    14     4     3   ar
    15     7     6    1
    16     3     5   ar
    17     3     2    1
    18     6     2    1
    19     2     1    1
