@<TRIPOS>MOLECULE
1oyk_HEM_A_1.pdb
 43 50 0 0 0
SMALL
GASTEIGER

@<TRIPOS>ATOM
      1 FE          1.8700   20.3890   15.0700 Fe    300  HEM300      0.0000
      2  CHA        4.3440   22.4580   13.8330 C.2   300  HEM300      0.0000
      3  CHB        2.2090   21.8630   18.1500 C.2   300  HEM300      0.0000
      4  CHC       -0.7150   18.4780   16.2690 C.2   300  HEM300      0.0000
      5  CHD        1.3760   19.1410   11.9260 C.2   300  HEM300      0.0000
      6  NA         3.0410   21.7940   15.8370 N.2   300  HEM300      0.0000
      7  C1A        4.1060   22.4740   15.2120 C.2   300  HEM300      0.0000
      8  C2A        4.7910   23.3730   16.1450 C.2   300  HEM300      0.0000
      9  C3A        4.0510   23.3210   17.2910 C.2   300  HEM300      0.0000
     10  C4A        3.0080   22.3240   17.1210 C.2   300  HEM300      0.0000
     11  CMA        4.2360   24.2280   18.5000 C.3   300  HEM300      0.0000
     12  CAA        6.0090   24.2660   15.9020 C.3   300  HEM300      0.0000
     13  CBA        5.5120   25.3850   15.0020 C.3   300  HEM300      0.0000
     14  CGA        6.5310   26.4870   14.7860 C.2   300  HEM300      0.0000
     15  O1A        6.9030   27.1530   15.7760 O.co2 300  HEM300      0.0000
     16  O2A        6.9570   26.6920   13.6270 O.co2 300  HEM300      0.0000
     17  NB         1.0300   20.1270   16.8570 N.ar  300  HEM300      0.0000
     18  C1B        1.3040   20.8140   18.0350 C.ar  300  HEM300      0.0000
     19  C2B        0.4360   20.3630   19.1190 C.ar  300  HEM300      0.0000
     20  C3B       -0.2980   19.3090   18.6350 C.ar  300  HEM300      0.0000
     21  C4B        0.0090   19.2350   17.2050 C.ar  300  HEM300      0.0000
     22  CMB        0.2480   21.0590   20.4880 C.3   300  HEM300      0.0000
     23  CAB       -1.1220   18.4530   19.3740 C.3   300  HEM300      0.0000
     24  CBB       -0.8320   18.0020   20.7410 C.3   300  HEM300      0.0000
     25  NC         0.6450   19.0770   14.2730 N.2   300  HEM300      0.0000
     26  C1C       -0.4080   18.4100   14.9050 C.2   300  HEM300      0.0000
     27  C2C       -1.0400   17.4850   14.0010 C.2   300  HEM300      0.0000
     28  C3C       -0.4030   17.5850   12.8090 C.2   300  HEM300      0.0000
     29  C4C        0.6380   18.5990   12.9710 C.2   300  HEM300      0.0000
     30  CMC       -2.1980   16.5490   14.3100 C.3   300  HEM300      0.0000
     31  CAC       -0.7690   16.8850   11.6600 C.3   300  HEM300      0.0000
     32  CBC        0.0060   15.7780   11.1070 C.3   300  HEM300      0.0000
     33  ND         2.6040   20.7730   13.2540 N.ar  300  HEM300      0.0000
     34  C1D        2.2740   20.1880   12.0510 C.ar  300  HEM300      0.0000
     35  C2D        3.0870   20.7570   10.9830 C.ar  300  HEM300      0.0000
     36  C3D        3.9110   21.6750   11.5310 C.ar  300  HEM300      0.0000
     37  C4D        3.6190   21.6900   12.9230 C.ar  300  HEM300      0.0000
     38  CMD        3.1280   20.3460    9.5160 C.3   300  HEM300      0.0000
     39  CAD        5.0400   22.4460   10.8530 C.3   300  HEM300      0.0000
     40  CBD        4.6940   23.5470    9.8570 C.3   300  HEM300      0.0000
     41  CGD        5.9320   24.2260    9.2860 C.2   300  HEM300      0.0000
     42  O1D        5.7840   25.0720    8.3810 O.co2 300  HEM300      0.0000
     43  O2D        7.0580   23.9210    9.7430 O.co2 300  HEM300      0.0000
@<TRIPOS>BOND
     1    42    41   ar
     2    41    43   ar
     3    41    40    1
     4    38    35    1
     5    40    39    1
     6    39    36    1
     7    35    36   ar
     8    35    34   ar
     9    32    31    1
    10    36    37   ar
    11    31    28    1
    12     5    34    2
    13     5    29    1
    14    34    33   ar
    15    28    29    1
    16    28    27    2
    17    37    33   ar
    18    37     2    2
    19    29    25    2
    20    33     1    1
    21    16    14   ar
    22     2     7    1
    23    27    30    1
    24    27    26    1
    25    25    26    1
    26    25     1    1
    27    14    13    1
    28    14    15   ar
    29    26     4    2
    30    13    12    1
    31     1     6    1
    32     1    17    1
    33     7     6    2
    34     7     8    1
    35     6    10    1
    36    12     8    1
    37     8     9    2
    38     4    21    1
    39    17    21   ar
    40    17    18   ar
    41    10     9    1
    42    10     3    2
    43    21    20   ar
    44     9    11    1
    45    18     3    1
    46    18    19   ar
    47    20    19   ar
    48    20    23    1
    49    19    22    1
    50    23    24    1
