@<TRIPOS>MOLECULE
1oyn_ROL_A_1.pdb
 20 22 0 0 0
SMALL
GASTEIGER

@<TRIPOS>ATOM
      1  C5        21.2540   -3.2740   30.4680 C.ar  503  ROL503     -0.0162
      2  C6        21.7400   -4.4480   31.0430 C.ar  503  ROL503      0.0359
      3  C7        22.0940   -4.4810   32.3930 C.ar  503  ROL503      0.1717
      4  C8        21.9610   -3.3420   33.1720 C.ar  503  ROL503      0.1724
      5  C9        21.4790   -2.1700   32.6060 C.ar  503  ROL503      0.0397
      6  C10       21.1300   -2.1420   31.2610 C.ar  503  ROL503     -0.0009
      7  C3        20.8630   -3.2240   29.0110 C.3   503  ROL503      0.0642
      8  C2        19.4400   -3.7790   28.8390 C.3   503  ROL503      0.1280
      9  C1        19.4880   -5.0470   28.0610 C.1   503  ROL503      0.1264
     10  O1        18.5410   -5.7940   27.8120 O.2   503  ROL503     -0.2270
     11  N1        20.7510   -5.2210   27.7150 N.2   503  ROL503     -0.2059
     12  C4        21.7150   -4.2220   28.1770 C.3   503  ROL503      0.1429
     13  O3        22.5960   -5.6250   32.9860 O.3   503  ROL503     -0.4754
     14  C11       22.1190   -6.8220   32.3590 C.3   503  ROL503      0.1747
     15  C15       21.2430   -7.5860   33.3500 C.3   503  ROL503      0.0695
     16  C14       21.9100   -8.8930   33.7440 C.2   503  ROL503     -0.0268
     17  C13       23.2260   -8.9740   32.9780 C.2   503  ROL503     -0.0268
     18  C12       23.3160   -7.7340   32.1060 C.3   503  ROL503      0.0695
     19  O2        22.2940   -3.3960   34.5130 O.3   503  ROL503     -0.4684
     20  C16       23.1470   -2.3210   34.8730 C.3   503  ROL503      0.2526
@<TRIPOS>BOND
     1    11     9    2
     2    11    12    1
     3    10     9    2
     4     9     8    1
     5    12     7    1
     6     8     7    1
     7     7     1    1
     8     1     2   ar
     9     1     6   ar
    10     2     3   ar
    11     6     5   ar
    12    18    14    1
    13    18    17    1
    14    14    13    1
    15    14    15    1
    16     3    13    1
    17     3     4   ar
    18     5     4   ar
    19    17    16    2
    20     4    19    1
    21    15    16    1
    22    19    20    1
