@<TRIPOS>MOLECULE
1oyo_3ID_A_1.pdb
 11 12 0 0 0
SMALL
GASTEIGER

@<TRIPOS>ATOM
      1  N1        45.9500   45.4740   40.4300 N.2   694  3ID694     -0.2477
      2  C2        45.8130   44.1380   40.7120 C.2   694  3ID694      0.0985
      3  C3        46.9600   43.4800   40.4360 C.2   694  3ID694      0.0219
      4  C4        49.2470   44.3750   39.5040 C.2   694  3ID694      0.0463
      5  C5        49.8680   45.5440   39.0530 C.2   694  3ID694      0.2305
      6  C6        49.1960   46.7920   39.0920 C.2   694  3ID694      0.2176
      7  C7        47.8620   46.8950   39.5130 C.3   694  3ID694      0.1182
      8  C8        47.2330   45.7050   39.9690 C.2   694  3ID694      0.0670
      9  C9        47.8940   44.4460   39.9270 C.2   694  3ID694      0.0188
     10  O1        51.0060   45.2950   38.7140 O.2   694  3ID694     -0.2835
     11  O2        49.7420   47.8360   38.7050 O.2   694  3ID694     -0.2875
@<TRIPOS>BOND
     1    11     6    2
     2    10     5    2
     3     5     6    1
     4     5     4    1
     5     6     7    1
     6     4     9    2
     7     7     8    1
     8     9     8    1
     9     9     3    1
    10     8     1    2
    11     1     2    1
    12     3     2    2
