@<TRIPOS>MOLECULE
1oyq_T87_A_1.pdb
 39 43 0 0 0
SMALL
GASTEIGER

@<TRIPOS>ATOM
      1  N1        -5.0190   10.1310   19.8050 N.pl3   1  T871        0.2047
      2  N2        -3.1090   10.8320   19.0180 N.pl3   1  T871        0.2047
      3  C1        -3.7590    9.8110   19.5430 C.2     1  T871        0.4766
      4  C2        -3.1990    8.5470   19.7670 C.ar    1  T871        0.0976
      5  C3        -3.9600    7.4910   20.3590 C.ar    1  T871        0.0093
      6  C4        -3.4050    6.2260   20.5810 C.ar    1  T871        0.0164
      7  C5        -2.0670    5.9600   20.2190 C.ar    1  T871        0.0659
      8  C6        -1.2860    6.9720   19.6350 C.ar    1  T871        0.0164
      9  C7        -1.8370    8.2440   19.4110 C.ar    1  T871        0.0093
     10  N         -1.4620    4.6710   20.4280 N.pl3   1  T871       -0.2285
     11  C         -1.9140    3.5810   21.3250 C.3     1  T871        0.1867
     12  N3        -3.3210    4.2790   23.2760 N.2     1  T871       -0.3921
     13  C8        -2.0490    3.9470   22.8090 C.2     1  T871        0.1855
     14  N9        -0.9360    3.9540   23.6790 N.pl3   1  T871       -0.2611
     15  C3A       -1.6050    4.3430   24.8400 C.2     1  T871        0.0793
     16  C7A       -3.0180    4.5350   24.5940 C.2     1  T871        0.1278
     17  C10       -1.0780    4.5600   26.1550 C.2     1  T871        0.0165
     18  C11       -1.9480    4.9610   27.1810 C.2     1  T871       -0.0064
     19  C12       -3.3470    5.1540   26.9540 C.2     1  T871       -0.0323
     20  C13       -3.8870    4.9410   25.6560 C.3     1  T871        0.0826
     21  C14        0.5100    3.6470   23.4490 C.3     1  T871        0.1195
     22  C9        -5.7810    5.6030   28.0770 C.3     1  T871        0.0102
     23  C15       -5.0300    6.9050   27.7080 C.3     1  T871        0.0102
     24  C16       -4.2700    5.6670   28.1120 C.3     1  T871        0.0555
     25  C17       -3.6240    5.2410   29.4620 C.2     1  T871        0.1172
     26  N4        -3.7730    4.0090   29.8970 N.2     1  T871       -0.0850
     27  N5        -2.8060    6.2900   31.6930 N.ar    1  T871       -0.2425
     28  C18       -2.7890    6.2830   30.2730 C.ar    1  T871        0.0982
     29  C19       -2.0000    7.2410   29.5940 C.ar    1  T871        0.0205
     30  C20       -1.2420    8.1850   30.3270 C.ar    1  T871        0.0032
     31  C21       -1.2610    8.1900   31.7450 C.ar    1  T871        0.0207
     32  C22       -2.0430    7.2420   32.4320 C.ar    1  T871        0.0989
     33  OH        -4.5710    3.0370   29.1000 O.2     1  T871       -0.3652
     34  C23       -4.6000    1.7620   29.7460 C.3     1  T871        0.3465
     35  C24       -5.3700    0.7670   28.8600 C.2     1  T871        0.3650
     36  O2        -6.0520   -0.1190   29.3960 O.2     1  T871       -0.2458
     37  O3        -5.2870    0.8810   27.4870 O.3     1  T871       -0.4459
     38  C25       -6.2810    0.2790   25.3430 C.3     1  T871        0.0513
     39  C26       -6.0670   -0.1290   26.8150 C.3     1  T871        0.2087
@<TRIPOS>BOND
     1     2     3    2
     2     9     8   ar
     3     9     4   ar
     4     3     4    1
     5     3     1    1
     6     8     7   ar
     7     4     5   ar
     8     7    10    1
     9     7     6   ar
    10     5     6   ar
    11    10    11    1
    12    11    13    1
    13    13    12    2
    14    13    14    1
    15    12    16    2
    16    21    14    1
    17    14    15    1
    18    16    15    1
    19    16    20    1
    20    15    17    2
    21    38    39    1
    22    20    19    1
    23    17    18    1
    24    39    37    1
    25    19    18    2
    26    19    24    1
    27    37    35    1
    28    23    22    1
    29    23    24    1
    30    22    24    1
    31    24    25    1
    32    35    36    2
    33    35    34    1
    34    33    34    1
    35    33    26    1
    36    25    26    2
    37    25    28    1
    38    29    28   ar
    39    29    30   ar
    40    28    27   ar
    41    30    31   ar
    42    27    32   ar
    43    31    32   ar
