@<TRIPOS>MOLECULE
1oyt_FSN_H_1.pdb
 30 34 0 0 0
SMALL
GASTEIGER

@<TRIPOS>ATOM
      1  O21       16.6950  -12.8160   22.7290 O.2   501  FSN501     -0.2744
      2  C20       17.4090  -12.5450   21.7800 C.2   501  FSN501      0.2333
      3  N19       18.5310  -13.3290   21.4300 N.am  501  FSN501     -0.2255
      4  C23       18.8670  -14.5430   22.1730 C.3   501  FSN501      0.1274
      5  C24       19.7880  -14.2110   23.3150 C.ar  501  FSN501     -0.0018
      6  C32       19.2510  -14.0800   24.6100 C.ar  501  FSN501     -0.0003
      7  C31       20.1060  -13.8060   25.6770 C.ar  501  FSN501      0.0294
      8  C30       21.4750  -13.6670   25.4130 C.ar  501  FSN501      0.1401
      9  F29       22.2470  -13.4240   26.4870 F     501  FSN501     -0.2042
     10  C26       22.0580  -13.7740   24.1420 C.ar  501  FSN501      0.0294
     11  C25       21.1740  -14.0520   23.0690 C.ar  501  FSN501     -0.0003
     12  C17       19.0640  -12.9060   20.1780 C.2   501  FSN501      0.2330
     13  O18       20.0420  -13.3920   19.6320 O.2   501  FSN501     -0.2744
     14  C16       18.2450  -11.8120   19.6630 C.3   501  FSN501      0.1019
     15  C15       17.2170  -12.1980   18.6000 C.3   501  FSN501      0.0669
     16  N11       15.7990  -12.4400   19.1400 N.3   501  FSN501     -0.2707
     17  C12       14.9690  -11.9970   17.9830 C.3   501  FSN501      0.0723
     18  C13       15.8910  -12.1930   16.7360 C.3   501  FSN501      0.0187
     19  C14       17.2510  -11.6720   17.2230 C.3   501  FSN501      0.0179
     20  C10       15.8630  -11.3370   20.1940 C.3   501  FSN501      0.0892
     21  C7        14.6700  -11.2040   21.0920 C.ar  501  FSN501     -0.0073
     22  C8        13.9280  -12.3500   21.3610 C.ar  501  FSN501     -0.0027
     23  C9        12.8510  -12.2910   22.2350 C.ar  501  FSN501      0.0077
     24  C4        12.5240  -11.0440   22.8370 C.ar  501  FSN501      0.0975
     25  C5        13.2700   -9.8900   22.5730 C.ar  501  FSN501      0.0077
     26  C6        14.3560   -9.9610   21.6950 C.ar  501  FSN501     -0.0027
     27  C3        11.3830  -11.0010   23.7370 C.2   501  FSN501      0.4766
     28  N1        10.5520  -12.0640   23.8870 N.pl3 501  FSN501      0.2047
     29  N2        11.0790   -9.9100   24.4850 N.pl3 501  FSN501      0.2047
     30  C22       17.2470  -11.4430   20.8070 C.3   501  FSN501      0.1058
@<TRIPOS>BOND
     1    18    19    1
     2    18    17    1
     3    19    15    1
     4    17    16    1
     5    15    16    1
     6    15    14    1
     7    16    20    1
     8    13    12    2
     9    14    12    1
    10    14    30    1
    11    12     3   am
    12    20    30    1
    13    20    21    1
    14    30     2    1
    15    21    22   ar
    16    21    26   ar
    17    22    23   ar
    18     3     2   am
    19     3     4    1
    20    26    25   ar
    21     2     1    2
    22     4     5    1
    23    23    24   ar
    24    25    24   ar
    25    24    27    1
    26    11     5   ar
    27    11    10   ar
    28     5     6   ar
    29    27    28    2
    30    27    29    1
    31    10     8   ar
    32     6     7   ar
    33     8     7   ar
    34     8     9    1
