@<TRIPOS>MOLECULE
1oyy_AGS_A_1.pdb
 31 33 0 0 0
SMALL
GASTEIGER

@<TRIPOS>ATOM
      1  PG        12.6950   -6.2010   16.6740 P.3   527  AGS527      0.4340
      2  S1G       13.3620   -6.1100   18.0030 S.3   527  AGS527      0.0416
      3  O2G       11.2600   -5.9080   16.8670 O.3   527  AGS527     -0.1305
      4  O3G       13.2180   -5.1030   15.8030 O.2   527  AGS527     -0.2423
      5  PB        13.1600   -8.4780   14.7440 P.3   527  AGS527      0.2262
      6  O1B       11.8940   -9.1420   14.4100 O.3   527  AGS527     -0.4369
      7  O2B       13.7210   -7.9520   13.4860 O.2   527  AGS527     -0.5168
      8  O3B       13.0990   -7.5930   16.0430 O.3   527  AGS527     -0.2405
      9  PA        15.3050  -10.3660   14.2420 P.3   527  AGS527      0.2189
     10  O1A       15.1240  -10.0080   12.8200 O.2   527  AGS527     -0.5170
     11  O2A       16.6950  -10.1730   14.7060 O.3   527  AGS527     -0.4371
     12  O3A       14.2770   -9.5490   15.2010 O.3   527  AGS527     -0.2701
     13  O5'       14.8140  -11.8380   14.5980 O.3   527  AGS527     -0.3112
     14  C5'       15.0800  -12.2220   15.9630 C.3   527  AGS527      0.1813
     15  C4'       15.3400  -13.6660   16.2030 C.3   527  AGS527      0.1821
     16  O4'       14.5030  -14.5710   15.4680 O.3   527  AGS527     -0.3135
     17  C3'       16.7680  -14.1680   16.0260 C.3   527  AGS527      0.2184
     18  O3'       16.9180  -15.1510   17.1040 O.3   527  AGS527     -0.2174
     19  C2'       16.6770  -14.9440   14.7090 C.3   527  AGS527      0.2570
     20  O2'       17.2730  -14.7110   13.4670 O.3   527  AGS527     -0.2130
     21  C1'       15.2980  -15.5430   14.8560 C.3   527  AGS527      0.3186
     22  N9        14.7640  -16.0990   13.6400 N.pl3 527  AGS527     -0.1439
     23  C8        14.3120  -15.3980   12.5650 C.3   527  AGS527      0.3377
     24  N7        13.5070  -15.9970   11.7940 N.2   527  AGS527     -0.2095
     25  C5        13.3870  -17.1910   12.3240 C.2   527  AGS527      0.2526
     26  C6        12.6570  -18.2760   11.9050 C.2   527  AGS527      0.4393
     27  N6        11.8700  -18.3840   10.8430 N.pl3 527  AGS527      0.2180
     28  N1        12.7310  -19.3830   12.6800 N.2   527  AGS527      0.0021
     29  C2        13.5140  -19.3610   13.8140 C.3   527  AGS527      0.5254
     30  N3        14.2700  -18.3840   14.2710 N.2   527  AGS527     -0.0055
     31  C4        14.1490  -17.3190   13.4680 C.2   527  AGS527      0.3518
@<TRIPOS>BOND
     1    27    26    1
     2    24    25    2
     3    24    23    1
     4    26    25    1
     5    26    28    2
     6    25    31    1
     7    23    22    1
     8    28    29    1
     9    10     9    2
    10    20    19    1
    11    31    22    1
    12    31    30    2
    13     7     5    2
    14    22    21    1
    15    29    30    1
    16     9    13    1
    17     9    11    1
    18     9    12    1
    19     6     5    1
    20    13    14    1
    21    19    21    1
    22    19    17    1
    23     5    12    1
    24     5     8    1
    25    21    16    1
    26    16    15    1
    27     4     1    2
    28    14    15    1
    29    17    15    1
    30    17    18    1
    31     8     1    1
    32     1     3    1
    33     1     2    1
