@<TRIPOS>MOLECULE
1oz1_FPH_A_1.pdb
 23 26 0 0 0
SMALL
GASTEIGER

@<TRIPOS>ATOM
      1  O12       22.9580   13.8160   33.2690 O.3   500  FPH500     -0.1632
      2  N07       21.6960   14.0160   33.0600 N.ar  500  FPH500     -0.1287
      3  C01       21.1480   15.2740   33.0560 C.ar  500  FPH500      0.1197
      4  C06       21.6920   16.5690   33.2740 C.ar  500  FPH500      0.0238
      5  C05       20.7940   17.6450   33.2060 C.ar  500  FPH500      0.0223
      6  C04       19.4490   17.3950   32.9130 C.ar  500  FPH500      0.0989
      7  N03       18.9110   16.1640   32.6780 N.ar  500  FPH500     -0.2422
      8  C02       19.7840   15.0960   32.7640 C.ar  500  FPH500      0.1019
      9  C08       19.5260   13.6820   32.5980 C.ar  500  FPH500      0.0383
     10  C24       18.2190   13.0650   32.3100 C.ar  500  FPH500      0.0031
     11  C25       17.7200   12.0650   33.1830 C.ar  500  FPH500      0.0024
     12  C26       16.4790   11.4420   32.9480 C.ar  500  FPH500      0.0296
     13  C27       15.7220   11.8500   31.8500 C.ar  500  FPH500      0.1401
     14  F32       14.5350   11.2560   31.6140 F     500  FPH500     -0.2042
     15  C28       16.1900   12.8430   30.9700 C.ar  500  FPH500      0.0296
     16  C29       17.4320   13.4490   31.2020 C.ar  500  FPH500      0.0024
     17  C13       20.7700   13.0000   32.7920 C.ar  500  FPH500      0.1037
     18  C14       21.1970   11.5670   32.7220 C.ar  500  FPH500      0.0223
     19  C19       22.2090   11.0690   33.5820 C.ar  500  FPH500      0.0222
     20  C18       22.6200    9.7380   33.4590 C.ar  500  FPH500      0.0989
     21  N17       22.0850    8.8740   32.5420 N.ar  500  FPH500     -0.2423
     22  C16       21.1230    9.3570   31.7230 C.ar  500  FPH500      0.0989
     23  C15       20.6600   10.6740   31.7710 C.ar  500  FPH500      0.0222
@<TRIPOS>BOND
     1    15    16   ar
     2    15    13   ar
     3    16    10   ar
     4    14    13    1
     5    22    23   ar
     6    22    21   ar
     7    23    18   ar
     8    13    12   ar
     9    10     9    1
    10    10    11   ar
    11    21    20   ar
    12     9     8   ar
    13     9    17   ar
    14     7     8   ar
    15     7     6   ar
    16    18    17    1
    17    18    19   ar
    18     8     3   ar
    19    17     2   ar
    20     6     5   ar
    21    12    11   ar
    22     3     2   ar
    23     3     4   ar
    24     2     1    1
    25     5     4   ar
    26    20    19   ar
