@<TRIPOS>MOLECULE
1ozf_TPP_A_1.pdb
 26 27 0 0 0
SMALL
GASTEIGER

@<TRIPOS>ATOM
      1  N1'      118.9960    5.2400   22.4130 N.2   700  TPP700     -0.1861
      2  C2'      120.0580    5.2240   23.2940 C.1   700  TPP700      0.0663
      3  CM2      119.9090    5.1460   24.7870 C.3   700  TPP700      0.1291
      4  N3'      121.3010    5.2780   22.7980 N.2   700  TPP700     -0.3368
      5  C4'      121.5610    5.3520   21.4350 C.2   700  TPP700      0.2292
      6  N4'      122.8090    5.3960   21.1000 N.pl3 700  TPP700     -0.0925
      7  C5'      120.4850    5.3740   20.4480 C.2   700  TPP700      0.0654
      8  C6'      119.1560    5.3150   21.0080 C.2   700  TPP700      0.1115
      9  C7'      120.6620    5.4540   18.8740 C.3   700  TPP700      0.1237
     10  N3       121.3750    6.7050   18.5020 N.pl3 700  TPP700     -0.2970
     11  C2       122.8460    6.6410   18.5220 C.3   700  TPP700      0.1543
     12  S1       123.5340    8.0520   18.8470 S.3   700  TPP700     -0.0951
     13  C5       121.9770    8.8640   18.9790 C.2   700  TPP700      0.0164
     14  C4       120.8980    7.9970   18.7660 C.2   700  TPP700      0.0279
     15  CM4      119.5620    8.4110   18.8150 C.3   700  TPP700      0.0473
     16  C6       121.7850   10.2790   19.2680 C.3   700  TPP700      0.0661
     17  C7       122.2270   11.3490   18.3280 C.3   700  TPP700      0.1544
     18  O7       121.7720   12.6570   19.0060 O.3   700  TPP700     -0.3134
     19  PA       122.8180   13.6170   19.5310 P.3   700  TPP700      0.2230
     20  O1A      122.0280   14.8300   19.5930 O.2   700  TPP700     -0.5169
     21  O2A      123.2600   13.0370   20.8030 O.3   700  TPP700     -0.4370
     22  O3A      124.0210   13.6910   18.4840 O.3   700  TPP700     -0.2261
     23  PB       124.1710   14.2440   16.9680 P.3   700  TPP700      0.5373
     24  O1B      125.2370   15.1900   17.1130 O.3   700  TPP700     -0.1143
     25  O2B      124.4740   13.0230   16.1200 O.2   700  TPP700     -0.2221
     26  O3B      122.8100   14.7470   16.7010 O.3   700  TPP700     -0.1143
@<TRIPOS>BOND
     1    25    23    2
     2    26    23    1
     3    23    24    1
     4    23    22    1
     5    17    18    1
     6    17    16    1
     7    22    19    1
     8    10    11    1
     9    10    14    1
    10    10     9    1
    11    11    12    1
    12    14    15    1
    13    14    13    2
    14    12    13    1
    15     9     7    1
    16    13    16    1
    17    18    19    1
    18    19    20    2
    19    19    21    1
    20     7     8    2
    21     7     5    1
    22     8     1    1
    23     6     5    1
    24     5     4    2
    25     1     2    2
    26     4     2    2
    27     2     3    1
