@<TRIPOS>MOLECULE
1ozg_HE3_A_1.pdb
 29 31 0 0 0
SMALL
GASTEIGER

@<TRIPOS>ATOM
      1  C9       124.2630    5.8560   16.9390 C.3   700  HE3700      0.0404
      2  C8       124.1460    5.5430   18.4280 C.3   700  HE3700      0.2007
      3  O9       123.6830    4.1220   18.1230 O.3   700  HE3700     -0.2183
      4  C2       123.3540    6.5660   19.3210 C.3   700  HE3700      0.2260
      5  N4'      123.5130    5.8210   20.7410 N.2   700  HE3700     -0.1810
      6  C4'      122.1350    5.5340   21.3700 C.1   700  HE3700      0.0950
      7  N3'      122.2260    5.4150   22.8040 N.2   700  HE3700     -0.3027
      8  C2'      121.0660    5.1550   23.5680 C.1   700  HE3700      0.0757
      9  CM2      121.2540    5.0530   24.9770 C.3   700  HE3700      0.1300
     10  N1'      119.8020    5.0220   22.8330 N.2   700  HE3700     -0.1849
     11  C6'      119.6850    5.1420   21.3430 C.2   700  HE3700      0.1185
     12  C5'      120.8880    5.4100   20.5380 C.2   700  HE3700      0.0922
     13  C7'      120.9210    5.5570   19.0160 C.3   700  HE3700      0.1323
     14  N3       121.9210    6.6590   18.6420 N.pl3 700  HE3700     -0.2803
     15  C4       121.6450    8.1400   18.9860 C.2   700  HE3700      0.0334
     16  CM4      120.1910    8.6480   18.9110 C.3   700  HE3700      0.0477
     17  C5       122.8550    8.9190   19.3530 C.2   700  HE3700      0.0409
     18  C6       122.7630   10.3040   19.6860 C.2   700  HE3700      0.0476
     19  C7       122.9180   11.3270   18.6410 C.2   700  HE3700      0.1792
     20  O7       122.8160   12.7070   18.9550 O.2   700  HE3700     -0.4366
     21  PA       123.6240   13.7530   19.5670 P.3   700  HE3700      0.2779
     22  O2A      122.7980   14.9210   19.5240 O.2   700  HE3700     -0.5080
     23  O3A      124.0230   13.1320   20.8580 O.3   700  HE3700     -0.4271
     24  O1A      124.8570   13.8150   18.5450 O.3   700  HE3700     -0.2160
     25  PB       125.0050   14.3620   17.0920 P.3   700  HE3700      0.5380
     26  O1B      126.0590   15.3230   17.2490 O.3   700  HE3700     -0.1143
     27  O2B      125.3450   13.1690   16.2420 O.2   700  HE3700     -0.2221
     28  O3B      123.6520   14.8930   16.7560 O.3   700  HE3700     -0.1143
     29  S1       124.3400    8.0350   19.3370 S.3   700  HE3700     -0.0699
@<TRIPOS>BOND
     1    27    25    2
     2    28    25    1
     3     1     2    1
     4    25    26    1
     5    25    24    1
     6     3     2    1
     7     2     4    1
     8    24    21    1
     9    19    20    1
    10    19    18    2
    11    14    15    1
    12    14    13    1
    13    14     4    1
    14    16    15    1
    15    20    21    1
    16    15    17    2
    17    13    12    1
    18     4    29    1
    19     4     5    1
    20    29    17    1
    21    17    18    1
    22    22    21    2
    23    21    23    1
    24    12    11    2
    25    12     6    1
    26     5     6    2
    27    11    10    1
    28     6     7    2
    29     7     8    2
    30    10     8    2
    31     8     9    1
