@<TRIPOS>MOLECULE
1ozh_HE3_A_1.pdb
 29 31 0 0 0
SMALL
GASTEIGER

@<TRIPOS>ATOM
      1  C9       -16.3980   -2.8870    4.0500 C.3   1406  HE31406     0.0404
      2  C8       -15.1330   -2.5410    3.2660 C.3   1406  HE31406     0.2007
      3  O9       -14.8260   -4.0220    3.0130 O.3   1406  HE31406    -0.2183
      4  C2       -14.1340   -1.5300    3.9350 C.3   1406  HE31406     0.2260
      5  N4'      -13.0480   -1.5240    2.7630 N.2   1406  HE31406    -0.1810
      6  C4'      -11.6730   -1.9110    3.3040 C.1   1406  HE31406     0.0950
      7  N3'      -10.6180   -1.3670    2.4860 N.2   1406  HE31406    -0.3027
      8  C2'       -9.2700   -1.6110    2.8310 C.1   1406  HE31406     0.0757
      9  CM2       -8.2920   -1.0460    1.9790 C.3   1406  HE31406     0.1300
     10  N1'       -9.0310   -2.4160    4.0250 N.2   1406  HE31406    -0.1849
     11  C6'      -10.1050   -2.9880    4.8840 C.2   1406  HE31406     0.1185
     12  C5'      -11.5080   -2.7480    4.5420 C.2   1406  HE31406     0.0922
     13  C7'      -12.7070   -3.2670    5.3270 C.3   1406  HE31406     0.1323
     14  N3       -13.7730   -2.1720    5.3400 N.pl3 1406  HE31406    -0.2803
     15  C4       -13.5420   -0.8500    6.0980 C.2   1406  HE31406     0.0334
     16  CM4      -12.7420   -0.8940    7.4230 C.3   1406  HE31406     0.0477
     17  C5       -14.1420    0.3400    5.4440 C.2   1406  HE31406     0.0409
     18  C6       -14.0260    1.6380    6.0380 C.2   1406  HE31406     0.0476
     19  C7       -15.0290    2.0870    7.0310 C.2   1406  HE31406     0.1792
     20  O7       -14.9420    3.3660    7.6480 O.2   1406  HE31406    -0.4366
     21  PA       -15.1740    4.7650    7.2940 P.3   1406  HE31406     0.2779
     22  O2A      -14.8560    5.5080    8.4700 O.3   1406  HE31406    -0.4271
     23  O3A      -14.3650    4.9190    6.0500 O.2   1406  HE31406    -0.5080
     24  O1A      -16.7450    4.7150    6.9780 O.3   1406  HE31406    -0.2160
     25  PB       -18.0290    4.5790    7.8670 P.3   1406  HE31406     0.5380
     26  O1B      -18.7660    5.7490    7.4860 O.3   1406  HE31406    -0.1143
     27  O2B      -18.6670    3.2910    7.4690 O.2   1406  HE31406    -0.2221
     28  O3B      -17.5130    4.5080    9.2700 O.3   1406  HE31406    -0.1143
     29  S1       -14.9720    0.0240    3.9640 S.3   1406  HE31406    -0.0699
@<TRIPOS>BOND
     1     9     8    1
     2     7     8    2
     3     7     6    2
     4     5     6    2
     5     5     4    1
     6     8    10    2
     7     3     2    1
     8     2     4    1
     9     2     1    1
    10     6    12    1
    11     4    29    1
    12     4    14    1
    13    29    17    1
    14    10    11    1
    15    12    11    2
    16    12    13    1
    17    13    14    1
    18    14    15    1
    19    17    18    1
    20    17    15    2
    21    18    19    2
    22    23    21    2
    23    15    16    1
    24    24    21    1
    25    24    25    1
    26    19    20    1
    27    21    20    1
    28    21    22    1
    29    27    25    2
    30    26    25    1
    31    25    28    1
