@<TRIPOS>MOLECULE
1ozl_HEM_A_1.pdb
 43 50 0 0 0
SMALL
GASTEIGER

@<TRIPOS>ATOM
      1 FE         18.6440   -0.0830    4.1000 Fe    300  HEM300      0.0000
      2  CHA       17.3160    2.2850    6.1760 C.2   300  HEM300      0.0000
      3  CHB       21.8230    0.8040    5.0500 C.2   300  HEM300      0.0000
      4  CHC       19.9030   -2.7030    2.2790 C.2   300  HEM300      0.0000
      5  CHD       15.4860   -0.7490    2.8830 C.2   300  HEM300      0.0000
      6  NA        19.4010    1.2630    5.3090 N.2   300  HEM300      0.0000
      7  C1A       18.7070    2.1630    6.1180 C.2   300  HEM300      0.0000
      8  C2A       19.6300    3.0240    6.8430 C.2   300  HEM300      0.0000
      9  C3A       20.8880    2.6410    6.4840 C.2   300  HEM300      0.0000
     10  C4A       20.7490    1.5490    5.5440 C.2   300  HEM300      0.0000
     11  CMA       22.1970    3.2380    6.9940 C.3   300  HEM300      0.0000
     12  CAA       19.2640    4.1960    7.7600 C.3   300  HEM300      0.0000
     13  CBA       18.6610    3.7990    9.1000 C.3   300  HEM300      0.0000
     14  CGA       18.1300    4.9910    9.8740 C.2   300  HEM300      0.0000
     15  O1A       17.2430    5.6940    9.3480 O.co2 300  HEM300      0.0000
     16  O2A       18.6000    5.2250   11.0060 O.co2 300  HEM300      0.0000
     17  NB        20.4620   -0.8230    3.7780 N.ar  300  HEM300      0.0000
     18  C1B       21.6760   -0.3360    4.2620 C.ar  300  HEM300      0.0000
     19  C2B       22.7740   -1.2110    3.8960 C.ar  300  HEM300      0.0000
     20  C3B       22.2460   -2.2260    3.1640 C.ar  300  HEM300      0.0000
     21  C4B       20.8020   -1.9630    3.0580 C.ar  300  HEM300      0.0000
     22  CMB       24.2410   -1.0470    4.3070 C.3   300  HEM300      0.0000
     23  CAB       22.9290   -3.3510    2.7060 C.3   300  HEM300      0.0000
     24  CBB       24.0840   -3.2850    1.8130 C.3   300  HEM300      0.0000
     25  NC        17.8750   -1.3730    2.8120 N.2   300  HEM300      0.0000
     26  C1C       18.5370   -2.4120    2.1460 C.2   300  HEM300      0.0000
     27  C2C       17.6160   -3.1460    1.2790 C.2   300  HEM300      0.0000
     28  C3C       16.4000   -2.5320    1.3760 C.2   300  HEM300      0.0000
     29  C4C       16.5570   -1.4720    2.3650 C.2   300  HEM300      0.0000
     30  CMC       17.9430   -4.3970    0.4580 C.3   300  HEM300      0.0000
     31  CAC       15.2350   -2.7650    0.6210 C.3   300  HEM300      0.0000
     32  CBC       14.6130   -4.0600    0.4010 C.3   300  HEM300      0.0000
     33  ND        16.8100    0.5870    4.4800 N.ar  300  HEM300      0.0000
     34  C1D       15.6060    0.1790    3.9020 C.ar  300  HEM300      0.0000
     35  C2D       14.4850    0.9020    4.4660 C.ar  300  HEM300      0.0000
     36  C3D       14.9810    1.7690    5.3660 C.ar  300  HEM300      0.0000
     37  C4D       16.4280    1.5620    5.3960 C.ar  300  HEM300      0.0000
     38  CMD       13.0190    0.7990    4.0480 C.3   300  HEM300      0.0000
     39  CAD       14.1200    2.7990    6.1010 C.3   300  HEM300      0.0000
     40  CBD       13.9820    2.5350    7.5900 C.3   300  HEM300      0.0000
     41  CGD       12.9830    3.4660    8.2580 C.2   300  HEM300      0.0000
     42  O1D       11.7640    3.2170    8.1410 O.co2 300  HEM300      0.0000
     43  O2D       13.4200    4.4500    8.8900 O.co2 300  HEM300      0.0000
@<TRIPOS>BOND
     1    32    31    1
     2    30    27    1
     3    31    28    1
     4    27    28    2
     5    27    26    1
     6    28    29    1
     7    24    23    1
     8    26     4    2
     9    26    25    1
    10     4    21    1
    11    29    25    2
    12    29     5    1
    13    23    20    1
    14    25     1    1
    15     5    34    2
    16    21    20   ar
    17    21    17   ar
    18    20    19   ar
    19    17     1    1
    20    17    18   ar
    21    19    18   ar
    22    19    22    1
    23    34    35   ar
    24    34    33   ar
    25    38    35    1
    26     1    33    1
    27     1     6    1
    28    18     3    1
    29    35    36   ar
    30    33    37   ar
    31     3    10    2
    32     6    10    1
    33     6     7    2
    34    36    37   ar
    35    36    39    1
    36    37     2    2
    37    10     9    1
    38    39    40    1
    39     7     2    1
    40     7     8    1
    41     9     8    2
    42     9    11    1
    43     8    12    1
    44    40    41    1
    45    12    13    1
    46    42    41   ar
    47    41    43   ar
    48    13    14    1
    49    15    14   ar
    50    14    16   ar
