@<TRIPOS>MOLECULE
1ozq_PRF_A_1.pdb
 13 14 0 0 0
SMALL
GASTEIGER

@<TRIPOS>ATOM
      1  N1        16.5220   17.0720   24.2300 N.2   900  PRF900     -0.2525
      2  C2        15.2420   16.6900   23.8780 C.1   900  PRF900      0.2602
      3  N3        14.8950   16.5130   22.6410 N.2   900  PRF900     -0.2733
      4  C4        15.7620   16.6930   21.5970 C.1   900  PRF900      0.0973
      5  C5        17.0910   17.0830   21.8330 C.3   900  PRF900      0.2372
      6  C6        17.5020   17.2890   23.2910 C.1   900  PRF900      0.2101
      7  O6        18.6450   17.6280   23.5710 O.2   900  PRF900     -0.2120
      8  C7        17.7370   17.1910   20.6000 C.2   900  PRF900      0.0258
      9  C10       19.1950   17.5910   20.3490 C.3   900  PRF900      0.1351
     10  N11       19.6140   17.1600   18.9970 N.3   900  PRF900     -0.1264
     11  C8        16.7650   16.8570   19.6460 C.2   900  PRF900      0.1053
     12  N9        15.6010   16.5640   20.2700 N.2   900  PRF900     -0.1847
     13  N2        14.3520   16.5040   24.8590 N.pl3 900  PRF900     -0.0221
@<TRIPOS>BOND
     1    10     9    1
     2    11    12    1
     3    11     8    2
     4    12     4    2
     5     9     8    1
     6     8     5    1
     7     4     5    1
     8     4     3    2
     9     5     6    1
    10     3     2    2
    11     6     7    2
    12     6     1    2
    13     2     1    2
    14     2    13    1
