@<TRIPOS>MOLECULE
1ozv_LYS_A_1.pdb
 10 9 0 0 0
SMALL
GASTEIGER

@<TRIPOS>ATOM
      1  N         69.6190  132.8230   63.0910 N.3   700  LYS700     -0.1208
      2  CA        69.7540  134.3000   62.9370 C.3   700  LYS700      0.1943
      3  C         69.1730  134.9860   64.1640 C.2   700  LYS700      0.3819
      4  O         68.9500  134.2750   65.1680 O.co2 700  LYS700     -0.2441
      5  CB        69.0090  134.7830   61.6890 C.3   700  LYS700      0.0307
      6  CG        69.3610  134.0410   60.4170 C.3   700  LYS700      0.0036
      7  CD        68.6450  134.6420   59.2240 C.3   700  LYS700      0.0206
      8  CE        68.8410  133.7990   57.9700 C.3   700  LYS700      0.1093
      9  NZ        68.3170  134.4910   56.7520 N.3   700  LYS700     -0.1314
     10  OXT       68.9470  136.2170   64.1020 O.co2 700  LYS700     -0.2441
@<TRIPOS>BOND
     1     9     8    1
     2     8     7    1
     3     7     6    1
     4     6     5    1
     5     5     2    1
     6     2     1    1
     7     2     3    1
     8    10     3   ar
     9     3     4   ar
