@<TRIPOS>MOLECULE
1ozv_SAH_A_1.pdb
 26 28 0 0 0
SMALL
GASTEIGER

@<TRIPOS>ATOM
      1  N         71.1880  132.5790   50.4690 N.3   1000  SAH1000    -0.1208
      2  CA        69.8530  132.1200   50.8650 C.3   1000  SAH1000     0.1952
      3  CB        69.1990  133.1570   51.8220 C.3   1000  SAH1000     0.0422
      4  CG        69.7710  133.1990   53.2110 C.3   1000  SAH1000     0.0597
      5  SD        68.9130  132.2030   54.4990 S.3   1000  SAH1000    -0.1375
      6  C         68.9580  131.8510   49.5980 C.2   1000  SAH1000     0.3819
      7  O         67.7340  131.6500   49.7350 O.co2 1000  SAH1000    -0.2441
      8  OXT       69.4650  131.8290   48.4600 O.co2 1000  SAH1000    -0.2441
      9  C5'       70.3180  131.2830   55.1090 C.3   1000  SAH1000     0.0899
     10  C4'       70.7040  130.0930   54.2520 C.3   1000  SAH1000     0.1630
     11  O4'       71.5820  130.5170   53.1690 O.3   1000  SAH1000    -0.3153
     12  C3'       71.4860  129.0190   54.9930 C.3   1000  SAH1000     0.2168
     13  O3'       70.6290  128.0290   55.5470 O.3   1000  SAH1000    -0.2175
     14  C2'       72.4410  128.4610   53.9470 C.3   1000  SAH1000     0.2569
     15  O2'       71.9940  127.3680   53.1720 O.3   1000  SAH1000    -0.2130
     16  C1'       72.7700  129.7350   53.1670 C.3   1000  SAH1000     0.3185
     17  N9        73.9040  130.5050   53.7540 N.pl3 1000  SAH1000    -0.1439
     18  C8        73.8950  131.6550   54.5320 C.3   1000  SAH1000     0.3377
     19  N7        75.0750  132.0790   54.8880 N.2   1000  SAH1000    -0.2095
     20  C5        75.9380  131.1500   54.3260 C.2   1000  SAH1000     0.2526
     21  C6        77.3520  131.0370   54.3180 C.2   1000  SAH1000     0.4393
     22  N6        78.1470  131.8890   54.9590 N.pl3 1000  SAH1000     0.2180
     23  N1        77.9180  129.9820   53.6470 N.2   1000  SAH1000     0.0021
     24  C2        77.1170  129.1000   52.9900 C.3   1000  SAH1000     0.5254
     25  N3        75.7640  129.1060   52.9170 N.2   1000  SAH1000    -0.0055
     26  C4        75.2340  130.1800   53.5980 C.2   1000  SAH1000     0.3518
@<TRIPOS>BOND
     1     8     6   ar
     2     6     7   ar
     3     6     2    1
     4     1     2    1
     5     2     3    1
     6     3     4    1
     7    25    24    1
     8    25    26    2
     9    24    23    1
    10    16    11    1
    11    16    17    1
    12    16    14    1
    13    11    10    1
    14    15    14    1
    15     4     5    1
    16    26    17    1
    17    26    20    1
    18    23    21    2
    19    17    18    1
    20    14    12    1
    21    10    12    1
    22    10     9    1
    23    21    20    1
    24    21    22    1
    25    20    19    2
    26     5     9    1
    27    18    19    1
    28    12    13    1
