@<TRIPOS>MOLECULE
1p01_0EG_A_1.pdb
 27 27 0 0 0
SMALL
GASTEIGER

@<TRIPOS>ATOM
      1  O1        13.1720   39.3550   19.4720 O.2     4  0EG4        0.0000
      2  C         13.6320   39.4020   18.3460 C.2     4  0EG4        0.0000
      3  O2        14.5250   40.4990   17.8750 O.3     4  0EG4        0.0000
      4  CT        15.0140   41.4770   18.8990 C.3     4  0EG4        0.0000
      5  C1        15.7880   40.6710   19.9350 C.3     4  0EG4        0.0000
      6  C2        15.9310   42.4590   18.1580 C.3     4  0EG4        0.0000
      7  C3        13.7970   42.1990   19.4380 C.3     4  0EG4        0.0000
      8  N         13.5280   38.3860   17.4830 N.am    4  0EG4        0.0000
      9  CA        12.7720   37.2260   17.9180 C.3     4  0EG4        0.0000
     10  C4        13.5690   36.0430   17.4680 C.2     4  0EG4        0.0000
     11  O         14.4720   36.2820   16.6650 O.2     4  0EG4        0.0000
     12  CB        11.7340   36.9670   16.9100 C.3     4  0EG4        0.0000
     13  N1        13.3800   34.8800   18.0750 N.am    4  0EG4        0.0000
     14  CA1       14.1290   33.6690   17.7300 C.3     4  0EG4        0.0000
     15  C5        13.7980   33.2290   16.3080 C.2     4  0EG4        0.0000
     16  O3        12.6410   33.4520   15.8930 O.2     4  0EG4        0.0000
     17  CB1       13.6850   32.6390   18.7570 C.3     4  0EG4        0.0000
     18  CG        12.7960   33.3460   19.7220 C.3     4  0EG4        0.0000
     19  CD        12.3030   34.6260   19.0520 C.3     4  0EG4        0.0000
     20  N2        14.7500   32.6680   15.5680 N.am    4  0EG4        0.0000
     21  CA2       14.5240   32.1810   14.1950 C.3     4  0EG4        0.0000
     22  CB2       15.3400   32.9840   13.1360 C.3     4  0EG4        0.0000
     23  CG1       14.8440   34.4260   12.8980 C.3     4  0EG4        0.0000
     24  CG2       16.8340   33.0210   13.4810 C.3     4  0EG4        0.0000
     25  B         14.7560   30.6430   14.1350 B       4  0EG4        0.0000
     26  O11       14.8520   30.0920   12.7150 O.3     4  0EG4        0.0000
     27  O21       13.8680   29.7940   14.9910 O.3     4  0EG4        0.0000
@<TRIPOS>BOND
     1    26    25    1
     2    23    22    1
     3    22    24    1
     4    22    21    1
     5    25    21    1
     6    25    27    1
     7    21    20    1
     8    20    15   am
     9    16    15    2
    10    15    14    1
    11    11    10    2
    12    12     9    1
    13    10     9    1
    14    10    13   am
    15     8     9    1
    16     8     2   am
    17    14    13    1
    18    14    17    1
    19     3     2    1
    20     3     4    1
    21    13    19    1
    22     6     4    1
    23     2     1    2
    24    17    18    1
    25     4     7    1
    26     4     5    1
    27    19    18    1
