@<TRIPOS>MOLECULE
1p02_III_P_1.pdb
 23 23 0 0 0
SMALL
GASTEIGER

@<TRIPOS>ATOM
      1  N         13.4240   41.8680   18.7130 N.3     4  ALA4        0.0000
      2  CA        14.0990   40.6170   18.3140 C.3     4  ALA4        0.0000
      3  C         13.2630   39.3680   18.5380 C.2     4  ALA4        0.0000
      4  O         12.5030   39.3170   19.5460 O.2     4  ALA4        0.0000
      5  CB        15.3390   40.3300   19.1530 C.3     4  ALA4        0.0000
      6  N         13.4470   38.4380   17.6250 N.am    3  ALA3        0.0000
      7  CA        12.6660   37.1760   17.7920 C.3     3  ALA3        0.0000
      8  C         13.6380   36.0520   17.4510 C.2     3  ALA3        0.0000
      9  O         14.5820   36.3620   16.7270 O.2     3  ALA3        0.0000
     10  CB        11.4360   37.1970   16.9160 C.3     3  ALA3        0.0000
     11  N         13.4070   34.8820   18.0230 N.am    2  PRO2        0.0000
     12  CA        14.2390   33.7100   17.7510 C.3     2  PRO2        0.0000
     13  C         14.0090   33.3250   16.2930 C.2     2  PRO2        0.0000
     14  O         12.8900   33.5880   15.8000 O.2     2  PRO2        0.0000
     15  CB        13.7090   32.6390   18.6870 C.3     2  PRO2        0.0000
     16  CG        12.8570   33.3650   19.7040 C.3     2  PRO2        0.0000
     17  CD        12.2720   34.5680   18.9120 C.3     2  PRO2        0.0000
     18  N         15.0070   32.7620   15.6330 N.am    1  ALA1        0.0000
     19  CA        14.8230   32.3550   14.2160 C.3     1  ALA1        0.0000
     20  CB        15.8290   33.0630   13.3250 C.3     1  ALA1        0.0000
     21  B         14.8010   30.8470   14.0100 B       1  ALA1        0.0000
     22  O1        14.8930   30.2570   12.6460 O.3     1  ALA1        0.0000
     23  O2        14.0020   30.0750   14.9720 O.3     1  ALA1        0.0000
@<TRIPOS>BOND
     1    22    21    1
     2    20    19    1
     3    21    19    1
     4    21    23    1
     5    19    18    1
     6    18    13   am
     7    14    13    2
     8    13    12    1
     9     9     8    2
    10    10     7    1
    11     8     7    1
    12     8    11   am
    13     6     7    1
    14     6     3   am
    15    12    11    1
    16    12    15    1
    17    11    17    1
    18     2     3    1
    19     2     1    1
    20     2     5    1
    21     3     4    2
    22    15    16    1
    23    17    16    1
