@<TRIPOS>MOLECULE
1p03_III_P_1.pdb
 25 25 0 0 0
SMALL
GASTEIGER

@<TRIPOS>ATOM
      1  N         13.2500   41.8640   18.7900 N.3     4  ALA4        0.0000
      2  CA        14.0100   40.6380   18.4550 C.3     4  ALA4        0.0000
      3  C         13.1910   39.3690   18.6230 C.2     4  ALA4        0.0000
      4  O         12.3730   39.2650   19.5680 O.2     4  ALA4        0.0000
      5  CB        15.2950   40.4300   19.2310 C.3     4  ALA4        0.0000
      6  N         13.4500   38.4300   17.7200 N.am    3  ALA3        0.0000
      7  CA        12.7040   37.1450   17.8370 C.3     3  ALA3        0.0000
      8  C         13.6730   36.0320   17.4580 C.2     3  ALA3        0.0000
      9  O         14.5780   36.3450   16.6840 O.2     3  ALA3        0.0000
     10  CB        11.4920   37.1340   16.9330 C.3     3  ALA3        0.0000
     11  N         13.4460   34.8540   18.0230 N.am    2  PRO2        0.0000
     12  CA        14.2440   33.6670   17.6930 C.3     2  PRO2        0.0000
     13  C         13.8720   33.2060   16.2860 C.2     2  PRO2        0.0000
     14  O         12.6740   33.3740   15.9120 O.2     2  PRO2        0.0000
     15  CB        13.6840   32.5920   18.6200 C.3     2  PRO2        0.0000
     16  CG        12.7190   33.2380   19.5430 C.3     2  PRO2        0.0000
     17  CD        12.3070   34.5500   18.9160 C.3     2  PRO2        0.0000
     18  N         14.8290   32.6550   15.5400 N.am    1  VAL1        0.0000
     19  CA        14.5660   32.1940   14.1590 C.3     1  VAL1        0.0000
     20  CB        15.3940   33.0160   13.1180 C.3     1  VAL1        0.0000
     21  CG1       14.8580   34.4260   12.8740 C.3     1  VAL1        0.0000
     22  CG2       16.9010   33.0550   13.4360 C.3     1  VAL1        0.0000
     23  B         14.6810   30.6750   14.0140 B       1  VAL1        0.0000
     24  O1        14.8610   30.0850   12.6310 O.3     1  VAL1        0.0000
     25  O2        13.9350   29.8410   15.0070 O.3     1  VAL1        0.0000
@<TRIPOS>BOND
     1    24    23    1
     2    21    20    1
     3    20    22    1
     4    20    19    1
     5    23    19    1
     6    23    25    1
     7    19    18    1
     8    18    13   am
     9    14    13    2
    10    13    12    1
    11     9     8    2
    12    10     7    1
    13     8     7    1
    14     8    11   am
    15    12    11    1
    16    12    15    1
    17     6     7    1
    18     6     3   am
    19    11    17    1
    20     2     3    1
    21     2     1    1
    22     2     5    1
    23    15    16    1
    24     3     4    2
    25    17    16    1
