@<TRIPOS>MOLECULE
1p04_III_P_1.pdb
 26 26 0 0 0
SMALL
GASTEIGER

@<TRIPOS>ATOM
      1  N         13.2380   41.9020   18.6770 N.3     4  ALA4        0.0000
      2  CA        13.9920   40.6470   18.5490 C.3     4  ALA4        0.0000
      3  C         13.1620   39.3840   18.7420 C.2     4  ALA4        0.0000
      4  O         12.3410   39.3140   19.6590 O.2     4  ALA4        0.0000
      5  CB        15.1100   40.5100   19.5720 C.3     4  ALA4        0.0000
      6  N         13.4290   38.4260   17.8940 N.am    3  ALA3        0.0000
      7  CA        12.7110   37.1310   17.9700 C.3     3  ALA3        0.0000
      8  C         13.7120   36.0360   17.6000 C.2     3  ALA3        0.0000
      9  O         14.6120   36.2890   16.8000 O.2     3  ALA3        0.0000
     10  CB        11.4560   37.0520   17.1130 C.3     3  ALA3        0.0000
     11  N         13.4610   34.8800   18.1820 N.am    2  PRO2        0.0000
     12  CA        14.2770   33.6860   17.8800 C.3     2  PRO2        0.0000
     13  C         13.9370   33.1980   16.4560 C.2     2  PRO2        0.0000
     14  O         12.7600   33.2410   16.0710 O.2     2  PRO2        0.0000
     15  CB        13.9570   32.7670   19.0630 C.3     2  PRO2        0.0000
     16  CG        12.8900   33.3930   19.8890 C.3     2  PRO2        0.0000
     17  CD        12.3360   34.5560   19.0920 C.3     2  PRO2        0.0000
     18  N         14.9270   32.7400   15.7040 N.am    1  ILE1        0.0000
     19  CA        14.6640   32.2470   14.3290 C.3     1  ILE1        0.0000
     20  CB        15.4980   33.0330   13.2840 C.3     1  ILE1        0.0000
     21  CG1       15.0520   34.5140   13.2660 C.3     1  ILE1        0.0000
     22  CG2       17.0120   33.0280   13.4650 C.3     1  ILE1        0.0000
     23  CD1       13.7200   34.6550   12.5380 C.3     1  ILE1        0.0000
     24  B         14.7420   30.7050   14.1510 B       1  ILE1        0.0000
     25  O1        14.8830   30.1810   12.7180 O.3     1  ILE1        0.0000
     26  O2        13.8240   30.0190   15.0800 O.3     1  ILE1        0.0000
@<TRIPOS>BOND
     1    23    21    1
     2    25    24    1
     3    21    20    1
     4    20    22    1
     5    20    19    1
     6    24    19    1
     7    24    26    1
     8    19    18    1
     9    18    13   am
    10    14    13    2
    11    13    12    1
    12     9     8    2
    13    10     7    1
    14     8     7    1
    15     8    11   am
    16    12    11    1
    17    12    15    1
    18     6     7    1
    19     6     3   am
    20    11    17    1
    21     2     1    1
    22     2     3    1
    23     2     5    1
    24     3     4    2
    25    15    16    1
    26    17    16    1
