@<TRIPOS>MOLECULE
1p05_III_P_1.pdb
 26 26 0 0 0
SMALL
GASTEIGER

@<TRIPOS>ATOM
      1  N         12.9440   41.7830   18.8940 N.3     4  ALA4        0.0000
      2  CA        13.8150   40.5800   18.7510 C.3     4  ALA4        0.0000
      3  C         13.0200   39.2630   18.8870 C.2     4  ALA4        0.0000
      4  O         12.2360   39.1110   19.8630 O.2     4  ALA4        0.0000
      5  CB        15.0450   40.3610   19.6210 C.3     4  ALA4        0.0000
      6  N         13.3140   38.3960   17.9150 N.am    3  ALA3        0.0000
      7  CA        12.6170   37.0890   18.0380 C.3     3  ALA3        0.0000
      8  C         13.6330   36.0040   17.7400 C.2     3  ALA3        0.0000
      9  O         14.4910   36.3140   16.9110 O.2     3  ALA3        0.0000
     10  CB        11.4930   36.9950   17.0470 C.3     3  ALA3        0.0000
     11  N         13.4070   34.8540   18.3470 N.am    2  PRO2        0.0000
     12  CA        14.2080   33.6660   18.0300 C.3     2  PRO2        0.0000
     13  C         13.8360   33.2160   16.5940 C.2     2  PRO2        0.0000
     14  O         12.6360   33.2990   16.1740 O.2     2  PRO2        0.0000
     15  CB        13.7770   32.7010   19.1590 C.3     2  PRO2        0.0000
     16  CG        12.5430   33.1990   19.8550 C.3     2  PRO2        0.0000
     17  CD        12.2860   34.5590   19.2530 C.3     2  PRO2        0.0000
     18  N         14.7770   32.7320   15.8430 N.am    1  BNO1        0.0000
     19  CA        14.5460   32.2800   14.4540 C.3     1  BNO1        0.0000
     20  CB        15.5140   33.1260   13.5360 C.3     1  BNO1        0.0000
     21  CG        15.2110   34.5910   13.7810 C.3     1  BNO1        0.0000
     22  CD        14.2560   35.0990   12.7050 C.3     1  BNO1        0.0000
     23  CE        13.2090   35.9390   13.4870 C.3     1  BNO1        0.0000
     24  B         14.8100   30.7490   14.1940 B       1  BNO1        0.0000
     25  O1        14.8120   30.2650   12.7610 O.3     1  BNO1        0.0000
     26  O2        13.9420   30.0090   15.1760 O.3     1  BNO1        0.0000
@<TRIPOS>BOND
     1    22    23    1
     2    22    21    1
     3    25    24    1
     4    20    21    1
     5    20    19    1
     6    24    19    1
     7    24    26    1
     8    19    18    1
     9    18    13   am
    10    14    13    2
    11    13    12    1
    12     9     8    2
    13    10     7    1
    14     8     7    1
    15     8    11   am
    16     6     7    1
    17     6     3   am
    18    12    11    1
    19    12    15    1
    20    11    17    1
    21     2     3    1
    22     2     1    1
    23     2     5    1
    24     3     4    2
    25    15    16    1
    26    17    16    1
