@<TRIPOS>MOLECULE
1p06_III_P_1.pdb
 28 29 0 0 0
SMALL
GASTEIGER

@<TRIPOS>ATOM
      1  N         14.3190   42.3820   18.4820 N.3     4  ALA4        0.0000
      2  CA        14.7690   40.9720   18.2970 C.3     4  ALA4        0.0000
      3  C         13.8500   39.7890   18.6350 C.2     4  ALA4        0.0000
      4  O         13.0900   39.8750   19.6270 O.2     4  ALA4        0.0000
      5  CB        16.1020   40.7080   19.0330 C.3     4  ALA4        0.0000
      6  N         13.9170   38.7380   17.8140 N.am    3  ALA3        0.0000
      7  CA        13.0440   37.5550   18.0760 C.3     3  ALA3        0.0000
      8  C         13.9450   36.3430   17.8010 C.2     3  ALA3        0.0000
      9  O         14.8410   36.5310   16.9660 O.2     3  ALA3        0.0000
     10  CB        11.7250   37.4350   17.3850 C.3     3  ALA3        0.0000
     11  N         13.7090   35.2750   18.5340 N.am    2  PRO2        0.0000
     12  CA        14.5420   34.1000   18.4170 C.3     2  PRO2        0.0000
     13  C         14.0280   33.1860   17.3510 C.2     2  PRO2        0.0000
     14  O         12.8120   32.9180   17.5410 O.2     2  PRO2        0.0000
     15  CB        14.3890   33.5550   19.8540 C.3     2  PRO2        0.0000
     16  CG        12.9360   33.7450   20.2350 C.3     2  PRO2        0.0000
     17  CD        12.6430   35.1050   19.5440 C.3     2  PRO2        0.0000
     18  N         14.8310   32.7260   16.3640 N.am    1  PHE1        0.0000
     19  CA        14.1730   31.7860   15.3820 C.3     1  PHE1        0.0000
     20  CB        13.9510   32.2640   13.9600 C.3     1  PHE1        0.0000
     21  CG        13.1510   33.5710   13.9970 C.ar    1  PHE1        0.0000
     22  CD1       13.8560   34.7850   14.0700 C.ar    1  PHE1        0.0000
     23  CD2       11.7550   33.5610   13.9850 C.ar    1  PHE1        0.0000
     24  CE1       13.1360   35.9820   14.1450 C.ar    1  PHE1        0.0000
     25  CE2       11.0620   34.7600   14.0090 C.ar    1  PHE1        0.0000
     26  CZ        11.7560   35.9590   14.0880 C.ar    1  PHE1        0.0000
     27  B         14.9020   30.4420   15.4400 B       1  PHE1        0.0000
     28  O1        14.2540   29.1780   15.3420 O.3     1  PHE1        0.0000
@<TRIPOS>BOND
     1    20    21    1
     2    20    19    1
     3    23    21   ar
     4    23    25   ar
     5    21    22   ar
     6    25    26   ar
     7    22    24   ar
     8    26    24   ar
     9    28    27    1
    10    19    27    1
    11    19    18    1
    12    18    13   am
    13     9     8    2
    14    13    14    2
    15    13    12    1
    16    10     7    1
    17     8     7    1
    18     8    11   am
    19     6     7    1
    20     6     3   am
    21     2     1    1
    22     2     3    1
    23     2     5    1
    24    12    11    1
    25    12    15    1
    26    11    17    1
    27     3     4    2
    28    17    16    1
    29    15    16    1
