@<TRIPOS>MOLECULE
1p0b_PQ0_A_1.pdb
 13 14 0 0 0
SMALL
GASTEIGER

@<TRIPOS>ATOM
      1  N1        16.5360   16.9680   23.7680 N.2   900  PQ0900     -0.2525
      2  C2        15.3030   16.4040   23.3860 C.1   900  PQ0900      0.2602
      3  N3        15.0730   16.1370   22.1010 N.2   900  PQ0900     -0.2733
      4  C4        16.0880   16.4370   21.0560 C.1   900  PQ0900      0.0984
      5  C5        17.2830   16.9920   21.3900 C.3   900  PQ0900      0.2491
      6  C6        17.5460   17.2780   22.8430 C.1   900  PQ0900      0.2111
      7  O6        18.6170   17.7600   23.1530 O.2   900  PQ0900     -0.2120
      8  C7        17.9630   17.1410   20.1030 C.2   900  PQ0900      0.0975
      9  C10       19.2500   17.6980   19.8900 C.1   900  PQ0900      0.0999
     10  N11       20.2440   18.2950   19.7430 N.1   900  PQ0900     -0.1910
     11  C8        17.1310   16.6620   19.1950 C.2   900  PQ0900      0.1183
     12  N9        16.0390   16.2530   19.7690 N.2   900  PQ0900     -0.1837
     13  N2        14.4290   16.1670   24.3080 N.pl3 900  PQ0900     -0.0221
@<TRIPOS>BOND
     1    11    12    1
     2    11     8    2
     3    10     9    3
     4    12     4    2
     5     9     8    1
     6     8     5    1
     7     4     5    1
     8     4     3    2
     9     5     6    1
    10     3     2    2
    11     6     7    2
    12     6     1    2
    13     2     1    2
    14     2    13    1
