@<TRIPOS>MOLECULE
1p0e_PRF_A_1.pdb
 13 14 0 0 0
SMALL
GASTEIGER

@<TRIPOS>ATOM
      1  N1        25.9290   29.5690   23.8860 N.2   900  PRF900     -0.2525
      2  C2        25.3250   30.7380   23.4870 C.1   900  PRF900      0.2602
      3  N3        25.0430   30.9800   22.2390 N.2   900  PRF900     -0.2733
      4  C4        25.3160   30.0950   21.2390 C.1   900  PRF900      0.0973
      5  C5        25.9290   28.8730   21.5240 C.3   900  PRF900      0.2372
      6  C6        26.2660   28.5890   22.9850 C.1   900  PRF900      0.2101
      7  O6        26.8060   27.5390   23.2970 O.2   900  PRF900     -0.2120
      8  C7        26.0850   28.1760   20.3330 C.2   900  PRF900      0.0258
      9  C10       26.7010   26.7870   20.1560 C.3   900  PRF900      0.1351
     10  N11       27.0390   26.5580   18.7440 N.3   900  PRF900     -0.1264
     11  C8        25.5590   29.0180   19.3490 C.2   900  PRF900      0.1053
     12  N9        25.1100   30.1540   19.9240 N.2   900  PRF900     -0.1847
     13  N2        25.0300   31.6360   24.4240 N.pl3 900  PRF900     -0.0221
@<TRIPOS>BOND
     1    10     9    1
     2    11    12    1
     3    11     8    2
     4    12     4    2
     5     9     8    1
     6     8     5    1
     7     4     5    1
     8     4     3    2
     9     5     6    1
    10     3     2    2
    11     6     7    2
    12     6     1    2
    13     2     1    2
    14     2    13    1
