@<TRIPOS>MOLECULE
1p0f_NAP_A_1.pdb
 48 52 0 0 0
SMALL
GASTEIGER

@<TRIPOS>ATOM
      1  PA        25.9440   31.7710   53.7290 P.3   4292  NAP4292     0.2189
      2  O1A       25.9200   30.4290   53.2770 O.2   4292  NAP4292    -0.5170
      3  O2A       27.1150   32.7370   53.6200 O.3   4292  NAP4292    -0.4371
      4  O5B       25.5560   31.8260   55.2790 O.3   4292  NAP4292    -0.3112
      5  C5B       24.3470   31.2020   55.7700 C.3   4292  NAP4292     0.1813
      6  C4B       24.6580   31.1530   57.2480 C.3   4292  NAP4292     0.1820
      7  O4B       23.4610   30.5680   57.9350 O.3   4292  NAP4292    -0.3136
      8  C3B       25.8020   30.1840   57.6630 C.3   4292  NAP4292     0.2157
      9  O3B       26.9780   30.9790   57.8100 O.3   4292  NAP4292    -0.2175
     10  C2B       25.3040   29.5730   58.9560 C.3   4292  NAP4292     0.2314
     11  O2B       25.5640   30.3720   60.1030 O.3   4292  NAP4292    -0.2630
     12  C1B       23.7730   29.4480   58.7400 C.3   4292  NAP4292     0.3158
     13  N9A       23.4180   28.1540   58.1430 N.pl3 4292  NAP4292    -0.1439
     14  C8A       23.5170   27.6520   56.8530 C.3   4292  NAP4292     0.3377
     15  N7A       23.0770   26.4120   56.7150 N.2   4292  NAP4292    -0.2095
     16  C5A       22.6600   26.0800   58.0010 C.2   4292  NAP4292     0.2526
     17  C6A       22.0960   24.8850   58.4900 C.2   4292  NAP4292     0.4393
     18  N6A       21.8300   23.7620   57.7870 N.pl3 4292  NAP4292     0.2180
     19  N1A       21.7710   24.8450   59.8590 N.2   4292  NAP4292     0.0021
     20  C2A       22.0020   25.9530   60.6930 C.3   4292  NAP4292     0.5254
     21  N3A       22.5560   27.1380   60.2360 N.2   4292  NAP4292    -0.0055
     22  C4A       22.8700   27.1560   58.8830 C.2   4292  NAP4292     0.3518
     23  O3        24.7600   32.5760   53.0560 O.3   4292  NAP4292    -0.2703
     24  PN        24.6670   34.1160   52.8390 P.3   4292  NAP4292     0.2189
     25  O1N       24.2440   35.0120   53.9190 O.3   4292  NAP4292    -0.4371
     26  O2N       24.6550   34.4970   51.4040 O.2   4292  NAP4292    -0.5170
     27  O5D       23.0560   33.7910   52.6860 O.3   4292  NAP4292    -0.3112
     28  C5D       22.2190   33.2970   53.8220 C.3   4292  NAP4292     0.1813
     29  C4D       20.7350   33.1750   53.4580 C.3   4292  NAP4292     0.1799
     30  O4D       20.1630   34.4360   53.0320 O.3   4292  NAP4292    -0.3327
     31  C3D       20.3540   32.1500   52.3210 C.3   4292  NAP4292     0.2158
     32  O3D       19.1990   31.3690   52.7070 O.3   4292  NAP4292    -0.2175
     33  C2D       20.0890   33.0560   51.1280 C.3   4292  NAP4292     0.2309
     34  O2D       19.2680   32.4720   50.1240 O.3   4292  NAP4292    -0.2158
     35  C1D       19.4450   34.2230   51.7740 C.3   4292  NAP4292     0.2263
     36  N1N       19.5230   35.5360   51.0840 N.pl3 4292  NAP4292    -0.2787
     37  C2N       18.4030   36.4010   51.0100 C.3   4292  NAP4292     0.1244
     38  C3N       18.5420   37.6160   50.3470 C.2   4292  NAP4292     0.0544
     39  C7N       17.3280   38.5520   50.2650 C.2   4292  NAP4292     0.2818
     40  O7N       17.4800   39.5960   49.6590 O.2   4292  NAP4292    -0.2670
     41  N7N       16.1930   38.2250   50.8200 N.am  4292  NAP4292    -0.0839
     42  C4N       19.8170   38.0080   49.7290 C.2   4292  NAP4292     0.0033
     43  C5N       20.9170   37.1070   49.8330 C.2   4292  NAP4292     0.0157
     44  C6N       20.7960   35.8590   50.5070 C.2   4292  NAP4292     0.0633
     45  P2B       26.4100   29.8580   61.3890 P.3   4292  NAP4292     0.5328
     46  O1X       27.7430   29.3230   60.8410 O.2   4292  NAP4292    -0.2224
     47  O2X       26.5490   31.1220   62.1560 O.3   4292  NAP4292    -0.1145
     48  O3X       25.5870   28.7600   62.0390 O.3   4292  NAP4292    -0.1145
@<TRIPOS>BOND
     1    40    39    2
     2    42    43    1
     3    42    38    2
     4    43    44    2
     5    34    33    1
     6    39    38    1
     7    39    41   am
     8    38    37    1
     9    44    36    1
    10    37    36    1
    11    36    35    1
    12    33    35    1
    13    33    31    1
    14    26    24    2
    15    35    30    1
    16    31    32    1
    17    31    29    1
    18    27    24    1
    19    27    28    1
    20    24    23    1
    21    24    25    1
    22    30    29    1
    23    23     1    1
    24     2     1    2
    25    29    28    1
    26     3     1    1
    27     1     4    1
    28     4     5    1
    29     5     6    1
    30    15    14    1
    31    15    16    2
    32    14    13    1
    33     6     8    1
    34     6     7    1
    35     8     9    1
    36     8    10    1
    37    18    17    1
    38     7    12    1
    39    16    17    1
    40    16    22    1
    41    13    12    1
    42    13    22    1
    43    17    19    2
    44    12    10    1
    45    22    21    2
    46    10    11    1
    47    19    20    1
    48    11    45    1
    49    21    20    1
    50    46    45    2
    51    45    48    1
    52    45    47    1
