@<TRIPOS>MOLECULE
1p0h_COA_A_1.pdb
 48 50 0 0 0
SMALL
GASTEIGER

@<TRIPOS>ATOM
      1  N1A        7.2140   26.1510   17.0120 N.2   601  COA601      0.0021
      2  C2A        8.0300   26.4490   18.0880 C.3   601  COA601      0.5254
      3  N3A        7.9600   25.8980   19.3050 N.2   601  COA601     -0.0055
      4  C4A        6.9610   24.9350   19.4690 C.2   601  COA601      0.3518
      5  C5A        6.0690   24.5530   18.4230 C.2   601  COA601      0.2526
      6  C6A        6.2220   25.2080   17.1630 C.2   601  COA601      0.4393
      7  N6A        5.4140   24.9160   16.0950 N.pl3 601  COA601      0.2180
      8  N7A        5.1920   23.5880   18.8630 N.2   601  COA601     -0.2095
      9  C8A        5.5200   23.3660   20.1320 C.3   601  COA601      0.3377
     10  N9A        6.5720   24.1670   20.4900 N.pl3 601  COA601     -0.1439
     11  C1B        7.1720   24.1820   21.8080 C.3   601  COA601      0.3185
     12  C2B        6.3130   24.6670   22.9520 C.3   601  COA601      0.2543
     13  O2B        6.2440   26.1480   22.9970 O.3   601  COA601     -0.2131
     14  C3B        7.0040   24.1180   24.1610 C.3   601  COA601      0.1928
     15  O3B        8.1140   24.9240   24.5350 O.3   601  COA601     -0.2673
     16  P3B        8.6720   24.9140   25.9830 P.3   601  COA601      0.5327
     17  O7A        9.9070   25.8000   25.9460 O.2   601  COA601     -0.2224
     18  O8A        9.0720   23.4350   26.2080 O.3   601  COA601     -0.1145
     19  O9A        7.6360   25.3520   26.9160 O.3   601  COA601     -0.1145
     20  C4B        7.4160   22.7280   23.6600 C.3   601  COA601      0.1795
     21  O4B        7.5120   22.8490   22.2530 O.3   601  COA601     -0.3136
     22  C5B        6.4910   21.5880   24.0520 C.3   601  COA601      0.1812
     23  O5B        5.1760   21.9530   23.6340 O.3   601  COA601     -0.3112
     24  P1A        4.0010   20.8740   23.8400 P.3   601  COA601      0.2189
     25  O1A        4.1490   20.2340   25.1130 O.3   601  COA601     -0.4371
     26  O2A        2.7160   21.6200   23.5710 O.2   601  COA601     -0.5170
     27  O3A        4.3320   19.8510   22.6690 O.3   601  COA601     -0.2703
     28  P2A        3.4200   19.4670   21.4300 P.3   601  COA601      0.2188
     29  O4A        2.1960   18.7540   21.8470 O.3   601  COA601     -0.4371
     30  O5A        3.2980   20.6170   20.4700 O.2   601  COA601     -0.5170
     31  O6A        4.3490   18.3640   20.7710 O.3   601  COA601     -0.3138
     32  CBP        6.1080   17.6570   19.3140 C.3   601  COA601      0.0645
     33  CCP        5.7410   18.5690   20.4720 C.3   601  COA601      0.1519
     34  CDP        7.6700   17.7430   19.0240 C.3   601  COA601      0.0056
     35  CEP        5.8110   16.1950   19.7200 C.3   601  COA601      0.0056
     36  CAP        5.3040   18.0170   18.0310 C.3   601  COA601      0.2312
     37  OAP        5.6190   19.3870   17.6260 O.3   601  COA601     -0.2131
     38  C9P        5.4760   17.0330   16.8530 C.2   601  COA601      0.2719
     39  O9P        4.8800   15.9830   16.7930 O.2   601  COA601     -0.2706
     40  N8P        6.4460   17.3190   16.0120 N.am  601  COA601     -0.2028
     41  C7P        6.6590   16.5510   14.8120 C.3   601  COA601      0.1248
     42  C6P        7.2090   15.1120   15.0890 C.3   601  COA601      0.1102
     43  C5P        8.6460   15.1460   15.6260 C.2   601  COA601      0.2432
     44  O5P        9.5450   15.7090   15.0060 O.2   601  COA601     -0.2733
     45  N4P        8.8400   14.4050   16.7480 N.am  601  COA601     -0.2044
     46  C3P       10.2070   14.0690   17.3530 C.3   601  COA601      0.1276
     47  C2P       10.8640   12.8670   16.6520 C.3   601  COA601      0.0920
     48  S1P       10.6170   11.2920   17.5190 S.3   601  COA601     -0.0802
@<TRIPOS>BOND
     1    41    42    1
     2    41    40    1
     3    44    43    2
     4    42    43    1
     5    43    45   am
     6    40    38   am
     7     7     6    1
     8    47    46    1
     9    47    48    1
    10    45    46    1
    11    39    38    2
    12    38    36    1
    13     1     6    2
    14     1     2    1
    15     6     5    1
    16    37    36    1
    17    36    32    1
    18     2     3    1
    19     5     8    2
    20     5     4    1
    21     8     9    1
    22    34    32    1
    23     3     4    2
    24    32    35    1
    25    32    33    1
    26     4    10    1
    27     9    10    1
    28    30    28    2
    29    33    31    1
    30    10    11    1
    31    31    28    1
    32    28    29    1
    33    28    27    1
    34    11    21    1
    35    11    12    1
    36    21    20    1
    37    27    24    1
    38    12    13    1
    39    12    14    1
    40    26    24    2
    41    23    24    1
    42    23    22    1
    43    20    22    1
    44    20    14    1
    45    24    25    1
    46    14    15    1
    47    15    16    1
    48    17    16    2
    49    16    18    1
    50    16    19    1
