@<TRIPOS>MOLECULE
1p0i_FUC_A_1.pdb
 10 10 0 0 0
SMALL
GASTEIGER

@<TRIPOS>ATOM
      1  C1       153.2860   97.8160   35.9460 C.3   532  FUC532      0.1776
      2  C2       151.9380   97.6520   36.6450 C.3   532  FUC532      0.2141
      3  C3       150.9290   98.6760   36.1170 C.3   532  FUC532      0.2172
      4  C4       150.8670   98.6800   34.5860 C.3   532  FUC532      0.2116
      5  C5       152.2650   98.7140   33.9420 C.3   532  FUC532      0.1483
      6  C6       152.2070   98.4290   32.4540 C.3   532  FUC532      0.0349
      7  O2       152.1030   97.8270   38.0430 O.3   532  FUC532     -0.2176
      8  O3       149.6400   98.3560   36.6270 O.3   532  FUC532     -0.2175
      9  O4       150.1540   97.5410   34.1370 O.3   532  FUC532     -0.2177
     10  O5       153.1190   97.7090   34.5280 O.3   532  FUC532     -0.3508
@<TRIPOS>BOND
     1     6     5    1
     2     5    10    1
     3     5     4    1
     4     9     4    1
     5    10     1    1
     6     4     3    1
     7     1     2    1
     8     3     8    1
     9     3     2    1
    10     2     7    1
