@<TRIPOS>MOLECULE
1p0m_FUC_A_1.pdb
 10 10 0 0 0
SMALL
GASTEIGER

@<TRIPOS>ATOM
      1  C1       153.5750   97.7950   36.1510 C.3   532  FUC532      0.1776
      2  C2       152.2220   97.6140   36.8500 C.3   532  FUC532      0.2141
      3  C3       151.2170   98.6530   36.3530 C.3   532  FUC532      0.2172
      4  C4       151.1400   98.6590   34.8220 C.3   532  FUC532      0.2116
      5  C5       152.5360   98.7720   34.1920 C.3   532  FUC532      0.1483
      6  C6       152.5040   98.5790   32.6860 C.3   532  FUC532      0.0349
      7  O2       152.3850   97.7420   38.2540 O.3   532  FUC532     -0.2176
      8  O3       149.9350   98.3560   36.8850 O.3   532  FUC532     -0.2175
      9  O4       150.5060   97.4740   34.3710 O.3   532  FUC532     -0.2177
     10  O5       153.4140   97.7590   34.7310 O.3   532  FUC532     -0.3508
@<TRIPOS>BOND
     1     6     5    1
     2     5    10    1
     3     5     4    1
     4     9     4    1
     5    10     1    1
     6     4     3    1
     7     1     2    1
     8     3     2    1
     9     3     8    1
    10     2     7    1
