@<TRIPOS>MOLECULE
1p0n_FMN_A_1.pdb
 31 33 0 0 0
SMALL
GASTEIGER

@<TRIPOS>ATOM
      1  N1        34.1410   -9.4180   15.0760 N.2   669  FMN669     -0.2890
      2  C2        34.9970  -10.0640   15.9590 C.1   669  FMN669      0.3669
      3  O2        34.8390  -10.0700   17.1860 O.2   669  FMN669     -0.1744
      4  N3        36.1470  -10.7610   15.3920 N.2   669  FMN669     -0.2300
      5  C4        36.4570  -10.8480   14.0560 C.1   669  FMN669      0.2513
      6  O4        37.4710  -11.4800   13.7080 O.2   669  FMN669     -0.2057
      7  C4A       35.5310  -10.1420   13.1080 C.2   669  FMN669      0.2700
      8  N5        35.7310  -10.1620   11.7590 N.2   669  FMN669     -0.3878
      9  C5A       34.8470   -9.5090   10.9000 C.2   669  FMN669      0.1320
     10  C6        35.0840   -9.5310    9.4300 C.2   669  FMN669      0.0250
     11  C7        34.2490   -8.9050    8.4920 C.2   669  FMN669     -0.0238
     12  C7M       34.5810   -8.9840    6.9790 C.3   669  FMN669      0.0308
     13  C8        33.0180   -8.1490    8.9660 C.2   669  FMN669     -0.0280
     14  C8M       32.0730   -7.4530    8.0130 C.3   669  FMN669      0.0304
     15  C9        32.7670   -8.1150   10.3690 C.2   669  FMN669     -0.0041
     16  C9A       33.6300   -8.7620   11.3770 C.3   669  FMN669      0.1497
     17  N10       33.4350   -8.7660   12.8580 N.pl3 669  FMN669     -0.2691
     18  C10       34.3370   -9.4380   13.7380 C.2   669  FMN669      0.2416
     19  C1'       32.2540   -8.0700   13.4960 C.3   669  FMN669      0.1294
     20  C2'       32.4120   -6.5550   13.5510 C.3   669  FMN669      0.2044
     21  O2'       33.5950   -6.1740   14.2430 O.3   669  FMN669     -0.2185
     22  C3'       31.1550   -5.8070   14.2290 C.3   669  FMN669      0.2164
     23  O3'       30.8110   -6.3550   15.5750 O.3   669  FMN669     -0.2175
     24  C4'       29.8490   -5.8110   13.3600 C.3   669  FMN669      0.2147
     25  O4'       29.2900   -7.1430   13.1850 O.3   669  FMN669     -0.2176
     26  C5'       29.9940   -5.2900   11.9390 C.3   669  FMN669      0.1892
     27  O5'       30.3520   -3.8970   11.9080 O.3   669  FMN669     -0.2674
     28  P         29.4470   -2.7090   12.4350 P.3   669  FMN669      0.5327
     29  O1P       29.7930   -2.5300   13.8930 O.3   669  FMN669     -0.1145
     30  O2P       27.9870   -3.0430   12.2070 O.3   669  FMN669     -0.1145
     31  O3P       29.9800   -1.4890   11.5930 O.2   669  FMN669     -0.2224
@<TRIPOS>BOND
     1    12    11    1
     2    14    13    1
     3    11    13    1
     4    11    10    2
     5    13    15    2
     6    10     9    1
     7    15    16    1
     8     9    16    1
     9     9     8    2
    10    16    17    1
    11    31    28    2
    12     8     7    2
    13    27    26    1
    14    27    28    1
    15    26    24    1
    16    30    28    1
    17    28    29    1
    18    17    19    1
    19    17    18    1
    20     7    18    1
    21     7     5    1
    22    25    24    1
    23    24    22    1
    24    19    20    1
    25    20    22    1
    26    20    21    1
    27     6     5    2
    28    18     1    2
    29     5     4    2
    30    22    23    1
    31     1     2    2
    32     4     2    2
    33     2     3    2
