@<TRIPOS>MOLECULE
1p0p_FUC_A_1.pdb
 10 10 0 0 0
SMALL
GASTEIGER

@<TRIPOS>ATOM
      1  C1       153.3370   97.9810   35.8800 C.3   532  FUC532      0.1776
      2  C2       152.0520   97.6540   36.6420 C.3   532  FUC532      0.2141
      3  C3       150.9460   98.6570   36.2920 C.3   532  FUC532      0.2172
      4  C4       150.7600   98.7750   34.7750 C.3   532  FUC532      0.2116
      5  C5       152.1060   99.0200   34.0740 C.3   532  FUC532      0.1483
      6  C6       152.0020   98.9530   32.5620 C.3   532  FUC532      0.0349
      7  O2       152.3070   97.6960   38.0390 O.3   532  FUC532     -0.2176
      8  O3       149.7250   98.2410   36.8880 O.3   532  FUC532     -0.2175
      9  O4       150.1520   97.5970   34.2680 O.3   532  FUC532     -0.2177
     10  O5       153.0770   98.0270   34.4780 O.3   532  FUC532     -0.3508
@<TRIPOS>BOND
     1     6     5    1
     2     5    10    1
     3     5     4    1
     4     9     4    1
     5    10     1    1
     6     4     3    1
     7     1     2    1
     8     3     2    1
     9     3     8    1
    10     2     7    1
