@<TRIPOS>MOLECULE
1p0p_BCH_A_1.pdb
 12 11 0 0 0
SMALL
GASTEIGER

@<TRIPOS>ATOM
      1  C21      134.9290  111.3590   42.2190 C.3   604  BCH604      0.0005
      2  C20      134.5350  112.0010   43.5580 C.3   604  BCH604      0.0087
      3  C19      133.2390  112.8240   43.4420 C.3   604  BCH604      0.0762
      4  C18      133.3590  114.0160   42.4690 C.2   604  BCH604      0.2028
      5  O12      133.9480  115.0580   42.7990 O.2   604  BCH604     -0.2842
      6  S17      132.5530  113.8490   40.8180 S.3   604  BCH604     -0.0484
      7  C16      132.9600  115.4070   39.8670 C.2   604  BCH604      0.0525
      8  C15      132.9180  116.8340   40.5680 C.2   604  BCH604      0.0537
      9  N14      133.3480  118.0200   39.7290 N.pl3 604  BCH604     -0.3499
     10  C13      133.3000  117.7660   38.2360 C.3   604  BCH604      0.0960
     11  C22      134.7270  118.4110   40.0860 C.3   604  BCH604      0.0960
     12  C11      132.4380  119.1050   40.0390 C.3   604  BCH604      0.0960
@<TRIPOS>BOND
     1    10     9    1
     2     9    12    1
     3     9    11    1
     4     9     8    1
     5     7     8    2
     6     7     6    1
     7     6     4    1
     8     1     2    1
     9     4     5    2
    10     4     3    1
    11     3     2    1
