@<TRIPOS>MOLECULE
1p0q_FUC_A_1.pdb
 10 10 0 0 0
SMALL
GASTEIGER

@<TRIPOS>ATOM
      1  C1       153.1450   97.6810   35.7540 C.3   532  FUC532      0.1776
      2  C2       151.7940   97.4380   36.4360 C.3   532  FUC532      0.2141
      3  C3       150.7420   98.4380   35.9400 C.3   532  FUC532      0.2172
      4  C4       150.6800   98.4650   34.4090 C.3   532  FUC532      0.2116
      5  C5       152.0790   98.6560   33.8100 C.3   532  FUC532      0.1483
      6  C6       152.0840   98.5180   32.2990 C.3   532  FUC532      0.0349
      7  O2       151.9440   97.5670   37.8430 O.3   532  FUC532     -0.2176
      8  O3       149.4690   98.0770   36.4560 O.3   532  FUC532     -0.2175
      9  O4       150.1130   97.2570   33.9290 O.3   532  FUC532     -0.2177
     10  O5       152.9890   97.6610   34.3340 O.3   532  FUC532     -0.3508
@<TRIPOS>BOND
     1     6     5    1
     2     5    10    1
     3     5     4    1
     4     9     4    1
     5    10     1    1
     6     4     3    1
     7     1     2    1
     8     3     2    1
     9     3     8    1
    10     2     7    1
