@<TRIPOS>MOLECULE
1p0v_HEM_A_1.pdb
 43 50 0 0 0
SMALL
GASTEIGER

@<TRIPOS>ATOM
      1 FE         25.8850   -1.4810   14.3700 Fe    460  HEM460      0.0000
      2  CHA       28.1690   -3.5090   12.8400 C.2   460  HEM460      0.0000
      3  CHB       23.3420   -3.4070   13.2200 C.2   460  HEM460      0.0000
      4  CHC       23.6520    0.5250   15.9590 C.2   460  HEM460      0.0000
      5  CHD       28.3920    0.7580   15.0940 C.2   460  HEM460      0.0000
      6  NA        25.7920   -3.1130   13.2260 N.ar  460  HEM460      0.0000
      7  C1A       26.8240   -3.8090   12.6760 C.ar  460  HEM460      0.0000
      8  C2A       26.3130   -4.9950   12.0130 C.ar  460  HEM460      0.0000
      9  C3A       24.9790   -4.9790   12.1340 C.ar  460  HEM460      0.0000
     10  C4A       24.6320   -3.7730   12.8800 C.ar  460  HEM460      0.0000
     11  CMA       23.9380   -5.9600   11.5480 C.3   460  HEM460      0.0000
     12  CAA       27.1680   -6.0430   11.2600 C.3   460  HEM460      0.0000
     13  CBA       27.3730   -5.6980    9.7610 C.3   460  HEM460      0.0000
     14  CGA       28.1640   -6.7120    8.9790 C.2   460  HEM460      0.0000
     15  O1A       28.2500   -7.9110    9.3470 O.co2 460  HEM460      0.0000
     16  O2A       28.7240   -6.3340    7.9140 O.co2 460  HEM460      0.0000
     17  NB        23.8870   -1.4150   14.4930 N.2   460  HEM460      0.0000
     18  C1B       22.9930   -2.3760   14.0400 C.2   460  HEM460      0.0000
     19  C2B       21.6680   -2.0610   14.5000 C.2   460  HEM460      0.0000
     20  C3B       21.7290   -0.9780   15.2690 C.2   460  HEM460      0.0000
     21  C4B       23.1360   -0.5530   15.2990 C.2   460  HEM460      0.0000
     22  CMB       20.4260   -2.9180   14.1410 C.3   460  HEM460      0.0000
     23  CAB       20.6320   -0.1970   15.9700 C.2   460  HEM460      0.0000
     24  CBB       19.5050   -0.6540   16.5020 C.2   460  HEM460      0.0000
     25  NC        26.0140    0.3330   15.2810 N.ar  460  HEM460      0.0000
     26  C1C       24.9890    0.9290   16.0010 C.ar  460  HEM460      0.0000
     27  C2C       25.5180    2.0180   16.7740 C.ar  460  HEM460      0.0000
     28  C3C       26.8240    2.0990   16.5420 C.ar  460  HEM460      0.0000
     29  C4C       27.1390    1.0180   15.6190 C.ar  460  HEM460      0.0000
     30  CMC       24.6110    2.9090   17.6860 C.3   460  HEM460      0.0000
     31  CAC       27.8760    3.0850   17.0670 C.2   460  HEM460      0.0000
     32  CBC       27.7520    3.9940   18.0540 C.2   460  HEM460      0.0000
     33  ND        27.8670   -1.3690   13.9990 N.2   460  HEM460      0.0000
     34  C1D       28.7570   -0.4030   14.4470 C.2   460  HEM460      0.0000
     35  C2D       30.1010   -0.7700   14.1070 C.2   460  HEM460      0.0000
     36  C3D       30.0290   -1.9520   13.4930 C.2   460  HEM460      0.0000
     37  C4D       28.6470   -2.3510   13.4300 C.2   460  HEM460      0.0000
     38  CMD       31.3660    0.0740   14.4310 C.3   460  HEM460      0.0000
     39  CAD       31.1990   -2.8280   12.9840 C.3   460  HEM460      0.0000
     40  CBD       31.8640   -3.6310   14.1290 C.3   460  HEM460      0.0000
     41  CGD       33.0140   -4.5340   13.7220 C.2   460  HEM460      0.0000
     42  O1D       34.0240   -4.5570   14.4420 O.co2 460  HEM460      0.0000
     43  O2D       32.9300   -5.2390   12.6820 O.co2 460  HEM460      0.0000
@<TRIPOS>BOND
     1    16    14   ar
     2    14    15   ar
     3    14    13    1
     4    13    12    1
     5    12     8    1
     6    11     9    1
     7     8     9   ar
     8     8     7   ar
     9     9    10   ar
    10     7     2    2
    11     7     6   ar
    12    43    41   ar
    13     2    37    1
    14    10     3    2
    15    10     6   ar
    16    39    36    1
    17    39    40    1
    18     3    18    1
    19     6     1    1
    20    37    36    1
    21    37    33    2
    22    36    35    2
    23    41    40    1
    24    41    42   ar
    25    33     1    1
    26    33    34    1
    27    18    17    2
    28    18    19    1
    29    35    38    1
    30    35    34    1
    31    22    19    1
    32     1    17    1
    33     1    25    1
    34    34     5    2
    35    17    21    1
    36    19    20    2
    37     5    29    1
    38    20    21    1
    39    20    23    1
    40    25    29   ar
    41    25    26   ar
    42    21     4    2
    43    29    28   ar
    44     4    26    1
    45    23    24    2
    46    26    27   ar
    47    28    27   ar
    48    28    31    1
    49    27    30    1
    50    31    32    2
