@<TRIPOS>MOLECULE
1p0w_HEM_A_1.pdb
 43 50 0 0 0
SMALL
GASTEIGER

@<TRIPOS>ATOM
      1 FE         26.1640   -1.3960   14.3810 Fe    460  HEM460      0.0000
      2  CHA       28.4540   -3.3940   12.8080 C.2   460  HEM460      0.0000
      3  CHB       23.6050   -3.3010   13.1420 C.2   460  HEM460      0.0000
      4  CHC       23.8920    0.7070   15.8530 C.2   460  HEM460      0.0000
      5  CHD       28.6640    0.8130   15.1730 C.2   460  HEM460      0.0000
      6  NA        26.0630   -3.0010   13.1910 N.ar  460  HEM460      0.0000
      7  C1A       27.1030   -3.7180   12.6430 C.ar  460  HEM460      0.0000
      8  C2A       26.5890   -4.8750   11.9440 C.ar  460  HEM460      0.0000
      9  C3A       25.2560   -4.8260   12.0270 C.ar  460  HEM460      0.0000
     10  C4A       24.9120   -3.6540   12.8030 C.ar  460  HEM460      0.0000
     11  CMA       24.2110   -5.8150   11.4250 C.3   460  HEM460      0.0000
     12  CAA       27.4240   -5.9350   11.1670 C.3   460  HEM460      0.0000
     13  CBA       27.6740   -5.5750    9.6850 C.3   460  HEM460      0.0000
     14  CGA       28.3540   -6.5840    8.8120 C.2   460  HEM460      0.0000
     15  O1A       28.4570   -7.7660    9.2010 O.co2 460  HEM460      0.0000
     16  O2A       28.8560   -6.2130    7.6850 O.co2 460  HEM460      0.0000
     17  NB        24.1560   -1.2860   14.4290 N.2   460  HEM460      0.0000
     18  C1B       23.2800   -2.2460   13.9360 C.2   460  HEM460      0.0000
     19  C2B       21.9240   -1.8950   14.3470 C.2   460  HEM460      0.0000
     20  C3B       21.9970   -0.7940   15.1090 C.2   460  HEM460      0.0000
     21  C4B       23.4070   -0.3870   15.1700 C.2   460  HEM460      0.0000
     22  CMB       20.6840   -2.7290   13.9090 C.3   460  HEM460      0.0000
     23  CAB       20.9290    0.0350   15.7810 C.2   460  HEM460      0.0000
     24  CBB       19.8730   -0.3270   16.4950 C.2   460  HEM460      0.0000
     25  NC        26.2510    0.4150   15.2950 N.ar  460  HEM460      0.0000
     26  C1C       25.2230    1.0710   15.9430 C.ar  460  HEM460      0.0000
     27  C2C       25.7510    2.1940   16.6990 C.ar  460  HEM460      0.0000
     28  C3C       27.0670    2.2290   16.5170 C.ar  460  HEM460      0.0000
     29  C4C       27.3900    1.1050   15.6370 C.ar  460  HEM460      0.0000
     30  CMC       24.8700    3.1450   17.5580 C.3   460  HEM460      0.0000
     31  CAC       28.1440    3.1700   17.0400 C.2   460  HEM460      0.0000
     32  CBC       27.9570    4.0030   18.0790 C.2   460  HEM460      0.0000
     33  ND        28.1640   -1.2780   14.0550 N.2   460  HEM460      0.0000
     34  C1D       29.0340   -0.3180   14.4920 C.2   460  HEM460      0.0000
     35  C2D       30.3860   -0.6940   14.1590 C.2   460  HEM460      0.0000
     36  C3D       30.3120   -1.8500   13.4820 C.2   460  HEM460      0.0000
     37  C4D       28.9410   -2.2340   13.4110 C.2   460  HEM460      0.0000
     38  CMD       31.6480    0.1510   14.4730 C.3   460  HEM460      0.0000
     39  CAD       31.5090   -2.6770   12.9480 C.3   460  HEM460      0.0000
     40  CBD       32.2170   -3.4860   14.0860 C.3   460  HEM460      0.0000
     41  CGD       33.3450   -4.4050   13.6410 C.2   460  HEM460      0.0000
     42  O1D       34.3860   -4.3910   14.3410 O.co2 460  HEM460      0.0000
     43  O2D       33.2050   -5.1390   12.6250 O.co2 460  HEM460      0.0000
@<TRIPOS>BOND
     1    16    14   ar
     2    14    15   ar
     3    14    13    1
     4    13    12    1
     5    12     8    1
     6    11     9    1
     7     8     9   ar
     8     8     7   ar
     9     9    10   ar
    10    43    41   ar
    11     7     2    2
    12     7     6   ar
    13    10     3    2
    14    10     6   ar
    15     2    37    1
    16    39    36    1
    17    39    40    1
    18     3    18    1
    19     6     1    1
    20    37    36    1
    21    37    33    2
    22    36    35    2
    23    41    40    1
    24    41    42   ar
    25    22    19    1
    26    18    19    1
    27    18    17    2
    28    33     1    1
    29    33    34    1
    30    35    38    1
    31    35    34    1
    32    19    20    2
    33     1    17    1
    34     1    25    1
    35    17    21    1
    36    34     5    2
    37    20    21    1
    38    20    23    1
    39    21     4    2
    40     5    29    1
    41    25    29   ar
    42    25    26   ar
    43    29    28   ar
    44    23    24    2
    45     4    26    1
    46    26    27   ar
    47    28    27   ar
    48    28    31    1
    49    27    30    1
    50    31    32    2
