@<TRIPOS>MOLECULE
1p0x_HEM_A_1.pdb
 43 50 0 0 0
SMALL
GASTEIGER

@<TRIPOS>ATOM
      1 FE         26.3080   -1.4890   14.4660 Fe    460  HEM460      0.0000
      2  CHA       28.6140   -3.5310   12.9660 C.2   460  HEM460      0.0000
      3  CHB       23.7240   -3.4450   13.2550 C.2   460  HEM460      0.0000
      4  CHC       24.0230    0.5280   16.0300 C.2   460  HEM460      0.0000
      5  CHD       28.8300    0.7280   15.2590 C.2   460  HEM460      0.0000
      6  NA        26.2070   -3.1320   13.3430 N.ar  460  HEM460      0.0000
      7  C1A       27.2590   -3.8270   12.7560 C.ar  460  HEM460      0.0000
      8  C2A       26.7450   -4.9710   12.0570 C.ar  460  HEM460      0.0000
      9  C3A       25.4020   -4.9590   12.1630 C.ar  460  HEM460      0.0000
     10  C4A       25.0460   -3.7860   12.9440 C.ar  460  HEM460      0.0000
     11  CMA       24.3780   -5.9210   11.4980 C.3   460  HEM460      0.0000
     12  CAA       27.5670   -6.0300   11.2480 C.3   460  HEM460      0.0000
     13  CBA       27.8580   -5.5920    9.7850 C.3   460  HEM460      0.0000
     14  CGA       28.5070   -6.6370    8.9090 C.2   460  HEM460      0.0000
     15  O1A       28.4880   -7.8370    9.2780 O.co2 460  HEM460      0.0000
     16  O2A       29.1060   -6.3380    7.8410 O.co2 460  HEM460      0.0000
     17  NB        24.2840   -1.4330   14.5360 N.2   460  HEM460      0.0000
     18  C1B       23.4030   -2.3960   14.0960 C.2   460  HEM460      0.0000
     19  C2B       22.0690   -2.0840   14.5820 C.2   460  HEM460      0.0000
     20  C3B       22.1260   -0.9910   15.3290 C.2   460  HEM460      0.0000
     21  C4B       23.5380   -0.5650   15.3580 C.2   460  HEM460      0.0000
     22  CMB       20.8090   -2.9200   14.1920 C.3   460  HEM460      0.0000
     23  CAB       21.0500   -0.2260   16.0900 C.2   460  HEM460      0.0000
     24  CBB       19.8260   -0.6850   16.3890 C.2   460  HEM460      0.0000
     25  NC        26.4020    0.3060   15.3590 N.ar  460  HEM460      0.0000
     26  C1C       25.3750    0.9030   16.0910 C.ar  460  HEM460      0.0000
     27  C2C       25.9030    1.9530   16.9080 C.ar  460  HEM460      0.0000
     28  C3C       27.2110    2.0390   16.6880 C.ar  460  HEM460      0.0000
     29  C4C       27.5450    0.9910   15.7300 C.ar  460  HEM460      0.0000
     30  CMC       25.0220    2.8540   17.8350 C.3   460  HEM460      0.0000
     31  CAC       28.2700    2.9990   17.2550 C.2   460  HEM460      0.0000
     32  CBC       28.1120    3.8570   18.2650 C.2   460  HEM460      0.0000
     33  ND        28.3440   -1.4200   14.1880 N.2   460  HEM460      0.0000
     34  C1D       29.2060   -0.4330   14.6060 C.2   460  HEM460      0.0000
     35  C2D       30.5620   -0.7890   14.2250 C.2   460  HEM460      0.0000
     36  C3D       30.5060   -1.9600   13.6050 C.2   460  HEM460      0.0000
     37  C4D       29.1240   -2.3720   13.5630 C.2   460  HEM460      0.0000
     38  CMD       31.8050    0.0970   14.5410 C.3   460  HEM460      0.0000
     39  CAD       31.6830   -2.7980   13.0270 C.3   460  HEM460      0.0000
     40  CBD       32.4070   -3.5940   14.1610 C.3   460  HEM460      0.0000
     41  CGD       33.5430   -4.4830   13.7460 C.2   460  HEM460      0.0000
     42  O1D       34.5710   -4.4910   14.4640 O.co2 460  HEM460      0.0000
     43  O2D       33.3820   -5.2190   12.7340 O.co2 460  HEM460      0.0000
@<TRIPOS>BOND
     1    16    14   ar
     2    14    15   ar
     3    14    13    1
     4    13    12    1
     5    12     8    1
     6    11     9    1
     7     8     9   ar
     8     8     7   ar
     9     9    10   ar
    10    43    41   ar
    11     7     2    2
    12     7     6   ar
    13    10     3    2
    14    10     6   ar
    15     2    37    1
    16    39    36    1
    17    39    40    1
    18     3    18    1
    19     6     1    1
    20    37    36    1
    21    37    33    2
    22    36    35    2
    23    41    40    1
    24    41    42   ar
    25    18    17    2
    26    18    19    1
    27    33     1    1
    28    33    34    1
    29    22    19    1
    30    35    38    1
    31    35    34    1
    32     1    17    1
    33     1    25    1
    34    17    21    1
    35    19    20    2
    36    34     5    2
    37     5    29    1
    38    20    21    1
    39    20    23    1
    40    21     4    2
    41    25    29   ar
    42    25    26   ar
    43    29    28   ar
    44     4    26    1
    45    23    24    2
    46    26    27   ar
    47    28    27   ar
    48    28    31    1
    49    27    30    1
    50    31    32    2
