@<TRIPOS>MOLECULE
1p0y_MLZ_C_1.pdb
 11 10 0 0 0
SMALL
GASTEIGER

@<TRIPOS>ATOM
      1  N        109.1750  120.4410  141.5510 N.3   902  MLZ902     -0.1208
      2  CA       110.0150  119.5630  142.3410 C.3   902  MLZ902      0.1943
      3  CB       111.2620  120.2870  142.8350 C.3   902  MLZ902      0.0307
      4  CG       110.9590  121.4550  143.7600 C.3   902  MLZ902      0.0035
      5  CD       112.2370  122.0900  144.2390 C.3   902  MLZ902      0.0189
      6  CE       111.9500  122.9130  145.4580 C.3   902  MLZ902      0.0888
      7  NZ       112.2750  124.3460  145.2520 N.3   902  MLZ902     -0.2165
      8  CM       113.6880  124.6400  145.6150 C.3   902  MLZ902      0.1075
      9  C        109.2930  118.9260  143.5650 C.2   902  MLZ902      0.3819
     10  O        108.0750  119.2070  143.7650 O.co2 902  MLZ902     -0.2441
     11  OXT      109.9610  118.1720  144.2700 O.co2 902  MLZ902     -0.2441
@<TRIPOS>BOND
     1     1     2    1
     2     2     3    1
     3     2     9    1
     4     3     4    1
     5     9    10   ar
     6     9    11   ar
     7     4     5    1
     8     5     6    1
     9     7     6    1
    10     7     8    1
