@<TRIPOS>MOLECULE
1p0y_SAH_A_1.pdb
 26 28 0 0 0
SMALL
GASTEIGER

@<TRIPOS>ATOM
      1  N         70.2940  128.4720   50.3550 N.3   800  SAH800     -0.1208
      2  CA        68.8950  128.2440   50.7450 C.3   800  SAH800      0.1952
      3  CB        68.3880  129.4420   51.5980 C.3   800  SAH800      0.0422
      4  CG        68.9500  129.5240   52.9890 C.3   800  SAH800      0.0597
      5  SD        68.0900  128.5450   54.2700 S.3   800  SAH800     -0.1375
      6  C         67.9970  128.0060   49.4700 C.2   800  SAH800      0.3819
      7  O         66.7520  128.0650   49.5560 O.co2 800  SAH800     -0.2441
      8  OXT       68.5310  127.7500   48.3730 O.co2 800  SAH800     -0.2441
      9  C5'       69.4800  127.5950   54.8540 C.3   800  SAH800      0.0899
     10  C4'       69.8160  126.3680   54.0210 C.3   800  SAH800      0.1630
     11  O4'       70.6710  126.7390   52.9080 O.3   800  SAH800     -0.3153
     12  C3'       70.5940  125.3060   54.7770 C.3   800  SAH800      0.2168
     13  O3'       69.7290  124.3160   55.3130 O.3   800  SAH800     -0.2175
     14  C2'       71.5490  124.7350   53.7600 C.3   800  SAH800      0.2569
     15  O2'       71.0830  123.6360   53.0260 O.3   800  SAH800     -0.2130
     16  C1'       71.8640  125.9690   52.9340 C.3   800  SAH800      0.3185
     17  N9        73.0160  126.7810   53.4560 N.pl3 800  SAH800     -0.1439
     18  C8        73.0190  128.0020   54.1170 C.3   800  SAH800      0.3377
     19  N7        74.2090  128.4400   54.4410 N.2   800  SAH800     -0.2095
     20  C5        75.0670  127.4550   53.9700 C.2   800  SAH800      0.2526
     21  C6        76.4790  127.3150   53.9990 C.2   800  SAH800      0.4393
     22  N6        77.2900  128.2220   54.5500 N.pl3 800  SAH800      0.2180
     23  N1        77.0360  126.1970   53.4350 N.2   800  SAH800      0.0021
     24  C2        76.2300  125.2660   52.8740 C.3   800  SAH800      0.5254
     25  N3        74.8820  125.2850   52.7840 N.2   800  SAH800     -0.0055
     26  C4        74.3540  126.4180   53.3580 C.2   800  SAH800      0.3518
@<TRIPOS>BOND
     1     8     6   ar
     2     6     7   ar
     3     6     2    1
     4     1     2    1
     5     2     3    1
     6     3     4    1
     7    25    24    1
     8    25    26    2
     9    24    23    1
    10    11    16    1
    11    11    10    1
    12    16    17    1
    13    16    14    1
    14     4     5    1
    15    15    14    1
    16    26    17    1
    17    26    20    1
    18    23    21    2
    19    17    18    1
    20    14    12    1
    21    20    21    1
    22    20    19    2
    23    21    22    1
    24    10    12    1
    25    10     9    1
    26    18    19    1
    27     5     9    1
    28    12    13    1
