@<TRIPOS>MOLECULE
1p0z_FLC_A_1.pdb
 13 12 0 0 0
SMALL
GASTEIGER

@<TRIPOS>ATOM
      1  CAC       10.8290   37.2980   80.4720 C.2   1632  FLC1632     0.3680
      2  CA        11.8650   38.3360   79.9590 C.3   1632  FLC1632     0.1560
      3  CB        12.1790   38.1660   78.3960 C.3   1632  FLC1632     0.2402
      4  CBC       12.9410   36.8400   78.0290 C.2   1632  FLC1632     0.3927
      5  CG        12.9510   39.4670   77.8650 C.3   1632  FLC1632     0.1560
      6  CGC       13.3220   39.5210   76.3660 C.2   1632  FLC1632     0.3680
      7  OA1       11.1040   36.1110   80.4420 O.co2 1632  FLC1632    -0.2455
      8  OA2        9.7460   37.7820   80.8090 O.co2 1632  FLC1632    -0.2455
      9  OB1       13.9430   36.5210   78.6730 O.co2 1632  FLC1632    -0.2429
     10  OB2       12.5250   36.1920   77.0410 O.co2 1632  FLC1632    -0.2429
     11  OG1       12.7940   38.6930   75.5400 O.co2 1632  FLC1632    -0.2455
     12  OG2       14.1330   40.3630   76.0530 O.co2 1632  FLC1632    -0.2455
     13  OHB       10.9720   38.1430   77.6200 O.3   1632  FLC1632    -0.2129
@<TRIPOS>BOND
     1    11     6   ar
     2    12     6   ar
     3     6     5    1
     4    10     4   ar
     5    13     3    1
     6     5     3    1
     7     4     3    1
     8     4     9   ar
     9     3     2    1
    10     2     1    1
    11     7     1   ar
    12     1     8   ar
