@<TRIPOS>MOLECULE
1p0z_MO7_A_1.pdb
 31 36 0 0 0
SMALL
GASTEIGER

@<TRIPOS>ATOM
      1 MO1         5.0450   59.1110   84.9530 Mo    1630  MO71630     0.0000
      2  O1         6.0550   60.3580   84.7550 O.3   1630  MO71630     0.0000
      3  O2         3.9090   57.3420   84.9660 O.3   1630  MO71630     0.0000
      4  O3         6.2160   57.8700   85.8260 O.3   1630  MO71630     0.0000
      5  O4         4.0780   59.6030   86.3880 O.3   1630  MO71630     0.0000
      6  O5         6.2030   58.2300   83.2400 O.3   1630  MO71630     0.0000
      7 MO2         2.5290   57.7520   86.5810 Mo    1630  MO71630     0.0000
      8  O6         1.5710   56.4260   86.6440 O.3   1630  MO71630     0.0000
      9  O7         4.0350   57.0140   87.4310 O.3   1630  MO71630     0.0000
     10  O8         1.9310   58.7580   87.8960 O.3   1630  MO71630     0.0000
     11 MO3         5.0980   55.9570   86.0900 Mo    1630  MO71630     0.0000
     12  O9         6.2110   55.6830   84.4770 O.3   1630  MO71630     0.0000
     13  O10        4.0550   54.6050   85.8830 O.3   1630  MO71630     0.0000
     14  O11        6.2120   55.3920   87.2760 O.3   1630  MO71630     0.0000
     15 MO4         7.6270   57.0230   84.2540 Mo    1630  MO71630     0.0000
     16  O12        8.4150   58.7800   84.2870 O.3   1630  MO71630     0.0000
     17  O13        8.6260   56.4720   85.5930 O.3   1630  MO71630     0.0000
     18  O14        8.3820   56.3230   82.8110 O.3   1630  MO71630     0.0000
     19 MO5         7.5840   59.8000   82.8870 Mo    1630  MO71630     0.0000
     20  O15        8.5390   59.2500   81.5490 O.3   1630  MO71630     0.0000
     21  O16        8.2740   61.3430   83.2450 O.3   1630  MO71630     0.0000
     22  O17        3.8490   59.4620   83.5140 O.3   1630  MO71630     0.0000
     23  O18        1.6780   58.5860   85.1050 O.3   1630  MO71630     0.0000
     24  O19        6.0010   60.3580   81.9650 O.3   1630  MO71630     0.0000
     25 MO6         2.4490   57.7880   83.4600 Mo    1630  MO71630     0.0000
     26 MO7         4.9100   58.8500   81.6230 Mo    1630  MO71630     0.0000
     27  O20        3.7710   57.3870   82.0700 O.3   1630  MO71630     0.0000
     28  O21        1.6930   56.3460   83.4900 O.3   1630  MO71630     0.0000
     29  O22        1.4210   58.7820   82.4420 O.3   1630  MO71630     0.0000
     30  O23        3.6990   59.8020   80.7400 O.3   1630  MO71630     0.0000
     31  O24        5.8150   58.0900   80.3390 O.3   1630  MO71630     0.0000
@<TRIPOS>BOND
     1    31    26    1
     2    30    26    1
     3    20    19    1
     4    26    24    1
     5    26    27    1
     6    24    19    1
     7    27    25    1
     8    29    25    1
     9    18    15    1
    10    19     6    1
    11    19    21    1
    12    19    16    1
    13    19     2    1
    14     6    15    1
    15    25    28    1
    16    25    22    1
    17    25    23    1
    18    22     1    1
    19    15    16    1
    20    15    12    1
    21    15    17    1
    22    12    11    1
    23     2     1    1
    24     1     3    1
    25     1     4    1
    26     1     5    1
    27     3    11    1
    28    23     7    1
    29     4    11    1
    30    13    11    1
    31    11    14    1
    32    11     9    1
    33     5     7    1
    34     7     8    1
    35     7     9    1
    36     7    10    1
