@<TRIPOS>MOLECULE
1p10_III_P_1.pdb
 25 25 0 0 0
SMALL
GASTEIGER

@<TRIPOS>ATOM
      1  N         14.0720   42.0480   18.5070 N.3     4  ALA4        0.0000
      2  CA        14.4070   40.6540   18.1900 C.3     4  ALA4        0.0000
      3  C         13.4700   39.5060   18.5330 C.2     4  ALA4        0.0000
      4  O         12.7930   39.5190   19.5990 O.2     4  ALA4        0.0000
      5  CB        15.5890   40.3420   19.1370 C.3     4  ALA4        0.0000
      6  N         13.5200   38.5140   17.6460 N.am    3  ALA3        0.0000
      7  CA        12.7330   37.2720   17.8200 C.3     3  ALA3        0.0000
      8  C         13.6610   36.1210   17.3940 C.2     3  ALA3        0.0000
      9  O         14.5040   36.3760   16.5290 O.2     3  ALA3        0.0000
     10  CB        11.5700   37.2130   16.8280 C.3     3  ALA3        0.0000
     11  N         13.3940   34.9750   17.9670 N.am    2  PRO2        0.0000
     12  CA        14.1580   33.7570   17.6200 C.3     2  PRO2        0.0000
     13  C         13.8660   33.3220   16.1770 C.2     2  PRO2        0.0000
     14  O         12.6900   33.4870   15.7140 O.2     2  PRO2        0.0000
     15  CB        13.7020   32.7660   18.6910 C.3     2  PRO2        0.0000
     16  CG        12.9230   33.5090   19.7090 C.3     2  PRO2        0.0000
     17  CD        12.2980   34.6720   18.9330 C.3     2  PRO2        0.0000
     18  N         14.8760   32.7910   15.5000 N.am    1  VAL1        0.0000
     19  CA        14.6560   32.3270   14.1040 C.3     1  VAL1        0.0000
     20  CB        15.4860   33.1040   13.0200 C.3     1  VAL1        0.0000
     21  CG1       14.9750   34.5190   12.7620 C.3     1  VAL1        0.0000
     22  CG2       16.9730   33.2230   13.3560 C.3     1  VAL1        0.0000
     23  B         14.7020   30.7590   14.0120 B       1  VAL1        0.0000
     24  O1        14.9160   30.1800   12.6550 O.3     1  VAL1        0.0000
     25  O2        13.8070   30.1390   15.0140 O.3     1  VAL1        0.0000
@<TRIPOS>BOND
     1    24    23    1
     2    21    20    1
     3    20    22    1
     4    20    19    1
     5    23    19    1
     6    23    25    1
     7    19    18    1
     8    18    13   am
     9    14    13    2
    10    13    12    1
    11     9     8    2
    12    10     7    1
    13     8     7    1
    14     8    11   am
    15    12    11    1
    16    12    15    1
    17     6     7    1
    18     6     3   am
    19    11    17    1
    20     2     1    1
    21     2     3    1
    22     2     5    1
    23     3     4    2
    24    15    16    1
    25    17    16    1
