@<TRIPOS>MOLECULE
1p11_III_I_1.pdb
 32 32 0 0 0
SMALL
GASTEIGER

@<TRIPOS>ATOM
      1  O1        11.1770   43.1380   18.6430 O.2     5  BOC5       -0.2246
      2  C         11.9010   42.1890   18.2800 C.2     5  BOC5        0.4213
      3  O2        11.4980   41.3570   17.2110 O.3     5  BOC5       -0.4408
      4  CT        10.2810   41.5650   16.5210 C.3     5  BOC5        0.1379
      5  C1         9.1090   41.4630   17.5010 C.3     5  BOC5        0.0437
      6  C2        10.3810   42.9200   15.8130 C.3     5  BOC5        0.0437
      7  C3        10.1190   40.4680   15.4580 C.3     5  BOC5        0.0437
      8  N         13.0660   41.8980   18.8170 N.am    4  ALA4       -0.1611
      9  CA        13.9120   40.7530   18.4910 C.3     4  ALA4        0.1762
     10  C         13.0990   39.4580   18.6680 C.2     4  ALA4        0.2617
     11  O         12.2950   39.3660   19.6130 O.2     4  ALA4       -0.2715
     12  CB        15.1480   40.7560   19.3860 C.3     4  ALA4        0.0335
     13  N         13.3460   38.5440   17.7590 N.am    3  ALA3       -0.1964
     14  CA        12.6580   37.2330   17.8600 C.3     3  ALA3        0.1713
     15  C         13.7070   36.1630   17.5190 C.2     3  ALA3        0.2458
     16  O         14.5820   36.4560   16.6850 O.2     3  ALA3       -0.2730
     17  CB        11.4620   37.1440   16.9300 C.3     3  ALA3        0.0333
     18  N         13.5670   35.0070   18.1400 N.am    2  PRO2       -0.2716
     19  CA        14.4520   33.8710   17.8130 C.3     2  PRO2        0.1536
     20  C         14.0490   33.3880   16.4180 C.2     2  PRO2        0.2599
     21  O         12.8430   33.5430   16.0820 O.2     2  PRO2       -0.2715
     22  CB        14.1340   32.8750   18.9290 C.3     2  PRO2        0.0310
     23  CG        12.8450   33.2650   19.5730 C.3     2  PRO2        0.0237
     24  CD        12.5090   34.6650   19.0920 C.3     2  PRO2        0.0939
     25  C1        14.6150   32.3480   14.2410 C.3     1  PVA1        0.1693
     26  C2        15.3250   33.2560   13.2020 C.3     1  PVA1        0.0289
     27  C3        16.8510   33.2300   13.3800 C.3     1  PVA1        0.0023
     28  CM        14.8850   34.7230   13.2570 C.3     1  PVA1        0.0023
     29  N         14.9360   32.8550   15.5950 N.am    1  PVA1       -0.1964
     30  P         14.9140   30.7900   14.0660 P.3     1  PVA1        0.2751
     31  O1P       14.0460   29.8110   14.8750 O.3     1  PVA1       -0.1727
     32  O3P       15.0700   30.3760   12.6600 O.3     1  PVA1       -0.1727
@<TRIPOS>BOND
     1    32    30    1
     2    26    28    1
     3    26    27    1
     4    26    25    1
     5    30    25    1
     6    30    31    1
     7    25    29    1
     8     7     4    1
     9    29    20   am
    10     6     4    1
    11    21    20    2
    12    20    19    1
    13     4     3    1
    14     4     5    1
    15    16    15    2
    16    17    14    1
    17     3     2    1
    18    15    14    1
    19    15    18   am
    20    13    14    1
    21    13    10   am
    22    19    18    1
    23    19    22    1
    24    18    24    1
    25     2     1    2
    26     2     8   am
    27     9    10    1
    28     9     8    1
    29     9    12    1
    30    10    11    2
    31    22    23    1
    32    24    23    1
