@<TRIPOS>MOLECULE
1p12_III_I_1.pdb
 42 42 0 0 0
SMALL
GASTEIGER

@<TRIPOS>ATOM
      1  O1        11.1890   43.2090   18.6990 O.2     5  BOC5       -0.2246
      2  C         11.8990   42.2580   18.2930 C.2     5  BOC5        0.4213
      3  O2        11.4330   41.4560   17.2260 O.3     5  BOC5       -0.4408
      4  CT        10.1560   41.6860   16.6470 C.3     5  BOC5        0.1379
      5  C1         9.0800   41.4910   17.7230 C.3     5  BOC5        0.0437
      6  C2        10.0870   43.1190   16.0980 C.3     5  BOC5        0.0437
      7  C3         9.9450   40.6700   15.5110 C.3     5  BOC5        0.0437
      8  N         13.0710   41.9390   18.7790 N.am    4  ALA4       -0.1611
      9  CA        13.9240   40.8150   18.3990 C.3     4  ALA4        0.1762
     10  C         13.1190   39.5040   18.5270 C.2     4  ALA4        0.2617
     11  O         12.3540   39.4170   19.5030 O.2     4  ALA4       -0.2715
     12  CB        15.1300   40.7750   19.3530 C.3     4  ALA4        0.0335
     13  N         13.3550   38.6080   17.6140 N.am    3  ALA3       -0.1964
     14  CA        12.6460   37.2800   17.8110 C.3     3  ALA3        0.1713
     15  C         13.7180   36.1990   17.5270 C.2     3  ALA3        0.2458
     16  O         14.5780   36.5250   16.6700 O.2     3  ALA3       -0.2730
     17  CB        11.5380   37.2150   16.7830 C.3     3  ALA3        0.0333
     18  N         13.6070   35.0420   18.1610 N.am    2  PRO2       -0.2716
     19  CA        14.5680   33.9510   17.7570 C.3     2  PRO2        0.1536
     20  C         14.1060   33.4200   16.4100 C.2     2  PRO2        0.2599
     21  O         12.8940   33.5350   16.0970 O.2     2  PRO2       -0.2715
     22  CB        14.0210   33.0210   18.9370 C.3     2  PRO2        0.0310
     23  CG        12.7160   33.3210   19.7670 C.3     2  PRO2        0.0237
     24  CD        12.5240   34.7110   19.1050 C.3     2  PRO2        0.0939
     25  C1        14.6290   32.2700   14.2630 C.3     1  PVA1        0.1667
     26  C2        15.3160   33.2140   13.2300 C.3     1  PVA1        0.0288
     27  C3        16.8690   33.2420   13.3490 C.3     1  PVA1        0.0023
     28  CM        14.8590   34.6750   13.2370 C.3     1  PVA1        0.0023
     29  N         14.9750   32.8500   15.5680 N.am    1  PVA1       -0.1965
     30  P         15.0690   30.7270   14.1090 P.3     1  PVA1        0.2409
     31  O1P       15.1820   30.2870   12.6850 O.3     1  PVA1       -0.1756
     32  C1        12.3430   29.0560   13.3240 C.2    -1  LAC-1       0.2694
     33  C2        13.3480   28.6300   14.3750 C.3    -1  LAC-1       0.1986
     34  C3        12.6500   27.8160   15.4930 C.3    -1  LAC-1       0.0425
     35  O1        12.0140   30.2700   13.2770 O.2    -1  LAC-1      -0.2707
     36  O2        14.0990   29.8320   14.9140 O.3    -1  LAC-1      -0.3093
     37  N         11.8920   28.1710   12.4790 N.am   -2  ALA-2      -0.1935
     38  CA        10.8580   28.4430   11.4770 C.3    -2  ALA-2       0.1979
     39  C          9.8570   27.3000   11.7170 C.2    -2  ALA-2       0.3842
     40  O          8.9480   27.0560   10.9470 O.co2  -2  ALA-2      -0.2437
     41  CB        11.3590   28.4520   10.0460 C.3    -2  ALA-2       0.0356
     42  OXT        9.9480   26.5540   12.6480 O.co2  -2  ALA-2      -0.2437
@<TRIPOS>BOND
     1    41    38    1
     2    40    39   ar
     3    38    39    1
     4    38    37    1
     5    39    42   ar
     6    37    32   am
     7    31    30    1
     8    26    28    1
     9    26    27    1
    10    26    25    1
    11    35    32    2
    12    32    33    1
    13    30    25    1
    14    30    36    1
    15    25    29    1
    16    33    36    1
    17    33    34    1
    18     7     4    1
    19    29    20   am
    20    21    20    2
    21     6     4    1
    22    20    19    1
    23     4     3    1
    24     4     5    1
    25    16    15    2
    26    17    14    1
    27     3     2    1
    28    15    14    1
    29    15    18   am
    30    13    14    1
    31    13    10   am
    32    19    18    1
    33    19    22    1
    34    18    24    1
    35     2     1    2
    36     2     8   am
    37     9    10    1
    38     9     8    1
    39     9    12    1
    40    10    11    2
    41    22    23    1
    42    24    23    1
