@<TRIPOS>MOLECULE
1p17_IMP_A_1.pdb
 23 25 0 0 0
SMALL
GASTEIGER

@<TRIPOS>ATOM
      1  P          8.5560   38.0610  -11.8730 P.3   3000  IMP3000     0.5327
      2  O1P        7.6930   38.3180  -13.0490 O.2   3000  IMP3000    -0.2224
      3  O2P        8.3060   36.8300  -11.0790 O.3   3000  IMP3000    -0.1145
      4  O3P        9.9920   38.1450  -12.2690 O.3   3000  IMP3000    -0.1145
      5  O5'        8.2870   39.2930  -10.8870 O.3   3000  IMP3000    -0.2675
      6  C5'        9.2390   39.6580   -9.8860 C.3   3000  IMP3000     0.1860
      7  C4'        8.5650   39.8380   -8.5410 C.3   3000  IMP3000     0.1823
      8  O4'        7.8490   41.1000   -8.4810 O.3   3000  IMP3000    -0.3135
      9  C3'        7.5050   38.8170   -8.1750 C.3   3000  IMP3000     0.2184
     10  O3'        8.0930   37.5980   -7.7260 O.3   3000  IMP3000    -0.2174
     11  C2'        6.7440   39.5390   -7.0580 C.3   3000  IMP3000     0.2570
     12  O2'        7.3720   39.4390   -5.7930 O.3   3000  IMP3000    -0.2130
     13  C1'        6.8070   41.0010   -7.5190 C.3   3000  IMP3000     0.3186
     14  N9         5.5700   41.5300   -8.0940 N.pl3 3000  IMP3000    -0.1435
     15  C8         5.1960   41.5100   -9.4150 C.3   3000  IMP3000     0.3382
     16  N7         4.0400   42.0770   -9.6300 N.2   3000  IMP3000    -0.2054
     17  C5         3.6200   42.4920   -8.3750 C.2   3000  IMP3000     0.2446
     18  C6         2.4410   43.1640   -7.9840 C.1   3000  IMP3000     0.1792
     19  O6         1.4960   43.5290   -8.6910 O.2   3000  IMP3000    -0.2203
     20  N1         2.4160   43.4000   -6.6150 N.2   3000  IMP3000    -0.1458
     21  C2         3.3950   43.0320   -5.7360 C.3   3000  IMP3000     0.4017
     22  N3         4.5010   42.3970   -6.0870 N.2   3000  IMP3000    -0.0334
     23  C4         4.5480   42.1610   -7.4140 C.2   3000  IMP3000     0.3528
@<TRIPOS>BOND
     1     2     1    2
     2     4     1    1
     3     1     3    1
     4     1     5    1
     5     5     6    1
     6     6     7    1
     7    16    15    1
     8    16    17    2
     9    15    14    1
    10    19    18    2
    11     7     8    1
    12     7     9    1
    13     8    13    1
    14    17    18    1
    15    17    23    1
    16     9    10    1
    17     9    11    1
    18    14    13    1
    19    14    23    1
    20    18    20    2
    21    13    11    1
    22    23    22    2
    23    11    12    1
    24    20    21    1
    25    22    21    1
