@<TRIPOS>MOLECULE
1p18_PRP_A_1.pdb
 22 22 0 0 0
SMALL
GASTEIGER

@<TRIPOS>ATOM
      1  C1        39.9410   60.8150   30.4740 C.3   801  PRP801      0.2742
      2  C2        39.0580   59.7060   30.2310 C.3   801  PRP801      0.2408
      3  C3        39.9620   58.9220   29.2090 C.3   801  PRP801      0.2167
      4  C4        40.5660   60.1030   28.3890 C.3   801  PRP801      0.1808
      5  C5        39.8670   60.2460   27.0070 C.3   801  PRP801      0.1859
      6  O1        40.8270   60.4160   31.4880 O.3   801  PRP801     -0.2857
      7  O2        38.7950   59.3130   31.5900 O.3   801  PRP801     -0.2149
      8  O3        41.1830   58.4870   29.7740 O.3   801  PRP801     -0.2175
      9  O4        40.5090   61.2800   29.2790 O.3   801  PRP801     -0.3255
     10  O5        40.2220   61.3640   26.1910 O.3   801  PRP801     -0.2675
     11  P         41.6480   61.5620   25.3870 P.3   801  PRP801      0.5327
     12  O1P       41.7100   60.4690   24.3690 O.2   801  PRP801     -0.2224
     13  O2P       42.7380   61.4850   26.4060 O.3   801  PRP801     -0.1145
     14  O3P       41.4650   62.9100   24.8050 O.3   801  PRP801     -0.1145
     15  PA        41.1280   61.6330   32.5610 P.3   801  PRP801      0.2249
     16  O1A       42.2930   62.4320   32.1200 O.2   801  PRP801     -0.5169
     17  O2A       39.8780   62.4120   32.6600 O.3   801  PRP801     -0.4370
     18  O3A       41.3930   60.7880   33.7510 O.3   801  PRP801     -0.2260
     19  PB        40.3080   60.1480   34.5170 P.3   801  PRP801      0.5373
     20  O1B       39.2150   61.1590   34.7330 O.3   801  PRP801     -0.1143
     21  O2B       40.9260   59.8440   35.8210 O.3   801  PRP801     -0.1143
     22  O3B       39.8440   58.8600   33.8570 O.2   801  PRP801     -0.2221
@<TRIPOS>BOND
     1    12    11    2
     2    14    11    1
     3    11    10    1
     4    11    13    1
     5    10     5    1
     6     5     4    1
     7     4     3    1
     8     4     9    1
     9     3     8    1
    10     3     2    1
    11     9     1    1
    12     2     1    1
    13     2     7    1
    14     1     6    1
    15     6    15    1
    16    16    15    2
    17    15    17    1
    18    15    18    1
    19    18    19    1
    20    22    19    2
    21    19    20    1
    22    19    21    1
