@<TRIPOS>MOLECULE
1p18_7HP_A_1.pdb
 10 11 0 0 0
SMALL
GASTEIGER

@<TRIPOS>ATOM
      1  C9        38.0290   62.7250   28.2320 C.2   800  7HP800      0.1431
      2  C4        36.8450   63.2240   28.7680 C.2   800  7HP800      0.1297
      3  N3        36.4690   63.2140   30.0920 N.2   800  7HP800     -0.2396
      4  C2        35.1780   63.6260   30.1910 C.3   800  7HP800      0.2626
      5  N1        34.4220   64.1030   29.1320 N.2   800  7HP800     -0.1739
      6  C6        34.8510   64.2490   27.8120 C.1   800  7HP800      0.1734
      7  O6        34.1580   64.7380   26.9170 O.2   800  7HP800     -0.2205
      8  C5        36.1860   63.8320   27.6950 C.2   800  7HP800      0.2035
      9  N7        37.0130   63.9320   26.5750 N.2   800  7HP800     -0.1344
     10  N8        38.0680   63.2390   26.9620 N.2   800  7HP800     -0.1440
@<TRIPOS>BOND
     1     9    10    1
     2     9     8    2
     3     7     6    2
     4    10     1    2
     5     8     6    1
     6     8     2    1
     7     6     5    2
     8     1     2    1
     9     2     3    2
    10     5     4    1
    11     3     4    1
