@<TRIPOS>MOLECULE
1p19_IMP_A_1.pdb
 23 25 0 0 0
SMALL
GASTEIGER

@<TRIPOS>ATOM
      1  P         70.3090   39.1240   36.1390 P.3   1300  IMP1300     0.5327
      2  O1P       70.6410   40.4980   36.6280 O.3   1300  IMP1300    -0.1145
      3  O2P       71.0580   38.1060   36.9580 O.3   1300  IMP1300    -0.1145
      4  O3P       68.7850   38.8370   36.2130 O.2   1300  IMP1300    -0.2224
      5  O5'       70.7180   38.9220   34.5620 O.3   1300  IMP1300    -0.2675
      6  C5'       69.9780   39.6720   33.5770 C.3   1300  IMP1300     0.1860
      7  C4'       70.3860   39.5600   32.1180 C.3   1300  IMP1300     0.1823
      8  O4'       70.8550   40.9170   31.8510 O.3   1300  IMP1300    -0.3135
      9  C3'       71.5260   38.6750   31.6120 C.3   1300  IMP1300     0.2184
     10  O3'       71.1570   37.3580   31.2900 O.3   1300  IMP1300    -0.2174
     11  C2'       72.0440   39.4210   30.3970 C.3   1300  IMP1300     0.2570
     12  O2'       71.2750   39.2470   29.2110 O.3   1300  IMP1300    -0.2130
     13  C1'       71.9710   40.8610   30.9630 C.3   1300  IMP1300     0.3186
     14  N9        73.1650   41.0940   31.8020 N.pl3 1300  IMP1300    -0.1435
     15  C8        73.3820   40.9260   33.1510 C.3   1300  IMP1300     0.3382
     16  N7        74.5870   41.2510   33.4910 N.2   1300  IMP1300    -0.2054
     17  C5        75.1990   41.6500   32.3320 C.2   1300  IMP1300     0.2446
     18  C6        76.5220   42.1170   32.0740 C.1   1300  IMP1300     0.1792
     19  O6        77.4370   42.2690   32.8700 O.2   1300  IMP1300    -0.2203
     20  N1        76.7590   42.4310   30.7160 N.2   1300  IMP1300    -0.1458
     21  C2        75.7790   42.2890   29.7420 C.3   1300  IMP1300     0.4017
     22  N3        74.5350   41.8470   29.9950 N.2   1300  IMP1300    -0.0334
     23  C4        74.3260   41.5570   31.2750 C.2   1300  IMP1300     0.3528
@<TRIPOS>BOND
     1    12    11    1
     2    21    22    1
     3    21    20    1
     4    22    23    2
     5    11    13    1
     6    11     9    1
     7    20    18    2
     8    13    14    1
     9    13     8    1
    10    23    14    1
    11    23    17    1
    12    10     9    1
    13     9     7    1
    14    14    15    1
    15     8     7    1
    16    18    17    1
    17    18    19    2
    18     7     6    1
    19    17    16    2
    20    15    16    1
    21     6     5    1
    22     5     1    1
    23     1     4    2
    24     1     2    1
    25     1     3    1
