@<TRIPOS>MOLECULE
1p1h_NAD_A_1.pdb
 44 48 0 0 0
SMALL
GASTEIGER

@<TRIPOS>ATOM
      1  PA       -27.6560  -82.6360    9.5820 P.3   650  NAD650      0.2189
      2  O1A      -26.5520  -81.9510   10.2020 O.3   650  NAD650     -0.4371
      3  O2A      -28.7470  -81.7460    9.1620 O.2   650  NAD650     -0.5170
      4  O5B      -28.3410  -83.6470   10.6020 O.3   650  NAD650     -0.3112
      5  C5B      -27.5600  -84.5500   11.4410 C.3   650  NAD650      0.1813
      6  C4B      -28.3500  -84.8000   12.6950 C.3   650  NAD650      0.1821
      7  O4B      -27.5720  -85.7060   13.5090 O.3   650  NAD650     -0.3135
      8  C3B      -28.5830  -83.5570   13.6040 C.3   650  NAD650      0.2184
      9  O3B      -30.0070  -83.3310   13.8140 O.3   650  NAD650     -0.2174
     10  C2B      -27.7780  -83.9080   14.8980 C.3   650  NAD650      0.2570
     11  O2B      -28.4230  -83.3960   16.0970 O.3   650  NAD650     -0.2130
     12  C1B      -27.8400  -85.4380   14.8480 C.3   650  NAD650      0.3186
     13  N9A      -26.8030  -86.1110   15.6550 N.pl3 650  NAD650     -0.1439
     14  C8A      -25.4300  -85.9020   15.6850 C.3   650  NAD650      0.3377
     15  N7A      -24.7560  -86.7240   16.5270 N.2   650  NAD650     -0.2095
     16  C5A      -25.7800  -87.5460   17.0210 C.2   650  NAD650      0.2526
     17  C6A      -25.7650  -88.7140   17.9260 C.2   650  NAD650      0.4393
     18  N6A      -24.6500  -89.2030   18.4660 N.pl3 650  NAD650      0.2180
     19  N1A      -26.9850  -89.3660   18.1370 N.2   650  NAD650      0.0021
     20  C2A      -28.1510  -88.8940   17.5160 C.3   650  NAD650      0.5254
     21  N3A      -28.2590  -87.8320   16.7100 N.2   650  NAD650     -0.0055
     22  C4A      -27.0480  -87.1940   16.4860 C.2   650  NAD650      0.3518
     23  O3       -27.1370  -83.6290    8.5190 O.3   650  NAD650     -0.2703
     24  PN       -27.6960  -84.2630    7.1600 P.3   650  NAD650      0.2189
     25  O1N      -28.9260  -85.0520    7.5440 O.3   650  NAD650     -0.4371
     26  O2N      -27.8830  -83.2180    6.1430 O.2   650  NAD650     -0.5170
     27  O5D      -26.5260  -85.3050    6.8390 O.3   650  NAD650     -0.3112
     28  C5D      -26.2640  -86.4020    7.7840 C.3   650  NAD650      0.1813
     29  C4D      -25.1140  -87.2690    7.2890 C.3   650  NAD650      0.1799
     30  O4D      -25.4530  -87.9530    6.0320 O.3   650  NAD650     -0.3327
     31  C3D      -23.8010  -86.5490    7.1040 C.3   650  NAD650      0.2158
     32  O3D      -23.0140  -86.4740    8.3140 O.3   650  NAD650     -0.2175
     33  C2D      -23.1440  -87.4160    5.9920 C.3   650  NAD650      0.2309
     34  O2D      -22.4700  -88.5320    6.6120 O.3   650  NAD650     -0.2158
     35  C1D      -24.3340  -87.8720    5.1660 C.3   650  NAD650      0.2263
     36  N1N      -24.5940  -87.1590    3.8560 N.pl3 650  NAD650     -0.2787
     37  C2N      -25.5330  -86.0800    3.8210 C.3   650  NAD650      0.1244
     38  C3N      -25.9020  -85.4820    2.5940 C.2   650  NAD650      0.0544
     39  C7N      -26.8990  -84.3070    2.5660 C.2   650  NAD650      0.2818
     40  O7N      -27.1900  -83.8030    1.5010 O.2   650  NAD650     -0.2670
     41  N7N      -27.4580  -83.8160    3.6930 N.am  650  NAD650     -0.0839
     42  C4N      -25.3120  -85.9940    1.3210 C.2   650  NAD650      0.0033
     43  C5N      -24.3670  -87.0960    1.3620 C.2   650  NAD650      0.0157
     44  C6N      -24.0290  -87.6660    2.6080 C.2   650  NAD650      0.0633
@<TRIPOS>BOND
     1    42    43    1
     2    42    38    2
     3    43    44    2
     4    40    39    2
     5    39    38    1
     6    39    41   am
     7    38    37    1
     8    44    36    1
     9    37    36    1
    10    36    35    1
    11    35    33    1
    12    35    30    1
    13    33    34    1
    14    33    31    1
    15    30    29    1
    16    26    24    2
    17    27    24    1
    18    27    28    1
    19    31    29    1
    20    31    32    1
    21    24    25    1
    22    24    23    1
    23    29    28    1
    24    23     1    1
    25     3     1    2
    26     1     2    1
    27     1     4    1
    28     4     5    1
    29     5     6    1
    30     6     7    1
    31     6     8    1
    32     7    12    1
    33     8     9    1
    34     8    10    1
    35    12    10    1
    36    12    13    1
    37    10    11    1
    38    13    14    1
    39    13    22    1
    40    14    15    1
    41    22    21    2
    42    22    16    1
    43    15    16    2
    44    21    20    1
    45    16    17    1
    46    20    19    1
    47    17    19    2
    48    17    18    1
