@<TRIPOS>MOLECULE
1p1i_NAD_A_1.pdb
 44 48 0 0 0
SMALL
GASTEIGER

@<TRIPOS>ATOM
      1  PA       -20.5390   44.5090    5.7680 P.3   650  NAD650      0.2189
      2  O1A      -19.8710   45.5990    5.0710 O.3   650  NAD650     -0.4371
      3  O2A      -21.3650   43.6830    4.8600 O.2   650  NAD650     -0.5170
      4  O5B      -21.5820   44.9900    6.8410 O.3   650  NAD650     -0.3112
      5  C5B      -21.4790   46.2860    7.4880 C.3   650  NAD650      0.1813
      6  C4B      -22.8710   46.8520    7.6060 C.3   650  NAD650      0.1821
      7  O4B      -22.7390   48.0740    8.3720 O.3   650  NAD650     -0.3135
      8  C3B      -23.5240   47.2790    6.2620 C.3   650  NAD650      0.2184
      9  O3B      -24.8640   46.7680    6.1930 O.3   650  NAD650     -0.2174
     10  C2B      -23.4260   48.8310    6.3160 C.3   650  NAD650      0.2570
     11  O2B      -24.5230   49.4880    5.6090 O.3   650  NAD650     -0.2130
     12  C1B      -23.5500   49.0520    7.8250 C.3   650  NAD650      0.3186
     13  N9A      -23.0180   50.3160    8.2900 N.pl3 650  NAD650     -0.1439
     14  C8A      -21.8530   50.9860    7.9590 C.3   650  NAD650      0.3377
     15  N7A      -21.5810   52.0570    8.7430 N.2   650  NAD650     -0.2095
     16  C5A      -22.6970   52.0700    9.5860 C.2   650  NAD650      0.2526
     17  C6A      -23.1130   52.9740   10.6670 C.2   650  NAD650      0.4393
     18  N6A      -22.4050   54.0400   11.0540 N.pl3 650  NAD650      0.2180
     19  N1A      -24.3100   52.6760   11.3070 N.2   650  NAD650      0.0021
     20  C2A      -25.0370   51.5260   10.9500 C.3   650  NAD650      0.5254
     21  N3A      -24.7360   50.6510    9.9700 N.2   650  NAD650     -0.0055
     22  C4A      -23.5770   50.9900    9.3120 C.2   650  NAD650      0.3518
     23  O3       -19.4720   43.7190    6.6120 O.3   650  NAD650     -0.2703
     24  PN       -19.4760   42.5700    7.7540 P.3   650  NAD650      0.2189
     25  O1N      -18.8630   41.3770    7.0890 O.2   650  NAD650     -0.5170
     26  O2N      -20.8320   42.3610    8.3000 O.3   650  NAD650     -0.4371
     27  O5D      -18.4270   43.1370    8.8080 O.3   650  NAD650     -0.3112
     28  C5D      -18.7520   44.3210    9.5690 C.3   650  NAD650      0.1813
     29  C4D      -17.5230   44.7710   10.3620 C.3   650  NAD650      0.1799
     30  O4D      -17.1320   43.7440   11.3150 O.3   650  NAD650     -0.3327
     31  C3D      -16.3130   45.2050    9.5410 C.3   650  NAD650      0.2158
     32  O3D      -16.2000   46.6350    9.3380 O.3   650  NAD650     -0.2175
     33  C2D      -15.1050   44.5860   10.3140 C.3   650  NAD650      0.2309
     34  O2D      -14.2750   45.5990   10.9310 O.3   650  NAD650     -0.2158
     35  C1D      -15.7240   43.6400   11.3340 C.3   650  NAD650      0.2263
     36  N1N      -15.2490   42.2390   11.2460 N.pl3 650  NAD650     -0.2787
     37  C2N      -15.9920   41.3390   10.4400 C.3   650  NAD650      0.1244
     38  C3N      -15.6030   40.0010   10.3260 C.2   650  NAD650      0.0544
     39  C7N      -16.3520   39.0690    9.3690 C.2   650  NAD650      0.2818
     40  O7N      -16.0950   37.8830    9.3700 O.2   650  NAD650     -0.2670
     41  N7N      -17.2910   39.5400    8.5250 N.am  650  NAD650     -0.0839
     42  C4N      -14.3520   39.5510   11.0070 C.2   650  NAD650      0.0033
     43  C5N      -13.5650   40.5060   11.7810 C.2   650  NAD650      0.0157
     44  C6N      -14.0150   41.8200   11.8890 C.2   650  NAD650      0.0633
@<TRIPOS>BOND
     1     3     1    2
     2     2     1    1
     3    11    10    1
     4     1    23    1
     5     1     4    1
     6     9     8    1
     7     8    10    1
     8     8     6    1
     9    10    12    1
    10    23    24    1
    11     4     5    1
    12    25    24    2
    13     5     6    1
    14     6     7    1
    15    24    26    1
    16    24    27    1
    17    12    13    1
    18    12     7    1
    19    14    13    1
    20    14    15    1
    21    13    22    1
    22    41    39   am
    23    15    16    2
    24    27    28    1
    25    22    16    1
    26    22    21    2
    27    32    31    1
    28    39    40    2
    29    39    38    1
    30    31    33    1
    31    31    29    1
    32    28    29    1
    33    16    17    1
    34    21    20    1
    35    33    34    1
    36    33    35    1
    37    38    37    1
    38    38    42    2
    39    29    30    1
    40    37    36    1
    41    17    18    1
    42    17    19    2
    43    20    19    1
    44    42    43    1
    45    36    35    1
    46    36    44    1
    47    30    35    1
    48    43    44    2
