@<TRIPOS>MOLECULE
1p1j_NAI_A_1.pdb
 44 48 0 0 0
SMALL
GASTEIGER

@<TRIPOS>ATOM
      1  PA       -20.5340   44.2130    5.5610 P.3   650  NAI650      0.2189
      2  O1A      -19.9550   45.3050    4.7820 O.3   650  NAI650     -0.4371
      3  O2A      -21.2280   43.2160    4.7620 O.2   650  NAI650     -0.5170
      4  O5B      -21.6200   44.6730    6.6300 O.3   650  NAI650     -0.3112
      5  C5B      -21.4670   45.8940    7.3910 C.3   650  NAI650      0.1813
      6  C4B      -22.7850   46.6310    7.3300 C.3   650  NAI650      0.1821
      7  O4B      -22.5880   47.8530    8.0620 O.3   650  NAI650     -0.3135
      8  C3B      -23.2400   47.0890    5.9080 C.3   650  NAI650      0.2184
      9  O3B      -24.5440   46.5660    5.5920 O.3   650  NAI650     -0.2174
     10  C2B      -23.1760   48.6260    6.0030 C.3   650  NAI650      0.2570
     11  O2B      -24.2160   49.2730    5.2210 O.3   650  NAI650     -0.2130
     12  C1B      -23.4160   48.8270    7.4870 C.3   650  NAI650      0.3186
     13  N9A      -22.9380   50.1140    7.9790 N.pl3 650  NAI650     -0.1439
     14  C8A      -21.7660   50.8040    7.6880 C.3   650  NAI650      0.3377
     15  N7A      -21.5650   51.9060    8.4590 N.2   650  NAI650     -0.2095
     16  C5A      -22.6740   51.8870    9.2940 C.2   650  NAI650      0.2526
     17  C6A      -23.0850   52.7580   10.3850 C.2   650  NAI650      0.4393
     18  N6A      -22.3840   53.8310   10.7590 N.pl3 650  NAI650      0.2180
     19  N1A      -24.2750   52.4300   11.0390 N.2   650  NAI650      0.0021
     20  C2A      -25.0250   51.3210   10.6330 C.3   650  NAI650      0.5254
     21  N3A      -24.7330   50.4790    9.6400 N.2   650  NAI650     -0.0055
     22  C4A      -23.5490   50.8030    9.0000 C.2   650  NAI650      0.3518
     23  O3       -19.4250   43.5570    6.4290 O.3   650  NAI650     -0.2703
     24  PN       -19.3930   42.2340    7.3100 P.3   650  NAI650      0.2189
     25  O1N      -18.7130   41.2550    6.4180 O.2   650  NAI650     -0.5170
     26  O2N      -20.7390   41.8580    7.7430 O.3   650  NAI650     -0.4371
     27  O5D      -18.4100   42.6120    8.4720 O.3   650  NAI650     -0.3112
     28  C5D      -18.9010   43.4740    9.5320 C.3   650  NAI650      0.1813
     29  C4D      -17.7190   44.0200   10.3100 C.3   650  NAI650      0.1799
     30  O4D      -17.1250   42.9500   11.1000 O.3   650  NAI650     -0.3327
     31  C3D      -16.6040   44.7000    9.4940 C.3   650  NAI650      0.2158
     32  O3D      -16.0940   45.8800   10.1410 O.3   650  NAI650     -0.2175
     33  C2D      -15.5490   43.5670    9.4810 C.3   650  NAI650      0.2309
     34  O2D      -14.2240   44.0720    9.2710 O.3   650  NAI650     -0.2158
     35  C1D      -15.7520   42.9780   10.8710 C.3   650  NAI650      0.2263
     36  N1N      -15.1540   41.6480   11.0740 N.pl3 650  NAI650     -0.2787
     37  C2N      -15.6280   40.5790   10.2960 C.3   650  NAI650      0.1244
     38  C3N      -15.0070   39.3290   10.3770 C.2   650  NAI650      0.0544
     39  C7N      -15.5800   38.1650    9.6140 C.2   650  NAI650      0.2818
     40  O7N      -15.0430   37.0580    9.6570 O.2   650  NAI650     -0.2670
     41  N7N      -16.7150   38.3240    8.9520 N.am  650  NAI650     -0.0839
     42  C4N      -13.8680   39.1390   11.3000 C.2   650  NAI650      0.0033
     43  C5N      -13.4130   40.2590   12.0900 C.2   650  NAI650      0.0157
     44  C6N      -14.0630   41.4710   11.9830 C.2   650  NAI650      0.0633
@<TRIPOS>BOND
     1     3     1    2
     2     2     1    1
     3    11    10    1
     4     1    23    1
     5     1     4    1
     6     9     8    1
     7     8    10    1
     8     8     6    1
     9    10    12    1
    10    25    24    2
    11    23    24    1
    12     4     5    1
    13    24    26    1
    14    24    27    1
    15     6     5    1
    16     6     7    1
    17    12    13    1
    18    12     7    1
    19    14    13    1
    20    14    15    1
    21    13    22    1
    22    15    16    2
    23    27    28    1
    24    41    39   am
    25    22    16    1
    26    22    21    2
    27    34    33    1
    28    16    17    1
    29    33    31    1
    30    33    35    1
    31    31    32    1
    32    31    29    1
    33    28    29    1
    34    39    40    2
    35    39    38    1
    36    21    20    1
    37    37    38    1
    38    37    36    1
    39    29    30    1
    40    38    42    2
    41    17    18    1
    42    17    19    2
    43    20    19    1
    44    35    36    1
    45    35    30    1
    46    36    44    1
    47    42    43    1
    48    44    43    2
