@<TRIPOS>MOLECULE
1p1k_NAI_A_1.pdb
 44 48 0 0 0
SMALL
GASTEIGER

@<TRIPOS>ATOM
      1  PA       -20.4620   44.4400    5.7160 P.3   650  NAI650      0.2189
      2  O1A      -19.7890   45.5120    4.9920 O.3   650  NAI650     -0.4371
      3  O2A      -21.1690   43.4860    4.8470 O.2   650  NAI650     -0.5170
      4  O5B      -21.5900   44.9540    6.6960 O.3   650  NAI650     -0.3112
      5  C5B      -21.4730   46.2190    7.3920 C.3   650  NAI650      0.1813
      6  C4B      -22.8220   46.8760    7.4020 C.3   650  NAI650      0.1821
      7  O4B      -22.6590   48.0640    8.2070 O.3   650  NAI650     -0.3135
      8  C3B      -23.2830   47.4040    6.0180 C.3   650  NAI650      0.2184
      9  O3B      -24.6210   46.9490    5.7240 O.3   650  NAI650     -0.2174
     10  C2B      -23.1270   48.9570    6.1550 C.3   650  NAI650      0.2570
     11  O2B      -24.1520   49.6740    5.3910 O.3   650  NAI650     -0.2130
     12  C1B      -23.3740   49.1150    7.6580 C.3   650  NAI650      0.3186
     13  N9A      -22.8180   50.3520    8.2260 N.pl3 650  NAI650     -0.1439
     14  C8A      -21.6110   51.0020    7.9690 C.3   650  NAI650      0.3377
     15  N7A      -21.4050   52.1190    8.7210 N.2   650  NAI650     -0.2095
     16  C5A      -22.5560   52.1430    9.5220 C.2   650  NAI650      0.2526
     17  C6A      -23.0220   53.0750   10.5510 C.2   650  NAI650      0.4393
     18  N6A      -22.3540   54.1700   10.9160 N.pl3 650  NAI650      0.2180
     19  N1A      -24.2300   52.7940   11.1420 N.2   650  NAI650      0.0021
     20  C2A      -24.9410   51.6380   10.7610 C.3   650  NAI650      0.5254
     21  N3A      -24.5990   50.7500    9.8330 N.2   650  NAI650     -0.0055
     22  C4A      -23.4180   51.0500    9.2390 C.2   650  NAI650      0.3518
     23  O3       -19.4090   43.7480    6.6540 O.3   650  NAI650     -0.2703
     24  PN       -19.3880   42.4590    7.6380 P.3   650  NAI650      0.2189
     25  O1N      -18.7610   41.3900    6.7800 O.2   650  NAI650     -0.5170
     26  O2N      -20.7410   42.1290    8.1530 O.3   650  NAI650     -0.4371
     27  O5D      -18.3210   42.9050    8.7530 O.3   650  NAI650     -0.3112
     28  C5D      -18.7280   43.8310    9.7790 C.3   650  NAI650      0.1813
     29  C4D      -17.5220   44.2060   10.6250 C.3   650  NAI650      0.1799
     30  O4D      -17.0170   43.0310   11.3260 O.3   650  NAI650     -0.3327
     31  C3D      -16.3780   44.9070    9.8960 C.3   650  NAI650      0.2158
     32  O3D      -15.8800   46.0880   10.5620 O.3   650  NAI650     -0.2175
     33  C2D      -15.3250   43.7730    9.8230 C.3   650  NAI650      0.2309
     34  O2D      -13.9900   44.3010    9.8360 O.3   650  NAI650     -0.2158
     35  C1D      -15.6340   42.9070   11.0480 C.3   650  NAI650      0.2263
     36  N1N      -15.2640   41.4660   10.8610 N.pl3 650  NAI650     -0.2787
     37  C2N      -16.0100   40.7290    9.8990 C.3   650  NAI650      0.1244
     38  C3N      -15.7200   39.3930    9.6440 C.2   650  NAI650      0.0544
     39  C7N      -16.4070   38.6930    8.4700 C.2   650  NAI650      0.2818
     40  O7N      -16.1430   37.5330    8.2430 O.2   650  NAI650     -0.2670
     41  N7N      -17.2420   39.3540    7.6360 N.am  650  NAI650     -0.0839
     42  C4N      -14.6410   38.7060   10.4340 C.2   650  NAI650      0.0033
     43  C5N      -13.8560   39.4650   11.3980 C.2   650  NAI650      0.0157
     44  C6N      -14.1540   40.8300   11.5870 C.2   650  NAI650      0.0633
@<TRIPOS>BOND
     1     3     1    2
     2     2     1    1
     3    11    10    1
     4     1    23    1
     5     1     4    1
     6     9     8    1
     7     8    10    1
     8     8     6    1
     9    10    12    1
    10    23    24    1
    11     4     5    1
    12    25    24    2
    13     5     6    1
    14     6     7    1
    15    41    39   am
    16    24    26    1
    17    24    27    1
    18    12     7    1
    19    12    13    1
    20    14    13    1
    21    14    15    1
    22    13    22    1
    23    40    39    2
    24    39    38    1
    25    15    16    2
    26    27    28    1
    27    22    16    1
    28    22    21    2
    29    16    17    1
    30    38    37    1
    31    38    42    2
    32    28    29    1
    33    33    34    1
    34    33    31    1
    35    33    35    1
    36    21    20    1
    37    31    32    1
    38    31    29    1
    39    37    36    1
    40    42    43    1
    41    17    18    1
    42    17    19    2
    43    29    30    1
    44    20    19    1
    45    36    35    1
    46    36    44    1
    47    35    30    1
    48    43    44    2
