@<TRIPOS>MOLECULE
1p1n_KAI_A_1.pdb
 15 15 0 0 0
SMALL
GASTEIGER

@<TRIPOS>ATOM
      1  N         13.6940    3.0170   16.1000 N.3   999  KAI999     -0.2080
      2  CD        14.6330    4.1480   15.7670 C.3   999  KAI999      0.0933
      3  CD1       17.0860    5.0280   14.4380 C.2   999  KAI999     -0.0091
      4  CD2       18.5830    3.5700   15.6900 C.3   999  KAI999      0.0264
      5  CA        14.4440    1.8130   16.2830 C.3   999  KAI999      0.1766
      6  CB        15.8080    1.9430   15.6100 C.3   999  KAI999      0.0434
      7  CB1       15.7940    1.7100   14.0950 C.3   999  KAI999      0.1164
      8  CG        15.9940    3.3470   15.7600 C.3   999  KAI999      0.0382
      9  CG1       15.8430    0.2610   13.6720 C.2   999  KAI999      0.3649
     10  CG2       17.2680    4.0640   15.2500 C.2   999  KAI999     -0.0428
     11  C         14.6040    1.4730   17.8000 C.2   999  KAI999      0.3803
     12  O         13.9600    2.2010   18.5850 O.co2 999  KAI999     -0.2441
     13  OD1       15.6720    0.0330   12.4540 O.co2 999  KAI999     -0.2457
     14  OD2       16.0610   -0.5940   14.5540 O.co2 999  KAI999     -0.2457
     15  OXT       15.3410    0.5050   18.0830 O.co2 999  KAI999     -0.2441
@<TRIPOS>BOND
     1    13     9   ar
     2     9     7    1
     3     9    14   ar
     4     7     6    1
     5     3    10    2
     6    10     4    1
     7    10     8    1
     8     6     8    1
     9     6     5    1
    10     8     2    1
    11     2     1    1
    12     1     5    1
    13     5    11    1
    14    11    15   ar
    15    11    12   ar
