@<TRIPOS>MOLECULE
1p1o_QUS_A_1.pdb
 13 13 0 0 0
SMALL
GASTEIGER

@<TRIPOS>ATOM
      1  C01       14.8140    1.2690   18.5500 C.2   301  QUS301      0.3838
      2  C02       14.6700    1.5780   17.0550 C.3   301  QUS301      0.2184
      3  C03       16.0570    2.0870   16.6370 C.3   301  QUS301      0.1793
      4  C04       16.5890    0.3950   14.8250 C.1   301  QUS301      0.3141
      5  C05       15.8780    1.6490   13.0980 C.1   301  QUS301      0.4071
      6  NP3       13.5190    2.5360   16.9410 N.3   301  QUS301     -0.1188
      7  N14       16.3790    1.6670   15.2710 N.am  301  QUS301     -0.0527
      8  N15       16.2850    0.4170   13.5050 N.2   301  QUS301     -0.2120
      9  O16       13.9960    1.7570   19.3480 O.co2 301  QUS301     -0.2440
     10  O17       15.7640    0.5270   18.8920 O.co2 301  QUS301     -0.2440
     11  O18       16.9670   -0.5020   15.5150 O.2   301  QUS301     -0.1893
     12  O19       15.5250    2.0420   12.0010 O.2   301  QUS301     -0.1667
     13  O20       15.9150    2.4860   14.1900 O.3   301  QUS301     -0.2752
@<TRIPOS>BOND
     1    12     5    2
     2     5     8    2
     3     5    13    1
     4     8     4    2
     5    13     7    1
     6     4     7   am
     7     4    11    2
     8     7     3    1
     9     3     2    1
    10     6     2    1
    11     2     1    1
    12     1    10   ar
    13     1     9   ar
