@<TRIPOS>MOLECULE
1p1q_AMQ_A_1.pdb
 13 13 0 0 0
SMALL
GASTEIGER

@<TRIPOS>ATOM
      1  N         75.2240   27.5820   42.6820 N.3   602  AMQ602     -0.1204
      2  CA        76.3020   26.5440   42.7360 C.3   602  AMQ602      0.1995
      3  C         76.5720   26.1450   44.2340 C.2   602  AMQ602      0.3822
      4  OT1       77.4450   25.2880   44.4500 O.co2 602  AMQ602     -0.2440
      5  OT2       75.8470   26.6640   45.1220 O.co2 602  AMQ602     -0.2440
      6  CB        77.5780   27.0780   42.0380 C.3   602  AMQ602      0.0718
      7  CG        77.3870   27.3430   40.5640 C.2   602  AMQ602      0.0985
      8  CD1       77.4400   26.3980   39.4920 C.1   602  AMQ602      0.1879
      9  CD2       76.8970   28.4260   39.9170 C.2   602  AMQ602      0.1611
     10  CE2       76.4920   29.8070   40.3360 C.3   602  AMQ602      0.0758
     11  OE1       77.8490   25.1700   39.7940 O.2   602  AMQ602     -0.2193
     12  NE1       77.0480   26.7720   38.3030 N.2   602  AMQ602     -0.0008
     13  OE2       76.6840   28.1360   38.5840 O.2   602  AMQ602     -0.3482
@<TRIPOS>BOND
     1    12    13    1
     2    12     8    2
     3    13     9    1
     4     8    11    2
     5     8     7    1
     6     9    10    1
     7     9     7    2
     8     7     6    1
     9     6     2    1
    10     1     2    1
    11     2     3    1
    12     3     4   ar
    13     3     5   ar
