@<TRIPOS>MOLECULE
1p1r_NAI_A_1.pdb
 44 48 0 0 0
SMALL
GASTEIGER

@<TRIPOS>ATOM
      1  PA        29.3960    2.1650    4.1920 P.3   377  NAI377      0.2189
      2  O1A       30.3860    1.8860    5.2830 O.3   377  NAI377     -0.4371
      3  O2A       29.3460    1.2600    3.0210 O.2   377  NAI377     -0.5170
      4  O5B       29.6090    3.6270    3.5670 O.3   377  NAI377     -0.3112
      5  C5B       30.1870    4.7160    4.3290 C.3   377  NAI377      0.1813
      6  C4B       31.1020    5.4910    3.4170 C.3   377  NAI377      0.1821
      7  O4B       31.6370    6.5940    4.1800 O.3   377  NAI377     -0.3135
      8  C3B       32.3160    4.6770    2.9000 C.3   377  NAI377      0.2184
      9  O3B       32.3980    4.7240    1.4750 O.3   377  NAI377     -0.2174
     10  C2B       33.5180    5.3690    3.5200 C.3   377  NAI377      0.2570
     11  O2B       34.6920    5.4200    2.6830 O.3   377  NAI377     -0.2130
     12  C1B       32.9670    6.7920    3.7480 C.3   377  NAI377      0.3186
     13  N9A       33.6860    7.5560    4.7570 N.pl3 377  NAI377     -0.1439
     14  C8A       34.2310    7.0990    5.9220 C.3   377  NAI377      0.3377
     15  N7A       34.8030    8.0770    6.6220 N.2   377  NAI377     -0.2095
     16  C5A       34.6150    9.2080    5.8680 C.2   377  NAI377      0.2526
     17  C6A       34.9890   10.5700    6.0720 C.2   377  NAI377      0.4393
     18  N6A       35.6410   11.0160    7.1360 N.pl3 377  NAI377      0.2180
     19  N1A       34.5940   11.4120    5.0800 N.2   377  NAI377      0.0021
     20  C2A       33.9060   11.0430    3.9670 C.3   377  NAI377      0.5254
     21  N3A       33.5350    9.7800    3.7320 N.2   377  NAI377     -0.0055
     22  C4A       33.9250    8.9040    4.6990 C.2   377  NAI377      0.3518
     23  O3        28.0020    2.2490    4.9620 O.3   377  NAI377     -0.2703
     24  PN        26.4760    2.1660    4.4470 P.3   377  NAI377      0.2189
     25  O1N       26.0020    0.7880    4.5790 O.3   377  NAI377     -0.4371
     26  O2N       26.2890    2.9740    3.2230 O.2   377  NAI377     -0.5170
     27  O5D       25.7630    2.9360    5.6830 O.3   377  NAI377     -0.3112
     28  C5D       26.1190    4.3110    5.8980 C.3   377  NAI377      0.1813
     29  C4D       25.6980    4.7720    7.2960 C.3   377  NAI377      0.1799
     30  O4D       24.2540    4.8440    7.3450 O.3   377  NAI377     -0.3324
     31  C3D       26.1710    3.8570    8.4300 C.3   377  NAI377      0.2158
     32  O3D       26.5480    4.5670    9.6000 O.3   377  NAI377     -0.2175
     33  C2D       24.8970    3.0200    8.7290 C.3   377  NAI377      0.2312
     34  O2D       24.8850    2.4510   10.0320 O.3   377  NAI377     -0.2158
     35  C1D       23.8440    4.1380    8.4940 C.3   377  NAI377      0.2299
     36  N1N       22.5430    3.5800    8.3190 N.pl3 377  NAI377     -0.2608
     37  C2N       21.4460    4.3700    8.7950 C.2   377  NAI377      0.0678
     38  C3N       20.1170    4.0120    8.5280 C.2   377  NAI377      0.0537
     39  C7N       18.9830    4.8700    9.0080 C.2   377  NAI377      0.2818
     40  O7N       17.8200    4.3820    8.9850 O.2   377  NAI377     -0.2670
     41  N7N       19.2510    6.1360    9.4130 N.am  377  NAI377     -0.0839
     42  C4N       19.7910    2.7380    7.7800 C.3   377  NAI377      0.0597
     43  C5N       20.9170    2.2130    6.9820 C.2   377  NAI377     -0.0051
     44  C6N       22.2220    2.5870    7.3060 C.2   377  NAI377      0.0630
@<TRIPOS>BOND
     1     9     8    1
     2    11    10    1
     3     8     6    1
     4     8    10    1
     5     3     1    2
     6    26    24    2
     7     6     7    1
     8     6     5    1
     9    10    12    1
    10     4     1    1
    11     4     5    1
    12    21    20    1
    13    21    22    2
    14    12     7    1
    15    12    13    1
    16    20    19    1
    17     1    23    1
    18     1     2    1
    19    24    25    1
    20    24    23    1
    21    24    27    1
    22    22    13    1
    23    22    16    1
    24    13    14    1
    25    19    17    2
    26    27    28    1
    27    16    17    1
    28    16    15    2
    29    28    29    1
    30    14    15    1
    31    17    18    1
    32    43    44    2
    33    43    42    1
    34    29    30    1
    35    29    31    1
    36    44    36    1
    37    30    35    1
    38    42    38    1
    39    36    35    1
    40    36    37    1
    41    31    33    1
    42    31    32    1
    43    35    33    1
    44    38    37    2
    45    38    39    1
    46    33    34    1
    47    40    39    2
    48    39    41   am
