@<TRIPOS>MOLECULE
1p1r_NMH_A_1.pdb
 10 9 0 0 0
SMALL
GASTEIGER

@<TRIPOS>ATOM
      1  C7        17.2020    6.3550   14.5400 C.3   378  NMH378      0.0000
      2  C6        18.4530    5.6140   14.0940 C.3   378  NMH378      0.0000
      3  C5        18.2060    4.7310   12.8630 C.3   378  NMH378      0.0001
      4  C4        19.3370    3.7410   12.6030 C.3   378  NMH378      0.0018
      5  C3        18.7590    2.5130   11.9160 C.3   378  NMH378      0.0217
      6  C2        19.7450    1.4170   11.5200 C.3   378  NMH378      0.0958
      7  C1        20.3700    0.7890   12.7450 C.3   378  NMH378      0.0234
      8  N         19.0360    0.3750   10.7910 N.am  378  NMH378     -0.1995
      9  C         19.4880   -0.2950    9.7370 C.2   378  NMH378      0.3201
     10  O         20.5510   -0.0540    9.1900 O.2   378  NMH378     -0.2633
@<TRIPOS>BOND
     1    10     9    2
     2     9     8   am
     3     8     6    1
     4     6     5    1
     5     6     7    1
     6     5     4    1
     7     4     3    1
     8     3     2    1
     9     2     1    1
