@<TRIPOS>MOLECULE
1p1u_AMQ_A_1.pdb
 13 13 0 0 0
SMALL
GASTEIGER

@<TRIPOS>ATOM
      1  N          8.5250  -10.1860   23.5820 N.3   302  AMQ302     -0.1204
      2  CA         8.9720  -11.6220   23.5460 C.3   302  AMQ302      0.1995
      3  C          9.2630  -12.0680   22.0700 C.2   302  AMQ302      0.3822
      4  OT1        9.5590  -13.2760   21.8780 O.co2 302  AMQ302     -0.2440
      5  OT2        9.2160  -11.1770   21.1790 O.co2 302  AMQ302     -0.2440
      6  CB         7.8930  -12.5210   24.1910 C.3   302  AMQ302      0.0718
      7  CG         7.6330  -12.2380   25.6520 C.2   302  AMQ302      0.0985
      8  CD1        8.2630  -12.8300   26.7870 C.1   302  AMQ302      0.1879
      9  CD2        6.7890  -11.3610   26.2550 C.2   302  AMQ302      0.1611
     10  CE2        5.7620  -10.3920   25.7610 C.3   302  AMQ302      0.0758
     11  OE1        9.2140  -13.7350   26.5450 O.2   302  AMQ302     -0.2193
     12  NE1        7.9090  -12.4210   27.9780 N.2   302  AMQ302     -0.0008
     13  OE2        6.9190  -11.4270   27.6310 O.2   302  AMQ302     -0.3482
@<TRIPOS>BOND
     1     5     3   ar
     2     4     3   ar
     3     3     2    1
     4     2     1    1
     5     2     6    1
     6     6     7    1
     7     7     9    2
     8     7     8    1
     9    10     9    1
    10     9    13    1
    11    11     8    2
    12     8    12    2
    13    13    12    1
