@<TRIPOS>MOLECULE
1p1w_AMQ_A_1.pdb
 13 13 0 0 0
SMALL
GASTEIGER

@<TRIPOS>ATOM
      1  N         10.3910   26.0650   19.4230 N.3   428  AMQ428     -0.1204
      2  CA         8.8940   26.0200   19.3310 C.3   428  AMQ428      0.1995
      3  C          8.4050   25.9750   17.8430 C.2   428  AMQ428      0.3822
      4  OT1        7.1650   25.9550   17.6440 O.co2 428  AMQ428     -0.2440
      5  OT2        9.2910   25.9210   16.9500 O.co2 428  AMQ428     -0.2440
      6  CB         8.2910   27.2360   20.0670 C.3   428  AMQ428      0.0718
      7  CG         8.6010   27.2920   21.5460 C.2   428  AMQ428      0.0985
      8  CD1        7.8970   26.6720   22.6230 C.1   428  AMQ428      0.1879
      9  CD2        9.5780   27.9470   22.2230 C.2   428  AMQ428      0.1611
     10  CE2       10.7330   28.8030   21.8130 C.3   428  AMQ428      0.0758
     11  OE1        6.8110   25.9630   22.3150 O.2   428  AMQ428     -0.2193
     12  NE1        8.3290   26.8690   23.8430 N.2   428  AMQ428     -0.0008
     13  OE2        9.4630   27.7280   23.5850 O.2   428  AMQ428     -0.3482
@<TRIPOS>BOND
     1     5     3   ar
     2     4     3   ar
     3     3     2    1
     4     2     1    1
     5     2     6    1
     6     6     7    1
     7     7     9    2
     8     7     8    1
     9    10     9    1
    10     9    13    1
    11    11     8    2
    12     8    12    2
    13    13    12    1
