@<TRIPOS>MOLECULE
1p29_PLP_A_1.pdb
 15 15 0 0 0
SMALL
GASTEIGER

@<TRIPOS>ATOM
      1  N1        24.7220   25.5480   30.3130 N.ar  999  PLP999     -0.2452
      2  C2        23.6130   24.8100   30.5350 C.ar  999  PLP999      0.0978
      3  C2A       22.7020   25.2190   31.6920 C.3   999  PLP999      0.0555
      4  C3        23.3760   23.6830   29.7740 C.ar  999  PLP999      0.2049
      5  O3        22.2240   22.9470   29.9720 O.3   999  PLP999     -0.2857
      6  C4        24.3030   23.2980   28.8030 C.ar  999  PLP999      0.0182
      7  C4A       24.1110   21.9670   28.0440 C.3   999  PLP999      0.0342
      8  C5        25.4490   24.0800   28.6120 C.ar  999  PLP999      0.0261
      9  C6        25.6300   25.1880   29.3740 C.ar  999  PLP999      0.0965
     10  C5A       26.4890   23.8180   27.4720 C.3   999  PLP999      0.1815
     11  O4P       26.0430   24.5040   26.2930 O.3   999  PLP999     -0.2653
     12  P         27.0500   24.7040   25.0300 P.3   999  PLP999      0.5329
     13  O1P       26.2580   25.4600   24.0300 O.2   999  PLP999     -0.2224
     14  O2P       28.1520   25.6720   25.6430 O.3   999  PLP999     -0.1145
     15  O3P       27.7030   23.4340   24.6390 O.3   999  PLP999     -0.1145
@<TRIPOS>BOND
     1    13    12    2
     2    15    12    1
     3    12    14    1
     4    12    11    1
     5    11    10    1
     6    10     8    1
     7     7     6    1
     8     8     6   ar
     9     8     9   ar
    10     6     4   ar
    11     9     1   ar
    12     4     5    1
    13     4     2   ar
    14     1     2   ar
    15     2     3    1
