@<TRIPOS>MOLECULE
1p29_GLC_A_1.pdb
 11 11 0 0 0
SMALL
GASTEIGER

@<TRIPOS>ATOM
      1  C1        64.8960   22.0270   30.8270 C.3   844  GLC844      0.1777
      2  C2        63.4210   22.2590   31.1730 C.3   844  GLC844      0.2141
      3  C3        63.3010   22.6510   32.6430 C.3   844  GLC844      0.2173
      4  C4        63.9620   21.5970   33.5460 C.3   844  GLC844      0.2142
      5  C5        65.4000   21.3190   33.0740 C.3   844  GLC844      0.1810
      6  C6        66.0780   20.1760   33.8070 C.3   844  GLC844      0.2141
      7  O2        62.8830   23.2910   30.3600 O.3   844  GLC844     -0.2176
      8  O3        61.9320   22.7990   32.9850 O.3   844  GLC844     -0.2175
      9  O4        63.9970   22.0870   34.9010 O.3   844  GLC844     -0.2176
     10  O5        65.4150   20.9960   31.6650 O.3   844  GLC844     -0.3481
     11  O6        65.2760   19.0060   33.7950 O.3   844  GLC844     -0.2176
@<TRIPOS>BOND
     1     7     2    1
     2     1     2    1
     3     1    10    1
     4     2     3    1
     5    10     5    1
     6     3     8    1
     7     3     4    1
     8     5     4    1
     9     5     6    1
    10     4     9    1
    11    11     6    1
