@<TRIPOS>MOLECULE
1p2a_5BN_A_1.pdb
 23 26 0 0 0
SMALL
GASTEIGER

@<TRIPOS>ATOM
      1  N22       14.2480   -4.1650    8.4140 N.3   301  5BN301     -0.1294
      2  C21       14.5350   -5.2790    7.5030 C.3   301  5BN301      0.1326
      3  C20       14.2350   -6.6630    8.1460 C.3   301  5BN301      0.1326
      4  N19       14.6540   -6.8410    9.5790 N.pl3 301  5BN301     -0.2359
      5  C7        14.0580   -7.7190   10.5730 C.ar  301  5BN301      0.0676
      6  C8        12.8170   -8.3510   10.2070 C.ar  301  5BN301      0.0181
      7  C9        12.0310   -9.2810   11.0660 C.ar  301  5BN301      0.0272
      8  C14       10.7880   -9.8260   10.5560 C.2   301  5BN301      0.0642
      9  C15       10.1780   -9.5910    9.2850 C.3   301  5BN301      0.0734
     10  C16        8.9770  -10.3170    9.2160 C.2   301  5BN301      0.0008
     11  C17        8.8440  -10.9860   10.4120 C.2   301  5BN301      0.0943
     12  N18        9.9430  -10.6700   11.1860 N.2   301  5BN301     -0.2481
     13  C10       12.6380   -9.5240   12.3740 C.ar  301  5BN301      0.0981
     14  C11       12.2270  -10.3760   13.5550 C.1   301  5BN301      0.2044
     15  O13       11.2490  -11.0870   13.6800 O.2   301  5BN301     -0.2093
     16  N12       13.2200  -10.1960   14.5470 N.2   301  5BN301     -0.3370
     17  C6        14.1860   -9.3060   14.0450 C.2   301  5BN301      0.1272
     18  C1        15.3550   -8.7910   14.6060 C.3   301  5BN301      0.0883
     19  C2        16.1590   -7.8850   13.8370 C.2   301  5BN301      0.0110
     20  C3        15.8260   -7.4800   12.5230 C.2   301  5BN301      0.1376
     21  F         16.6540   -6.6250   11.8920 F     301  5BN301     -0.2045
     22  C4        14.6070   -7.9950   11.9020 C.ar  301  5BN301      0.0449
     23  C5        13.8310   -8.9020   12.7130 C.ar  301  5BN301      0.0420
@<TRIPOS>BOND
     1     2     3    1
     2     2     1    1
     3     3     4    1
     4    10     9    1
     5    10    11    2
     6     9     8    1
     7     4     5    1
     8     6     5   ar
     9     6     7   ar
    10    11    12    1
    11     8     7    1
    12     8    12    2
    13     5    22   ar
    14     7    13   ar
    15    21    20    1
    16    22    20    1
    17    22    23   ar
    18    13    23   ar
    19    13    14    1
    20    20    19    2
    21    23    17    1
    22    14    15    2
    23    14    16    2
    24    19    18    1
    25    17    16    2
    26    17    18    1
