@<TRIPOS>MOLECULE
1p2b_GLC_A_1.pdb
 11 11 0 0 0
SMALL
GASTEIGER

@<TRIPOS>ATOM
      1  C1        64.7520   21.9350   30.8080 C.3   844  GLC844      0.1777
      2  C2        63.3150   22.3340   31.1650 C.3   844  GLC844      0.2141
      3  C3        63.2570   22.7280   32.6430 C.3   844  GLC844      0.2173
      4  C4        63.7870   21.5990   33.5300 C.3   844  GLC844      0.2142
      5  C5        65.1800   21.1840   33.0580 C.3   844  GLC844      0.1810
      6  C6        65.7100   19.9780   33.8090 C.3   844  GLC844      0.2141
      7  O2        62.9100   23.4450   30.3700 O.3   844  GLC844     -0.2176
      8  O3        61.9120   23.0410   33.0030 O.3   844  GLC844     -0.2175
      9  O4        63.8820   22.0630   34.8950 O.3   844  GLC844     -0.2176
     10  O5        65.1440   20.8420   31.6480 O.3   844  GLC844     -0.3481
     11  O6        66.5940   19.2250   32.9890 O.3   844  GLC844     -0.2176
@<TRIPOS>BOND
     1     7     2    1
     2     1     2    1
     3     1    10    1
     4     2     3    1
     5    10     5    1
     6     3     8    1
     7     3     4    1
     8    11     6    1
     9     5     4    1
    10     5     6    1
    11     4     9    1
