@<TRIPOS>MOLECULE
1p2b_PLP_A_1.pdb
 15 15 0 0 0
SMALL
GASTEIGER

@<TRIPOS>ATOM
      1  N1        24.7430   25.5900   30.3030 N.ar  999  PLP999     -0.2452
      2  C2        23.6280   24.8600   30.5320 C.ar  999  PLP999      0.0978
      3  C2A       22.7000   25.3030   31.6650 C.3   999  PLP999      0.0555
      4  C3        23.3940   23.7190   29.7830 C.ar  999  PLP999      0.2049
      5  O3        22.2770   22.9560   30.0150 O.3   999  PLP999     -0.2857
      6  C4        24.3060   23.3260   28.8150 C.ar  999  PLP999      0.0182
      7  C4A       24.1240   21.9580   28.0560 C.3   999  PLP999      0.0342
      8  C5        25.4400   24.1020   28.6120 C.ar  999  PLP999      0.0261
      9  C6        25.6340   25.2240   29.3650 C.ar  999  PLP999      0.0965
     10  C5A       26.5040   23.7840   27.4780 C.3   999  PLP999      0.1815
     11  O4P       26.0920   24.4540   26.2960 O.3   999  PLP999     -0.2653
     12  P         27.0690   24.7570   25.0460 P.3   999  PLP999      0.5329
     13  O1P       26.2330   25.4680   24.0500 O.2   999  PLP999     -0.2224
     14  O2P       28.1230   25.7360   25.6850 O.3   999  PLP999     -0.1145
     15  O3P       27.7900   23.5190   24.6600 O.3   999  PLP999     -0.1145
@<TRIPOS>BOND
     1    13    12    2
     2    15    12    1
     3    12    14    1
     4    12    11    1
     5    11    10    1
     6    10     8    1
     7     7     6    1
     8     8     6   ar
     9     8     9   ar
    10     6     4   ar
    11     9     1   ar
    12     4     5    1
    13     4     2   ar
    14     1     2   ar
    15     2     3    1
