@<TRIPOS>MOLECULE
1p2d_GLC_A_1.pdb
 11 11 0 0 0
SMALL
GASTEIGER

@<TRIPOS>ATOM
      1  C1        63.8430   22.3570   36.1010 C.3   843  GLC843      0.1777
      2  C2        63.6970   23.2970   37.3850 C.3   843  GLC843      0.2141
      3  C3        64.3980   22.5400   38.5300 C.3   843  GLC843      0.2173
      4  C4        63.7030   21.2070   38.7730 C.3   843  GLC843      0.2142
      5  C5        63.6600   20.3490   37.5050 C.3   843  GLC843      0.1810
      6  C6        62.6350   19.1740   37.6850 C.3   843  GLC843      0.2141
      7  O2        64.2980   24.5700   37.1420 O.3   843  GLC843     -0.2176
      8  O3        64.3770   23.3030   39.7330 O.3   843  GLC843     -0.2175
      9  O4        64.4780   20.5270   39.7940 O.3   843  GLC843     -0.2176
     10  O5        63.2310   21.1000   36.3460 O.3   843  GLC843     -0.3481
     11  O6        62.6580   18.4350   36.4790 O.3   843  GLC843     -0.2176
@<TRIPOS>BOND
     1     1    10    1
     2     1     2    1
     3    10     5    1
     4    11     6    1
     5     7     2    1
     6     2     3    1
     7     5     6    1
     8     5     4    1
     9     3     4    1
    10     3     8    1
    11     4     9    1
