@<TRIPOS>MOLECULE
1p2d_PLP_A_1.pdb
 15 15 0 0 0
SMALL
GASTEIGER

@<TRIPOS>ATOM
      1  N1        24.7760   25.5450   30.2140 N.ar  999  PLP999     -0.2452
      2  C2        23.6910   24.7680   30.4840 C.ar  999  PLP999      0.0978
      3  C2A       22.7060   25.2240   31.5650 C.3   999  PLP999      0.0555
      4  C3        23.4750   23.6050   29.7690 C.ar  999  PLP999      0.2049
      5  O3        22.3650   22.8420   30.0430 O.3   999  PLP999     -0.2857
      6  C4        24.3670   23.2240   28.7670 C.ar  999  PLP999      0.0182
      7  C4A       24.0540   21.9370   27.8870 C.3   999  PLP999      0.0342
      8  C5        25.4860   24.0270   28.5300 C.ar  999  PLP999      0.0261
      9  C6        25.6680   25.1760   29.2500 C.ar  999  PLP999      0.0965
     10  C5A       26.5080   23.7240   27.4040 C.3   999  PLP999      0.1815
     11  O4P       26.0070   24.3880   26.2450 O.3   999  PLP999     -0.2653
     12  P         26.9870   24.6440   24.9740 P.3   999  PLP999      0.5329
     13  O1P       26.1480   25.4140   24.0340 O.2   999  PLP999     -0.2224
     14  O2P       28.1250   25.5650   25.5600 O.3   999  PLP999     -0.1145
     15  O3P       27.6190   23.3670   24.5270 O.3   999  PLP999     -0.1145
@<TRIPOS>BOND
     1    13    12    2
     2    15    12    1
     3    12    14    1
     4    12    11    1
     5    11    10    1
     6    10     8    1
     7     7     6    1
     8     8     6   ar
     9     8     9   ar
    10     6     4   ar
    11     9     1   ar
    12     4     5    1
    13     4     2   ar
    14     1     2   ar
    15     2     3    1
