@<TRIPOS>MOLECULE
1p2e_HEM_A_1.pdb
 43 50 0 0 0
SMALL
GASTEIGER

@<TRIPOS>ATOM
      1 FE         -1.8800   23.9580   35.2400 Fe    801  HEM801      0.0000
      2  CHA        0.0590   21.2290   34.5420 C.2   801  HEM801      0.0000
      3  CHB        0.1720   24.8100   37.7890 C.2   801  HEM801      0.0000
      4  CHC       -3.6040   26.9300   35.6630 C.2   801  HEM801      0.0000
      5  CHD       -4.3520   22.7350   33.3540 C.2   801  HEM801      0.0000
      6  NA        -0.2610   23.1400   36.0280 N.2   801  HEM801      0.0000
      7  C1A        0.4910   22.0690   35.5530 C.2   801  HEM801      0.0000
      8  C2A        1.7160   21.9340   36.3100 C.2   801  HEM801      0.0000
      9  C3A        1.6900   22.8920   37.2430 C.2   801  HEM801      0.0000
     10  C4A        0.4980   23.6940   37.0500 C.2   801  HEM801      0.0000
     11  CMA        2.7640   23.2760   38.3150 C.3   801  HEM801      0.0000
     12  CAA        2.7970   20.8590   36.1220 C.2   801  HEM801      0.0000
     13  CBA        2.9010   19.7740   37.1710 C.2   801  HEM801      0.0000
     14  CGA        3.7400   18.5450   37.0090 C.2   801  HEM801      0.0000
     15  O1A        3.6780   17.6210   37.8620 O.co2 801  HEM801      0.0000
     16  O2A        4.4850   18.3970   36.0150 O.co2 801  HEM801      0.0000
     17  NB        -1.7540   25.5390   36.4980 N.ar  801  HEM801      0.0000
     18  C1B       -0.7540   25.7550   37.4160 C.ar  801  HEM801      0.0000
     19  C2B       -0.9400   27.1030   38.0010 C.ar  801  HEM801      0.0000
     20  C3B       -1.9700   27.6590   37.3980 C.ar  801  HEM801      0.0000
     21  C4B       -2.5300   26.6880   36.4720 C.ar  801  HEM801      0.0000
     22  CMB       -0.0160   27.6280   39.0950 C.3   801  HEM801      0.0000
     23  CAB       -2.4740   29.1220   37.3810 C.2   801  HEM801      0.0000
     24  CBB       -1.6470   30.1670   37.4310 C.2   801  HEM801      0.0000
     25  NC        -3.5710   24.7000   34.5670 N.2   801  HEM801      0.0000
     26  C1C       -4.1320   25.9500   34.8120 C.2   801  HEM801      0.0000
     27  C2C       -5.3500   26.1360   34.0660 C.2   801  HEM801      0.0000
     28  C3C       -5.5180   25.0050   33.3730 C.2   801  HEM801      0.0000
     29  C4C       -4.4710   24.0690   33.7490 C.2   801  HEM801      0.0000
     30  CMC       -6.1640   27.4400   34.0520 C.3   801  HEM801      0.0000
     31  CAC       -6.5250   24.6670   32.2360 C.2   801  HEM801      0.0000
     32  CBC       -6.9780   25.6250   31.4110 C.2   801  HEM801      0.0000
     33  ND        -2.1280   22.2530   34.1400 N.ar  801  HEM801      0.0000
     34  C1D       -3.2310   21.9380   33.4040 C.ar  801  HEM801      0.0000
     35  C2D       -2.9730   20.7310   32.6660 C.ar  801  HEM801      0.0000
     36  C3D       -1.7670   20.2890   33.0490 C.ar  801  HEM801      0.0000
     37  C4D       -1.1960   21.2610   33.9560 C.ar  801  HEM801      0.0000
     38  CMD       -4.0240   20.0720   31.7410 C.3   801  HEM801      0.0000
     39  CAD       -0.9180   19.0810   32.5570 C.3   801  HEM801      0.0000
     40  CBD        0.1120   19.6440   31.5730 C.3   801  HEM801      0.0000
     41  CGD       -0.2630   20.6980   30.5320 C.2   801  HEM801      0.0000
     42  O1D        0.5210   21.7050   30.4040 O.co2 801  HEM801      0.0000
     43  O2D       -1.2350   20.4920   29.7490 O.co2 801  HEM801      0.0000
@<TRIPOS>BOND
     1    43    41   ar
     2    42    41   ar
     3    41    40    1
     4    32    31    2
     5    40    39    1
     6    38    35    1
     7    31    28    1
     8    39    36    1
     9    35    36   ar
    10    35    34   ar
    11    36    37   ar
    12     5    34    2
    13     5    29    1
    14    28    29    1
    15    28    27    2
    16    34    33   ar
    17    29    25    2
    18    37    33   ar
    19    37     2    2
    20    30    27    1
    21    27    26    1
    22    33     1    1
    23     2     7    1
    24    25    26    1
    25    25     1    1
    26    26     4    2
    27     1     6    1
    28     1    17    1
    29     7     6    2
    30     7     8    1
    31     4    21    1
    32    16    14   ar
    33     6    10    1
    34    12     8    1
    35    12    13    2
    36     8     9    2
    37    21    17   ar
    38    21    20   ar
    39    17    18   ar
    40    14    13    1
    41    14    15   ar
    42    10     9    1
    43    10     3    2
    44     9    11    1
    45    23    20    1
    46    23    24    2
    47    20    19   ar
    48    18     3    1
    49    18    19   ar
    50    19    22    1
