@<TRIPOS>MOLECULE
1p2g_PLP_A_1.pdb
 15 15 0 0 0
SMALL
GASTEIGER

@<TRIPOS>ATOM
      1  N1        24.8000   25.4020   30.4100 N.ar  999  PLP999     -0.2452
      2  C2        23.6800   24.6770   30.6270 C.ar  999  PLP999      0.0978
      3  C2A       22.7210   25.1630   31.6900 C.3   999  PLP999      0.0555
      4  C3        23.4260   23.5510   29.8690 C.ar  999  PLP999      0.2049
      5  O3        22.2200   22.8960   29.9900 O.3   999  PLP999     -0.2857
      6  C4        24.3340   23.1620   28.8880 C.ar  999  PLP999      0.0182
      7  C4A       24.0300   21.9090   27.9800 C.3   999  PLP999      0.0342
      8  C5        25.4890   23.9390   28.7000 C.ar  999  PLP999      0.0261
      9  C6        25.6950   25.0400   29.4680 C.ar  999  PLP999      0.0965
     10  C5A       26.5450   23.6530   27.5820 C.3   999  PLP999      0.1815
     11  O4P       26.1880   24.4170   26.4510 O.3   999  PLP999     -0.2653
     12  P         27.1200   24.6200   25.1820 P.3   999  PLP999      0.5329
     13  O1P       26.3560   25.4500   24.2360 O.2   999  PLP999     -0.2224
     14  O2P       28.2650   25.4870   25.8790 O.3   999  PLP999     -0.1145
     15  O3P       27.7350   23.3610   24.7050 O.3   999  PLP999     -0.1145
@<TRIPOS>BOND
     1    13    12    2
     2    15    12    1
     3    12    14    1
     4    12    11    1
     5    11    10    1
     6    10     8    1
     7     7     6    1
     8     8     6   ar
     9     8     9   ar
    10     6     4   ar
    11     9     1   ar
    12     4     5    1
    13     4     2   ar
    14     1     2   ar
    15     2     3    1
