@<TRIPOS>MOLECULE
1p2g_GLC_A_1.pdb
 11 11 0 0 0
SMALL
GASTEIGER

@<TRIPOS>ATOM
      1  C1        66.2690   22.9580   31.9290 C.3   844  GLC844      0.1777
      2  C2        66.2610   24.0320   33.0170 C.3   844  GLC844      0.2141
      3  C3        65.8690   23.4500   34.3640 C.3   844  GLC844      0.2173
      4  C4        64.5780   22.6220   34.2680 C.3   844  GLC844      0.2142
      5  C5        64.6510   21.6020   33.1300 C.3   844  GLC844      0.1810
      6  C6        63.2700   21.0420   32.9140 C.3   844  GLC844      0.2141
      7  O2        67.5730   24.5720   33.1340 O.3   844  GLC844     -0.2176
      8  O3        65.6740   24.5230   35.2770 O.3   844  GLC844     -0.2175
      9  O4        64.3570   21.9230   35.5130 O.3   844  GLC844     -0.2176
     10  O5        65.0250   22.2540   31.8860 O.3   844  GLC844     -0.3481
     11  O6        62.3540   22.1140   32.7120 O.3   844  GLC844     -0.2176
@<TRIPOS>BOND
     1    10     1    1
     2    10     5    1
     3     1     2    1
     4    11     6    1
     5     6     5    1
     6     2     7    1
     7     2     3    1
     8     5     4    1
     9     4     3    1
    10     4     9    1
    11     3     8    1
