@<TRIPOS>MOLECULE
1p2h_HEM_A_1.pdb
 43 50 0 0 0
SMALL
GASTEIGER

@<TRIPOS>ATOM
      1 FE          1.7360  -23.8270   35.1120 Fe    801  HEM801      0.0000
      2  CHA       -0.2510  -21.2490   34.1250 C.2   801  HEM801      0.0000
      3  CHB       -0.3450  -24.5950   37.7140 C.2   801  HEM801      0.0000
      4  CHC        3.3790  -26.7080   35.5260 C.2   801  HEM801      0.0000
      5  CHD        4.3180  -22.5640   33.3090 C.2   801  HEM801      0.0000
      6  NA         0.0480  -23.0770   35.7870 N.2   801  HEM801      0.0000
      7  C1A       -0.6760  -22.0260   35.2010 C.2   801  HEM801      0.0000
      8  C2A       -1.8750  -21.8680   35.9510 C.2   801  HEM801      0.0000
      9  C3A       -1.8920  -22.7410   36.9500 C.2   801  HEM801      0.0000
     10  C4A       -0.6940  -23.5290   36.8560 C.2   801  HEM801      0.0000
     11  CMA       -3.0220  -22.9800   37.9880 C.3   801  HEM801      0.0000
     12  CAA       -2.9700  -20.7790   35.6530 C.3   801  HEM801      0.0000
     13  CBA       -2.7800  -19.5850   36.5980 C.3   801  HEM801      0.0000
     14  CGA       -3.8590  -18.5340   36.7050 C.2   801  HEM801      0.0000
     15  O1A       -3.7960  -17.7280   37.6770 O.co2 801  HEM801      0.0000
     16  O2A       -4.7250  -18.4650   35.8040 O.co2 801  HEM801      0.0000
     17  NB         1.6310  -25.3400   36.4820 N.ar  801  HEM801      0.0000
     18  C1B        0.5690  -25.5660   37.3390 C.ar  801  HEM801      0.0000
     19  C2B        0.6050  -26.9590   37.7270 C.ar  801  HEM801      0.0000
     20  C3B        1.6210  -27.5320   37.1080 C.ar  801  HEM801      0.0000
     21  C4B        2.2770  -26.5290   36.3220 C.ar  801  HEM801      0.0000
     22  CMB       -0.4090  -27.5670   38.7260 C.3   801  HEM801      0.0000
     23  CAB        2.1420  -29.0050   37.0860 C.2   801  HEM801      0.0000
     24  CBB        1.3120  -30.0250   37.1410 C.2   801  HEM801      0.0000
     25  NC         3.5660  -24.4590   34.6330 N.2   801  HEM801      0.0000
     26  C1C        3.9290  -25.7910   34.6730 C.2   801  HEM801      0.0000
     27  C2C        4.9340  -26.0860   33.6730 C.2   801  HEM801      0.0000
     28  C3C        5.1930  -24.9470   33.0290 C.2   801  HEM801      0.0000
     29  C4C        4.3530  -23.9080   33.6350 C.2   801  HEM801      0.0000
     30  CMC        5.4820  -27.5140   33.4510 C.3   801  HEM801      0.0000
     31  CAC        6.1410  -24.6850   31.8430 C.2   801  HEM801      0.0000
     32  CBC        6.8850  -25.5320   31.1440 C.2   801  HEM801      0.0000
     33  ND         1.9870  -22.1670   33.9430 N.ar  801  HEM801      0.0000
     34  C1D        3.1630  -21.8310   33.2820 C.ar  801  HEM801      0.0000
     35  C2D        2.9550  -20.5880   32.5660 C.ar  801  HEM801      0.0000
     36  C3D        1.6990  -20.2210   32.7740 C.ar  801  HEM801      0.0000
     37  C4D        1.0550  -21.1980   33.6590 C.ar  801  HEM801      0.0000
     38  CMD        4.0970  -19.9230   31.7510 C.3   801  HEM801      0.0000
     39  CAD        0.9510  -18.9740   32.2450 C.3   801  HEM801      0.0000
     40  CBD       -0.0760  -19.4280   31.2390 C.3   801  HEM801      0.0000
     41  CGD        0.2730  -20.4970   30.1990 C.2   801  HEM801      0.0000
     42  O1D       -0.5290  -21.5010   30.1500 O.co2 801  HEM801      0.0000
     43  O2D        1.2520  -20.3740   29.4120 O.co2 801  HEM801      0.0000
@<TRIPOS>BOND
     1    43    41   ar
     2    42    41   ar
     3    41    40    1
     4    32    31    2
     5    40    39    1
     6    38    35    1
     7    31    28    1
     8    39    36    1
     9    35    36   ar
    10    35    34   ar
    11    36    37   ar
    12    28    29    1
    13    28    27    2
    14    34     5    2
    15    34    33   ar
    16     5    29    1
    17    30    27    1
    18    29    25    2
    19    37    33   ar
    20    37     2    2
    21    27    26    1
    22    33     1    1
    23     2     7    1
    24    25    26    1
    25    25     1    1
    26    26     4    2
    27     1     6    1
    28     1    17    1
    29     7     6    2
    30     7     8    1
    31     4    21    1
    32    12     8    1
    33    12    13    1
    34     6    10    1
    35    16    14   ar
    36     8     9    2
    37    21    17   ar
    38    21    20   ar
    39    17    18   ar
    40    13    14    1
    41    14    15   ar
    42    10     9    1
    43    10     3    2
    44     9    11    1
    45    23    20    1
    46    23    24    2
    47    20    19   ar
    48    18     3    1
    49    18    19   ar
    50    19    22    1
