@<TRIPOS>MOLECULE
1p2s_GNP_A_1.pdb
 32 34 0 0 0
SMALL
GASTEIGER

@<TRIPOS>ATOM
      1  PG         4.9310   32.1840   21.9280 P.3   167  GNP167      0.4884
      2  O1G        4.6260   32.5180   23.3120 O.3   167  GNP167     -0.1240
      3  O2G        4.0610   32.8780   21.0500 O.2   167  GNP167     -0.2331
      4  O3G        4.4480   30.7470   21.7130 O.3   167  GNP167     -0.1240
      5  N3B        6.5150   32.2670   21.5880 N.3   167  GNP167     -0.0163
      6  PB         7.1720   31.9500   20.0930 P.3   167  GNP167      0.4669
      7  O1B        7.3990   30.5190   19.8410 O.3   167  GNP167     -0.1253
      8  O2B        6.5630   32.5970   18.9540 O.2   167  GNP167     -0.2351
      9  O3A        8.6000   32.6200   20.1740 O.3   167  GNP167     -0.2360
     10  PA         9.1040   34.0760   19.6430 P.3   167  GNP167      0.2220
     11  O1A        9.1500   34.1050   18.1530 O.2   167  GNP167     -0.5170
     12  O2A        8.4070   35.1810   20.3390 O.3   167  GNP167     -0.4370
     13  O5'       10.6240   33.9630   20.1240 O.3   167  GNP167     -0.3111
     14  C5'       10.9240   33.9040   21.5510 C.3   167  GNP167      0.1813
     15  C4'       12.3500   34.4120   21.8270 C.3   167  GNP167      0.1799
     16  O4'       13.2970   33.5820   21.0960 O.3   167  GNP167     -0.3326
     17  C3'       12.5810   35.8640   21.3440 C.3   167  GNP167      0.2158
     18  O3'       13.3690   36.6590   22.2950 O.3   167  GNP167     -0.2175
     19  C2'       13.2420   35.6500   19.9880 C.3   167  GNP167      0.2310
     20  O2'       14.1370   36.6770   19.5930 O.3   167  GNP167     -0.2158
     21  C1'       14.0770   34.3880   20.2180 C.3   167  GNP167      0.2293
     22  N9        14.3130   33.6570   18.9480 N.pl3 167  GNP167     -0.2354
     23  C8        13.4020   33.2020   18.0090 C.3   167  GNP167      0.2246
     24  N7        13.9210   32.5970   16.9960 N.2   167  GNP167     -0.2322
     25  C5        15.2990   32.6310   17.2500 C.2   167  GNP167      0.2182
     26  C6        16.4370   32.1160   16.4820 C.1   167  GNP167      0.2372
     27  O6        16.4250   31.5170   15.4120 O.2   167  GNP167     -0.2069
     28  N1        17.6690   32.3700   17.1080 N.2   167  GNP167     -0.2485
     29  C2        17.8310   33.0450   18.3340 C.1   167  GNP167      0.2531
     30  N2        19.0900   33.2130   18.8100 N.pl3 167  GNP167     -0.0226
     31  N3        16.7640   33.5250   19.0460 N.2   167  GNP167     -0.3074
     32  C4        15.5430   33.2910   18.4540 C.2   167  GNP167      0.2300
@<TRIPOS>BOND
     1    27    26    2
     2    26    28    2
     3    26    25    1
     4    24    25    2
     5    24    23    1
     6    28    29    2
     7    25    32    1
     8    23    22    1
     9    11    10    2
    10    29    30    1
    11    29    31    2
    12    32    22    1
    13    32    31    2
    14    22    21    1
    15     8     6    2
    16    20    19    1
    17    10    13    1
    18    10     9    1
    19    10    12    1
    20     7     6    1
    21    19    21    1
    22    19    17    1
    23     6     9    1
    24     6     5    1
    25    13    14    1
    26    21    16    1
    27     3     1    2
    28    16    15    1
    29    17    15    1
    30    17    18    1
    31    14    15    1
    32     5     1    1
    33     4     1    1
    34     1     2    1
