@<TRIPOS>MOLECULE
1p2t_GNP_A_1.pdb
 32 34 0 0 0
SMALL
GASTEIGER

@<TRIPOS>ATOM
      1  PG         4.9870   32.0730   21.9530 P.3   167  GNP167      0.4884
      2  O1G        4.7350   32.4320   23.3530 O.3   167  GNP167     -0.1240
      3  O2G        4.0480   32.7390   21.1210 O.2   167  GNP167     -0.2331
      4  O3G        4.5400   30.6270   21.7470 O.3   167  GNP167     -0.1240
      5  N3B        6.5640   32.2110   21.5610 N.3   167  GNP167     -0.0163
      6  PB         7.1970   31.8910   20.0730 P.3   167  GNP167      0.4669
      7  O1B        7.3620   30.4470   19.8140 O.3   167  GNP167     -0.1253
      8  O2B        6.6230   32.5860   18.9620 O.2   167  GNP167     -0.2351
      9  O3A        8.6580   32.5080   20.1540 O.3   167  GNP167     -0.2360
     10  PA         9.1610   33.9840   19.6690 P.3   167  GNP167      0.2220
     11  O1A        9.1550   34.0610   18.1740 O.2   167  GNP167     -0.5170
     12  O2A        8.4610   35.0540   20.4220 O.3   167  GNP167     -0.4370
     13  O5'       10.6900   33.8730   20.1040 O.3   167  GNP167     -0.3111
     14  C5'       11.0210   33.7770   21.5220 C.3   167  GNP167      0.1813
     15  C4'       12.4570   34.2760   21.7920 C.3   167  GNP167      0.1799
     16  O4'       13.3780   33.4710   21.0250 O.3   167  GNP167     -0.3326
     17  C3'       12.7010   35.7390   21.3520 C.3   167  GNP167      0.2158
     18  O3'       13.5640   36.4490   22.2820 O.3   167  GNP167     -0.2175
     19  C2'       13.2990   35.5650   19.9630 C.3   167  GNP167      0.2310
     20  O2'       14.1670   36.6250   19.5370 O.3   167  GNP167     -0.2158
     21  C1'       14.1500   34.3070   20.1560 C.3   167  GNP167      0.2293
     22  N9        14.3740   33.5790   18.8940 N.pl3 167  GNP167     -0.2354
     23  C8        13.4430   33.1150   17.9670 C.3   167  GNP167      0.2246
     24  N7        13.9450   32.5060   16.9510 N.2   167  GNP167     -0.2322
     25  C5        15.3370   32.5480   17.1900 C.2   167  GNP167      0.2182
     26  C6        16.4630   32.0330   16.4150 C.1   167  GNP167      0.2372
     27  O6        16.4470   31.4260   15.3400 O.2   167  GNP167     -0.2069
     28  N1        17.7010   32.2960   17.0280 N.2   167  GNP167     -0.2485
     29  C2        17.8820   32.9700   18.2380 C.1   167  GNP167      0.2531
     30  N2        19.1440   33.1390   18.6850 N.pl3 167  GNP167     -0.0226
     31  N3        16.8350   33.4510   18.9610 N.2   167  GNP167     -0.3074
     32  C4        15.6020   33.2120   18.3870 C.2   167  GNP167      0.2300
@<TRIPOS>BOND
     1    27    26    2
     2    26    28    2
     3    26    25    1
     4    24    25    2
     5    24    23    1
     6    28    29    2
     7    25    32    1
     8    23    22    1
     9    11    10    2
    10    29    30    1
    11    29    31    2
    12    32    22    1
    13    32    31    2
    14    22    21    1
    15     8     6    2
    16    20    19    1
    17    10    13    1
    18    10     9    1
    19    10    12    1
    20     7     6    1
    21    19    21    1
    22    19    17    1
    23     6     9    1
    24     6     5    1
    25    13    14    1
    26    21    16    1
    27    16    15    1
    28     3     1    2
    29    17    15    1
    30    17    18    1
    31    14    15    1
    32     5     1    1
    33     4     1    1
    34     1     2    1
