@<TRIPOS>MOLECULE
1p2u_GNP_A_1.pdb
 32 34 0 0 0
SMALL
GASTEIGER

@<TRIPOS>ATOM
      1  PG        29.9890   11.9190   48.9520 P.3   167  GNP167      0.4884
      2  O1G       30.2060   12.3410   50.3530 O.3   167  GNP167     -0.1240
      3  O2G       30.0670   13.0600   48.1070 O.2   167  GNP167     -0.2331
      4  O3G       28.5110   11.5660   48.8020 O.3   167  GNP167     -0.1240
      5  N3B       30.9050   10.6200   48.5710 N.3   167  GNP167     -0.0163
      6  PB        30.9650    9.8740   47.0970 P.3   167  GNP167      0.4669
      7  O1B       29.8330    8.9760   46.8200 O.3   167  GNP167     -0.1253
      8  O2B       31.2710   10.6970   45.9560 O.2   167  GNP167     -0.2351
      9  O3A       32.2500    8.9530   47.2340 O.3   167  GNP167     -0.2360
     10  PA        33.7820    9.2490   46.7510 P.3   167  GNP167      0.2220
     11  O1A       33.8390    9.2320   45.2660 O.2   167  GNP167     -0.5170
     12  O2A       34.3580   10.4200   47.4520 O.3   167  GNP167     -0.4370
     13  O5'       34.4660    7.9010   47.2470 O.3   167  GNP167     -0.3111
     14  C5'       34.5690    7.6230   48.6760 C.3   167  GNP167      0.1813
     15  C4'       35.7280    6.6350   48.9460 C.3   167  GNP167      0.1799
     16  O4'       35.4840    5.4200   48.1850 O.3   167  GNP167     -0.3326
     17  C3'       37.1120    7.1590   48.4800 C.3   167  GNP167      0.2158
     18  O3'       38.1770    6.7980   49.3940 O.3   167  GNP167     -0.2175
     19  C2'       37.2540    6.5310   47.1020 C.3   167  GNP167      0.2310
     20  O2'       38.6010    6.2960   46.6710 O.3   167  GNP167     -0.2158
     21  C1'       36.5800    5.1730   47.3050 C.3   167  GNP167      0.2293
     22  N9        36.0690    4.6260   46.0370 N.pl3 167  GNP167     -0.2354
     23  C8        35.1830    5.1850   45.1140 C.3   167  GNP167      0.2246
     24  N7        34.9300    4.4400   44.0880 N.2   167  GNP167     -0.2322
     25  C5        35.6970    3.2740   44.3250 C.2   167  GNP167      0.2182
     26  C6        35.8590    2.0500   43.5520 C.1   167  GNP167      0.2372
     27  O6        35.3370    1.7390   42.4750 O.2   167  GNP167     -0.2069
     28  N1        36.7340    1.1360   44.1670 N.2   167  GNP167     -0.2485
     29  C2        37.4010    1.3390   45.3840 C.1   167  GNP167      0.2531
     30  N2        38.2100    0.3600   45.8350 N.pl3 167  GNP167     -0.0226
     31  N3        37.2520    2.4800   46.1060 N.2   167  GNP167     -0.3074
     32  C4        36.3960    3.3980   45.5290 C.2   167  GNP167      0.2300
@<TRIPOS>BOND
     1    27    26    2
     2    26    28    2
     3    26    25    1
     4    24    25    2
     5    24    23    1
     6    28    29    2
     7    25    32    1
     8    23    22    1
     9    11    10    2
    10    29    30    1
    11    29    31    2
    12    32    22    1
    13    32    31    2
    14     8     6    2
    15    22    21    1
    16    20    19    1
    17    10     9    1
    18    10    13    1
    19    10    12    1
    20     7     6    1
    21     6     9    1
    22     6     5    1
    23    19    21    1
    24    19    17    1
    25    13    14    1
    26    21    16    1
    27     3     1    2
    28    16    15    1
    29    17    15    1
    30    17    18    1
    31     5     1    1
    32    14    15    1
    33     4     1    1
    34     1     2    1
