@<TRIPOS>MOLECULE
1p2v_GNP_A_1.pdb
 32 34 0 0 0
SMALL
GASTEIGER

@<TRIPOS>ATOM
      1  PG       -25.3640   20.2280  -85.8700 P.3   167  GNP167      0.4884
      2  O1G      -25.8190   20.1670  -84.4990 O.3   167  GNP167     -0.1240
      3  O2G      -26.3950   19.7440  -86.7230 O.2   167  GNP167     -0.2331
      4  O3G      -24.2930   19.1370  -86.0270 O.3   167  GNP167     -0.1240
      5  N3B      -24.7240   21.6890  -86.2380 N.3   167  GNP167     -0.0163
      6  PB       -24.1300   22.1060  -87.7170 P.3   167  GNP167      0.4669
      7  O1B      -22.7450   21.6240  -87.9680 O.3   167  GNP167     -0.1253
      8  O2B      -24.9980   21.9080  -88.8330 O.2   167  GNP167     -0.2351
      9  O3A      -24.0200   23.6890  -87.5970 O.3   167  GNP167     -0.2360
     10  PA       -25.0720   24.8570  -88.0390 P.3   167  GNP167      0.2220
     11  O1A      -25.1640   24.9460  -89.5300 O.2   167  GNP167     -0.5170
     12  O2A      -26.3120   24.7860  -87.2800 O.3   167  GNP167     -0.4370
     13  O5'      -24.2080   26.1350  -87.5770 O.3   167  GNP167     -0.3111
     14  C5'      -23.9280   26.3490  -86.1530 C.3   167  GNP167      0.1813
     15  C4'      -23.7280   27.8570  -85.8490 C.3   167  GNP167      0.1799
     16  O4'      -22.5610   28.3100  -86.5880 O.3   167  GNP167     -0.3326
     17  C3'      -24.9040   28.7490  -86.3230 C.3   167  GNP167      0.2158
     18  O3'      -25.1930   29.8300  -85.4010 O.3   167  GNP167     -0.2175
     19  C2'      -24.4230   29.2240  -87.6790 C.3   167  GNP167      0.2310
     20  O2'      -24.9310   30.4950  -88.0670 O.3   167  GNP167     -0.2158
     21  C1'      -22.9090   29.3680  -87.4680 C.3   167  GNP167      0.2293
     22  N9       -22.1490   29.2040  -88.7280 N.pl3 167  GNP167     -0.2354
     23  C8       -22.1850   28.1760  -89.6560 C.3   167  GNP167      0.2246
     24  N7       -21.3980   28.3190  -90.6640 N.2   167  GNP167     -0.2322
     25  C5       -20.7530   29.5500  -90.4150 C.2   167  GNP167      0.2182
     26  C6       -19.7440   30.2880  -91.1760 C.1   167  GNP167      0.2372
     27  O6       -19.2020   29.9890  -92.2440 O.2   167  GNP167     -0.2069
     28  N1       -19.3750   31.4900  -90.5580 N.2   167  GNP167     -0.2485
     29  C2       -19.8890   31.9690  -89.3520 C.1   167  GNP167      0.2531
     30  N2       -19.4320   33.1540  -88.8810 N.pl3 167  GNP167     -0.0226
     31  N3       -20.8270   31.2850  -88.6490 N.2   167  GNP167     -0.3074
     32  C4       -21.2160   30.0960  -89.2290 C.2   167  GNP167      0.2300
@<TRIPOS>BOND
     1    27    26    2
     2    26    28    2
     3    26    25    1
     4    24    25    2
     5    24    23    1
     6    28    29    2
     7    25    32    1
     8    23    22    1
     9    11    10    2
    10    29    30    1
    11    29    31    2
    12    32    22    1
    13    32    31    2
    14     8     6    2
    15    22    21    1
    16    20    19    1
    17    10     9    1
    18    10    13    1
    19    10    12    1
    20     7     6    1
    21     6     9    1
    22     6     5    1
    23    19    21    1
    24    19    17    1
    25    13    14    1
    26    21    16    1
    27     3     1    2
    28    16    15    1
    29    17    15    1
    30    17    18    1
    31     5     1    1
    32    14    15    1
    33     4     1    1
    34     1     2    1
