@<TRIPOS>MOLECULE
1p2y_HEM_A_1.pdb
 43 50 0 0 0
SMALL
GASTEIGER

@<TRIPOS>ATOM
      1 FE         12.4680   10.2020   39.3310 Fe    430  HEM430      0.0000
      2  CHA       11.6430   13.5060   39.2930 C.2   430  HEM430      0.0000
      3  CHB       12.1040   10.1560   42.7110 C.2   430  HEM430      0.0000
      4  CHC       13.3780    6.9330   39.4010 C.2   430  HEM430      0.0000
      5  CHD       13.0100   10.3160   35.9660 C.2   430  HEM430      0.0000
      6  NA        11.9380   11.5280   40.6900 N.2   430  HEM430      0.0000
      7  C1A       11.6000   12.8520   40.5070 C.2   430  HEM430      0.0000
      8  C2A       11.2860   13.4970   41.7620 C.2   430  HEM430      0.0000
      9  C3A       11.4510   12.5570   42.7280 C.2   430  HEM430      0.0000
     10  C4A       11.8590   11.3480   42.0560 C.2   430  HEM430      0.0000
     11  CMA       11.2930   12.7420   44.2460 C.3   430  HEM430      0.0000
     12  CAA       10.9280   14.9730   41.9750 C.3   430  HEM430      0.0000
     13  CBA       12.0330   15.8040   42.6220 C.3   430  HEM430      0.0000
     14  CGA       11.6060   17.2360   42.9210 C.2   430  HEM430      0.0000
     15  O1A       10.4020   17.4900   43.1310 O.co2 430  HEM430      0.0000
     16  O2A       12.4800   18.1120   42.9450 O.co2 430  HEM430      0.0000
     17  NB        12.6320    8.8090   40.7610 N.ar  430  HEM430      0.0000
     18  C1B       12.4230    8.9540   42.1150 C.ar  430  HEM430      0.0000
     19  C2B       12.5550    7.6880   42.8320 C.ar  430  HEM430      0.0000
     20  C3B       12.9270    6.7630   41.8740 C.ar  430  HEM430      0.0000
     21  C4B       12.9580    7.4850   40.6070 C.ar  430  HEM430      0.0000
     22  CMB       12.1850    7.4460   44.3100 C.3   430  HEM430      0.0000
     23  CAB       13.2160    5.4000   41.9930 C.3   430  HEM430      0.0000
     24  CBB       12.9020    4.4770   43.0760 C.3   430  HEM430      0.0000
     25  NC        13.1860    8.9240   37.9970 N.2   430  HEM430      0.0000
     26  C1C       13.5340    7.5990   38.1910 C.2   430  HEM430      0.0000
     27  C2C       13.9760    6.9840   36.9540 C.2   430  HEM430      0.0000
     28  C3C       13.9010    7.9390   35.9710 C.2   430  HEM430      0.0000
     29  C4C       13.3790    9.1270   36.6300 C.2   430  HEM430      0.0000
     30  CMC       14.3820    5.5310   36.8410 C.3   430  HEM430      0.0000
     31  CAC       14.2520    7.9110   34.6260 C.3   430  HEM430      0.0000
     32  CBC       15.1100    6.9930   33.9450 C.3   430  HEM430      0.0000
     33  ND        12.2530   11.5900   37.9170 N.ar  430  HEM430      0.0000
     34  C1D       12.4390   11.4520   36.5520 C.ar  430  HEM430      0.0000
     35  C2D       12.1980   12.6870   35.8510 C.ar  430  HEM430      0.0000
     36  C3D       11.9200   13.6030   36.7840 C.ar  430  HEM430      0.0000
     37  C4D       11.9510   12.9230   38.0770 C.ar  430  HEM430      0.0000
     38  CMD       12.2650   12.9440   34.3620 C.3   430  HEM430      0.0000
     39  CAD       11.6840   15.0740   36.5330 C.3   430  HEM430      0.0000
     40  CBD       10.2500   15.5440   36.6400 C.3   430  HEM430      0.0000
     41  CGD       10.1450   17.0620   36.7040 C.2   430  HEM430      0.0000
     42  O1D        9.1350   17.6180   36.2120 O.co2 430  HEM430      0.0000
     43  O2D       11.0800   17.6950   37.2520 O.co2 430  HEM430      0.0000
@<TRIPOS>BOND
     1    32    31    1
     2    38    35    1
     3    31    28    1
     4    35    34   ar
     5    35    36   ar
     6     5    34    2
     7     5    29    1
     8    28    29    1
     9    28    27    2
    10    42    41   ar
    11    39    40    1
    12    39    36    1
    13    34    33   ar
    14    29    25    2
    15    40    41    1
    16    41    43   ar
    17    36    37   ar
    18    30    27    1
    19    27    26    1
    20    33    37   ar
    21    33     1    1
    22    25    26    1
    23    25     1    1
    24    37     2    2
    25    26     4    2
    26     2     7    1
    27     1     6    1
    28     1    17    1
    29     4    21    1
    30     7     6    2
    31     7     8    1
    32    21    17   ar
    33    21    20   ar
    34     6    10    1
    35    17    18   ar
    36     8    12    1
    37     8     9    2
    38    20    23    1
    39    20    19   ar
    40    12    13    1
    41    23    24    1
    42    10     3    2
    43    10     9    1
    44    18     3    1
    45    18    19   ar
    46    13    14    1
    47     9    11    1
    48    19    22    1
    49    14    16   ar
    50    14    15   ar
