@<TRIPOS>MOLECULE
1p2y_NCT_A_1.pdb
 12 13 0 0 0
SMALL
GASTEIGER

@<TRIPOS>ATOM
      1  N1        14.5300   10.9590   39.3960 N.ar  440  NCT440     -0.2426
      2  C1        14.8480   11.5340   40.5560 C.ar  440  NCT440      0.0959
      3  C2        15.9830   12.2950   40.7340 C.ar  440  NCT440      0.0114
      4  C3        16.8250   12.4490   39.6380 C.ar  440  NCT440      0.0002
      5  C4        16.5230   11.8390   38.4340 C.ar  440  NCT440      0.0204
      6  C5        15.3520   11.1050   38.3520 C.ar  440  NCT440      0.0989
      7  N2        17.6410   13.4010   42.2340 N.3   440  NCT440     -0.2691
      8  C6        16.2700   12.9520   42.0610 C.3   440  NCT440      0.0817
      9  C7        15.4670   14.2580   42.2210 C.3   440  NCT440      0.0220
     10  C8        16.2810   15.0920   43.2200 C.3   440  NCT440      0.0191
     11  C9        17.6370   14.3510   43.3350 C.3   440  NCT440      0.0724
     12  C10       18.6320   12.3520   42.3570 C.3   440  NCT440      0.0899
@<TRIPOS>BOND
     1     6     5   ar
     2     6     1   ar
     3     5     4   ar
     4     1     2   ar
     5     4     3   ar
     6     2     3   ar
     7     3     8    1
     8     8     9    1
     9     8     7    1
    10     9    10    1
    11     7    12    1
    12     7    11    1
    13    10    11    1
