@<TRIPOS>MOLECULE
1p31_EPU_A_1.pdb
 44 46 0 0 0
SMALL
GASTEIGER

@<TRIPOS>ATOM
      1  N1U       51.1510   62.4410  -11.3540 N.am  598  EPU598     -0.1766
      2  C2U       51.6180   62.4220  -12.6830 C.1   598  EPU598      0.2845
      3  N3U       50.7400   62.5180  -13.6830 N.2   598  EPU598     -0.2452
      4  C4U       49.4250   62.6420  -13.4460 C.1   598  EPU598      0.2182
      5  C5U       48.9320   62.6590  -12.1470 C.2   598  EPU598      0.1242
      6  C6U       49.8340   62.5540  -11.0930 C.2   598  EPU598      0.0929
      7  O2U       52.8440   62.3090  -12.9390 O.2   598  EPU598     -0.1918
      8  O4U       48.6390   62.7330  -14.4080 O.2   598  EPU598     -0.2085
      9  C1D       52.1160   62.3170  -10.2640 C.3   598  EPU598      0.2401
     10  C2D       51.9780   63.4090   -9.2180 C.3   598  EPU598      0.2319
     11  O2D       52.6450   64.5990   -9.5860 O.3   598  EPU598     -0.2157
     12  C3D       52.6080   62.7560   -8.0090 C.3   598  EPU598      0.2158
     13  C4D       52.3430   61.2670   -8.1960 C.3   598  EPU598      0.1799
     14  O4D       51.8880   61.1020   -9.5440 O.3   598  EPU598     -0.3320
     15  O3D       54.0130   62.9850   -7.9900 O.3   598  EPU598     -0.2175
     16  C5D       51.3150   60.7400   -7.1940 C.3   598  EPU598      0.1813
     17  O5D       51.6980   61.0790   -5.8490 O.3   598  EPU598     -0.3112
     18  PA        51.3590   60.1050   -4.6090 P.3   598  EPU598      0.2189
     19  O1A       52.3410   60.3260   -3.4870 O.3   598  EPU598     -0.4371
     20  O2A       49.8860   60.2190   -4.3260 O.2   598  EPU598     -0.5170
     21  O3A       51.6380   58.7110   -5.3720 O.3   598  EPU598     -0.2703
     22  PB        52.2080   57.3100   -4.8270 P.3   598  EPU598      0.2208
     23  O1B       53.7060   57.3830   -4.7340 O.3   598  EPU598     -0.4371
     24  O2B       51.5880   56.2820   -5.7650 O.2   598  EPU598     -0.5170
     25  C1        50.8150   56.0440   -2.9470 C.3   598  EPU598      0.2644
     26  C2        49.5230   56.6200   -2.3700 C.3   598  EPU598      0.1940
     27  C3        49.8220   57.3310   -1.0470 C.3   598  EPU598      0.2235
     28  C4        50.4740   56.3500   -0.0660 C.3   598  EPU598      0.2230
     29  C5        51.7600   55.8040   -0.7030 C.3   598  EPU598      0.1845
     30  C6        52.5200   54.8190    0.1920 C.3   598  EPU598      0.2142
     31  C7        47.9990   57.0880   -4.3300 C.2   598  EPU598      0.2421
     32  C8        47.4450   58.0840   -5.3460 C.3   598  EPU598      0.0964
     33  N2        48.9130   57.5490   -3.3070 N.am  598  EPU598     -0.1981
     34  O1        51.6380   57.1490   -3.3290 O.3   598  EPU598     -0.2864
     35  O3        48.6880   58.0680   -0.5340 O.2   598  EPU598     -0.4682
     36  O4        50.7600   56.9820    1.1770 O.3   598  EPU598     -0.2165
     37  O5        51.4610   55.1980   -1.9780 O.3   598  EPU598     -0.3259
     38  O6        51.6930   53.7300    0.5900 O.3   598  EPU598     -0.2176
     39  O7        47.6730   55.8820   -4.3670 O.2   598  EPU598     -0.2733
     40  C1E       47.2620   57.1710    1.3550 C.2   598  EPU598      0.4211
     41  O1E       46.0730   57.1250    1.7450 O.co2 598  EPU598     -0.2371
     42  O2E       48.2210   57.1140    2.1630 O.co2 598  EPU598     -0.2371
     43  C2E       47.5270   57.3020   -0.0770 C.2   598  EPU598      0.2182
     44  C3E       46.6880   56.7490   -0.9390 C.2   598  EPU598      0.0471
@<TRIPOS>BOND
     1     8     4    2
     2     3     4    2
     3     3     2    2
     4     4     5    1
     5     7     2    2
     6     2     1   am
     7     5     6    2
     8     1     6    1
     9     1     9    1
    10     9    14    1
    11     9    10    1
    12    11    10    1
    13    14    13    1
    14    10    12    1
    15    13    12    1
    16    13    16    1
    17    12    15    1
    18    16    17    1
    19    17    18    1
    20    24    22    2
    21    21    22    1
    22    21    18    1
    23    32    31    1
    24    22    23    1
    25    22    34    1
    26    18    20    2
    27    18    19    1
    28    39    31    2
    29    31    33   am
    30    34    25    1
    31    33    26    1
    32    25    26    1
    33    25    37    1
    34    26    27    1
    35    37    29    1
    36    27    35    1
    37    27    28    1
    38    44    43    2
    39    29    28    1
    40    29    30    1
    41    35    43    1
    42    43    40    1
    43    28    36    1
    44    30    38    1
    45    40    41   ar
    46    40    42   ar
