@<TRIPOS>MOLECULE
1p33_MTX_A_1.pdb
 33 36 0 0 0
SMALL
GASTEIGER

@<TRIPOS>ATOM
      1  N1        13.1870   15.6470   38.3750 N.2   351  MTX351     -0.2684
      2  C2        13.7140   14.9770   37.2960 C.1   351  MTX351      0.2519
      3  NA2       12.9990   14.0190   36.6320 N.pl3 351  MTX351     -0.0226
      4  N3        15.0120   15.2560   36.9340 N.2   351  MTX351     -0.3033
      5  C4        15.8250   16.1850   37.6330 C.2   351  MTX351      0.2728
      6  NA4       17.0960   16.4030   37.2330 N.pl3 351  MTX351     -0.0887
      7  C4A       15.2860   16.8920   38.7760 C.2   351  MTX351      0.2518
      8  N5        16.0090   17.8240   39.5410 N.2   351  MTX351     -0.3917
      9  C6        15.4300   18.4430   40.6880 C.2   351  MTX351      0.1326
     10  C7        13.9550   18.2610   40.9850 C.3   351  MTX351      0.1930
     11  N8        13.2910   17.2040   40.1530 N.2   351  MTX351     -0.1998
     12  C8A       13.9170   16.5780   39.1060 C.1   351  MTX351      0.1314
     13  C9        16.1720   19.3020   41.7340 C.3   351  MTX351      0.1432
     14  N10       17.7240   19.6300   41.7350 N.pl3 351  MTX351     -0.2999
     15  CM        17.2050   20.6310   40.7400 C.3   351  MTX351      0.1178
     16  C11       19.0000   16.7010   44.8450 C.ar  351  MTX351      0.0551
     17  C12       17.6730   17.0980   44.8460 C.ar  351  MTX351      0.0058
     18  C13       17.1500   18.0570   43.8630 C.ar  351  MTX351      0.0147
     19  C14       18.0680   18.6920   42.8310 C.ar  351  MTX351      0.0482
     20  C15       19.4300   18.2570   42.8970 C.ar  351  MTX351      0.0147
     21  C16       19.9420   17.2700   43.8550 C.ar  351  MTX351      0.0058
     22  C         19.4230   15.6550   45.8350 C.2   351  MTX351      0.2652
     23  O         20.5660   15.3190   45.8160 O.2   351  MTX351     -0.2684
     24  N         18.5610   15.0290   46.7360 N.am  351  MTX351     -0.1918
     25  CA        18.7710   13.8990   47.7550 C.3   351  MTX351      0.1986
     26  CT        17.4160   13.6530   48.5140 C.2   351  MTX351      0.3842
     27  O1        17.0930   14.4020   49.5050 O.co2 351  MTX351     -0.2437
     28  O2        16.6450   12.7800   48.0510 O.co2 351  MTX351     -0.2437
     29  CB        19.9900   14.2460   48.6690 C.3   351  MTX351      0.0451
     30  CG        21.4400   14.1110   48.0480 C.3   351  MTX351      0.1164
     31  CD        22.1730   12.7120   47.8660 C.2   351  MTX351      0.3649
     32  OE1       21.5140   11.5330   47.3650 O.co2 351  MTX351     -0.2457
     33  OE2       23.3930   12.6670   48.1380 O.co2 351  MTX351     -0.2457
@<TRIPOS>BOND
     1     3     2    1
     2     4     2    2
     3     4     5    2
     4     6     5    1
     5     2     1    2
     6     5     7    1
     7     1    12    2
     8     7    12    1
     9     7     8    2
    10    12    11    2
    11     8     9    2
    12    11    10    1
    13     9    10    1
    14     9    13    1
    15    15    13    1
    16    15    14    1
    17    13    14    1
    18    14    19    1
    19    19    20   ar
    20    19    18   ar
    21    20    21   ar
    22    21    16   ar
    23    18    17   ar
    24    16    17   ar
    25    16    22    1
    26    23    22    2
    27    22    24   am
    28    24    25    1
    29    32    31   ar
    30    25    26    1
    31    25    29    1
    32    31    30    1
    33    31    33   ar
    34    30    29    1
    35    28    26   ar
    36    26    27   ar
