@<TRIPOS>MOLECULE
1p33_NDP_A_1.pdb
 48 52 0 0 0
SMALL
GASTEIGER

@<TRIPOS>ATOM
      1  PA         8.8860   16.2350   37.5690 P.3   300  NDP300      0.2189
      2  O1A        9.6450   16.0750   38.7870 O.3   300  NDP300     -0.4371
      3  O2A        8.1820   16.5050   36.2620 O.2   300  NDP300     -0.5170
      4  O5B        8.3560   14.7190   37.2150 O.3   300  NDP300     -0.3112
      5  C5B        7.9290   14.3570   35.8850 C.3   300  NDP300      0.1813
      6  C4B        7.0810   13.1190   36.0260 C.3   300  NDP300      0.1820
      7  O4B        6.9080   12.3050   34.8840 O.3   300  NDP300     -0.3136
      8  C3B        6.6970   12.4510   37.2630 C.3   300  NDP300      0.2157
      9  O3B        5.8870   13.4340   37.9800 O.3   300  NDP300     -0.2175
     10  C2B        5.7980   11.3650   36.7570 C.3   300  NDP300      0.2314
     11  O2B        4.3860   11.4690   36.7350 O.3   300  NDP300     -0.2630
     12  C1B        6.3590   11.1080   35.4360 C.3   300  NDP300      0.3158
     13  N9A        7.1860    9.8970   35.6910 N.pl3 300  NDP300     -0.1439
     14  C8A        8.3250    9.7010   36.5470 C.3   300  NDP300      0.3377
     15  N7A        8.7470    8.4550   36.5360 N.2   300  NDP300     -0.2095
     16  C5A        7.9260    7.7720   35.6840 C.2   300  NDP300      0.2526
     17  C6A        7.8010    6.4460   35.2370 C.2   300  NDP300      0.4393
     18  N6A        8.6370    5.5060   35.6590 N.pl3 300  NDP300      0.2180
     19  N1A        6.8220    6.1370   34.3610 N.2   300  NDP300      0.0021
     20  C2A        5.9530    7.0850   33.9210 C.3   300  NDP300      0.5254
     21  N3A        5.9440    8.3780   34.2650 N.2   300  NDP300     -0.0055
     22  C4A        6.9340    8.6870   35.1480 C.2   300  NDP300      0.3518
     23  O3        10.0950   16.6430   36.7180 O.3   300  NDP300     -0.2703
     24  PN        10.8890   18.0530   36.6680 P.3   300  NDP300      0.2189
     25  O1N       11.5290   18.1420   37.9730 O.3   300  NDP300     -0.4371
     26  O2N        9.8920   19.1130   36.2590 O.2   300  NDP300     -0.5170
     27  O5D       11.7940   17.7340   35.4280 O.3   300  NDP300     -0.3112
     28  C5D       11.1300   17.6750   34.1020 C.3   300  NDP300      0.1813
     29  C4D       12.2010   17.3300   33.0680 C.3   300  NDP300      0.1799
     30  O4D       13.2190   18.3080   33.2210 O.3   300  NDP300     -0.3327
     31  C3D       12.8280   15.9850   33.4050 C.3   300  NDP300      0.2158
     32  O3D       13.0570   15.2220   32.2140 O.3   300  NDP300     -0.2175
     33  C2D       14.0640   16.3350   34.1830 C.3   300  NDP300      0.2309
     34  O2D       15.0170   15.3130   34.0910 O.3   300  NDP300     -0.2158
     35  C1D       14.4800   17.6900   33.5000 C.3   300  NDP300      0.2263
     36  N1N       15.2710   18.5340   34.4530 N.pl3 300  NDP300     -0.2787
     37  C2N       14.5610   19.2210   35.4690 C.3   300  NDP300      0.1244
     38  C3N       15.3490   20.0280   36.3810 C.2   300  NDP300      0.0544
     39  C7N       14.6970   20.7730   37.4640 C.2   300  NDP300      0.2818
     40  O7N       15.1670   21.8170   37.9340 O.2   300  NDP300     -0.2670
     41  N7N       13.5360   20.3410   38.0050 N.am  300  NDP300     -0.0839
     42  C4N       16.7360   20.0790   36.2050 C.2   300  NDP300      0.0033
     43  C5N       17.3970   19.4090   35.2180 C.2   300  NDP300      0.0157
     44  C6N       16.6660   18.6360   34.3420 C.2   300  NDP300      0.0633
     45  P2B        3.5180   11.6580   37.9460 P.3   300  NDP300      0.5328
     46  O1X        2.8420   10.4610   38.4430 O.3   300  NDP300     -0.1145
     47  O2X        3.1080   13.0540   38.2920 O.3   300  NDP300     -0.1145
     48  O3X        2.3600   11.6910   36.9170 O.2   300  NDP300     -0.2224
@<TRIPOS>BOND
     1    32    31    1
     2    29    30    1
     3    29    31    1
     4    29    28    1
     5    30    35    1
     6    31    33    1
     7    35    33    1
     8    35    36    1
     9    20    21    1
    10    20    19    1
    11    34    33    1
    12    28    27    1
    13    21    22    2
    14    44    36    1
    15    44    43    2
    16    19    17    2
    17    36    37    1
    18     7    12    1
    19     7     6    1
    20    22    16    1
    21    22    13    1
    22    43    42    1
    23    17    18    1
    24    17    16    1
    25    27    24    1
    26    12    13    1
    27    12    10    1
    28    37    38    1
    29    16    15    2
    30    13    14    1
    31     5     6    1
    32     5     4    1
    33     6     8    1
    34    42    38    2
    35    26    24    2
    36     3     1    2
    37    38    39    1
    38    15    14    1
    39    24    23    1
    40    24    25    1
    41    23     1    1
    42    11    10    1
    43    11    45    1
    44    10     8    1
    45    48    45    2
    46     4     1    1
    47     8     9    1
    48    39    40    2
    49    39    41   am
    50     1     2    1
    51    45    47    1
    52    45    46    1
