@<TRIPOS>MOLECULE
1p39_SAH_A_1.pdb
 26 28 0 0 0
SMALL
GASTEIGER

@<TRIPOS>ATOM
      1  N         -4.0840   12.7940   24.0320 N.3   400  SAH400     -0.1208
      2  CA        -4.1670   11.8300   25.1110 C.3   400  SAH400      0.1952
      3  CB        -2.8520   11.0490   25.1890 C.3   400  SAH400      0.0422
      4  CG        -2.5250   10.3700   23.8640 C.3   400  SAH400      0.0597
      5  SD        -1.2500    9.1260   23.9500 S.3   400  SAH400     -0.1375
      6  C         -4.5090   12.4880   26.4500 C.2   400  SAH400      0.3819
      7  O         -5.1090   13.5870   26.4200 O.co2 400  SAH400     -0.2441
      8  OXT       -4.3820   11.7960   27.4900 O.co2 400  SAH400     -0.2441
      9  C5'       -1.2560    8.6560   22.2190 C.3   400  SAH400      0.0899
     10  C4'       -2.4530    7.8840   21.8580 C.3   400  SAH400      0.1630
     11  O4'       -2.5280    7.7790   20.4440 O.3   400  SAH400     -0.3153
     12  C3'       -2.6790    6.4920   22.5460 C.3   400  SAH400      0.2168
     13  O3'       -3.8300    6.4230   23.4410 O.3   400  SAH400     -0.2175
     14  C2'       -2.9140    5.6470   21.3180 C.3   400  SAH400      0.2569
     15  O2'       -3.7860    4.5100   21.5120 O.3   400  SAH400     -0.2130
     16  C1'       -3.4050    6.6700   20.2960 C.3   400  SAH400      0.3185
     17  N9        -3.3320    6.2280   18.9130 N.pl3 400  SAH400     -0.1439
     18  C8        -2.2970    5.4820   18.2350 C.3   400  SAH400      0.3377
     19  N7        -2.6650    5.2360   17.0130 N.2   400  SAH400     -0.2095
     20  C5        -3.9800    5.7570   16.8790 C.2   400  SAH400      0.2526
     21  C6        -4.9500    5.7300   15.8720 C.2   400  SAH400      0.4393
     22  N6        -4.7350    5.2180   14.6620 N.pl3 400  SAH400      0.2180
     23  N1        -6.2010    6.1240   16.1780 N.2   400  SAH400      0.0021
     24  C2        -6.5090    6.5160   17.3900 C.3   400  SAH400      0.5254
     25  N3        -5.6690    6.7640   18.3560 N.2   400  SAH400     -0.0055
     26  C4        -4.4190    6.2920   18.0650 C.2   400  SAH400      0.3518
@<TRIPOS>BOND
     1    22    21    1
     2    21    23    2
     3    21    20    1
     4    23    24    1
     5    20    19    2
     6    20    26    1
     7    19    18    1
     8    24    25    1
     9    26    25    2
    10    26    17    1
    11    18    17    1
    12    17    16    1
    13    16    11    1
    14    16    14    1
    15    11    10    1
    16    14    15    1
    17    14    12    1
    18    10     9    1
    19    10    12    1
    20     9     5    1
    21    12    13    1
    22     4     5    1
    23     4     3    1
    24     1     2    1
    25     2     3    1
    26     2     6    1
    27     7     6   ar
    28     6     8   ar
