@<TRIPOS>MOLECULE
1p39_MGT_A_1.pdb
 32 34 0 0 0
SMALL
GASTEIGER

@<TRIPOS>ATOM
      1  PG         8.5440   13.3620   23.9850 P.3   401  MGT401      0.3991
      2  O1G        8.5010   14.3010   22.8340 O.3   401  MGT401     -0.1422
      3  O2G        9.5000   13.6380   25.0860 O.3   401  MGT401     -0.1422
      4  O3B        8.8460   11.8620   23.4570 O.3   401  MGT401     -0.2510
      5  PB        10.0370   11.4060   22.4660 P.3   401  MGT401      0.2251
      6  O1B        9.5260   10.2340   21.7060 O.3   401  MGT401     -0.4369
      7  O2B       10.5190   12.5830   21.7050 O.2   401  MGT401     -0.5168
      8  O3A       11.2590   10.8490   23.3640 O.3   401  MGT401     -0.2701
      9  PA        12.5890   11.6810   23.7510 P.3   401  MGT401      0.2189
     10  O1A       13.2440   12.1970   22.5190 O.2   401  MGT401     -0.5170
     11  O2A       12.2210   12.6710   24.7950 O.3   401  MGT401     -0.4371
     12  O5'       13.5510   10.5880   24.4290 O.3   401  MGT401     -0.3112
     13  C5'       13.8570    9.3220   23.8140 C.3   401  MGT401      0.1813
     14  C4'       15.2290    9.2940   23.1370 C.3   401  MGT401      0.1799
     15  O4'       15.3220   10.3340   22.1680 O.3   401  MGT401     -0.3326
     16  C3'       16.3420    9.5940   24.1220 C.3   401  MGT401      0.2158
     17  O3'       16.7370    8.4050   24.8240 O.3   401  MGT401     -0.2175
     18  C2'       17.4730   10.0860   23.2360 C.3   401  MGT401      0.2310
     19  O2'       18.3130    9.0250   22.7710 O.3   401  MGT401     -0.2158
     20  C1'       16.7230   10.6190   22.0130 C.3   401  MGT401      0.2287
     21  N9        16.8320   12.0780   21.8210 N.pl3 401  MGT401     -0.2454
     22  C8        16.1550   13.0790   22.4690 C.3   401  MGT401      0.1735
     23  N7        16.3810   14.2590   21.9950 N.3   401  MGT401     -0.2343
     24  CM7       15.7420   15.4640   22.4640 C.3   401  MGT401      0.0924
     25  C5        17.2790   14.0380   20.9600 C.3   401  MGT401      0.2475
     26  C6        17.8870   14.9550   20.0770 C.1   401  MGT401      0.2145
     27  O6        17.7430   16.1650   20.0260 O.2   401  MGT401     -0.2115
     28  N1        18.7290   14.3360   19.1790 N.2   401  MGT401     -0.2526
     29  C2        18.9840   12.9820   19.1140 C.1   401  MGT401      0.2525
     30  N2        19.8260   12.5540   18.1720 N.pl3 401  MGT401     -0.0226
     31  N3        18.4070   12.1100   19.9540 N.2   401  MGT401     -0.3118
     32  C4        17.5700   12.7050   20.8440 C.2   401  MGT401      0.2086
@<TRIPOS>BOND
     1    30    29    1
     2    29    28    2
     3    29    31    2
     4    28    26    2
     5    31    32    2
     6    27    26    2
     7    26    25    1
     8    32    25    1
     9    32    21    1
    10    25    23    1
    11     7     5    2
    12     6     5    1
    13    21    20    1
    14    21    22    1
    15    23    24    1
    16    23    22    1
    17    20    15    1
    18    20    18    1
    19    15    14    1
    20     5     8    1
    21     5     4    1
    22    10     9    2
    23    19    18    1
    24     2     1    1
    25    14    13    1
    26    14    16    1
    27    18    16    1
    28     8     9    1
    29     4     1    1
    30     9    12    1
    31     9    11    1
    32    13    12    1
    33     1     3    1
    34    16    17    1
