@<TRIPOS>MOLECULE
1p3d_UMA_A_1.pdb
 49 51 0 0 0
SMALL
GASTEIGER

@<TRIPOS>ATOM
      1  N1        30.5180   -7.1580   53.0740 N.am  602  UMA602     -0.1766
      2  C2        30.9480   -7.3420   54.4060 C.1   602  UMA602      0.2845
      3  N3        31.1830   -8.5720   54.8630 N.2   602  UMA602     -0.2452
      4  C4        31.0120   -9.6450   54.0870 C.1   602  UMA602      0.2182
      5  C5        30.5720   -9.5030   52.7700 C.2   602  UMA602      0.1242
      6  C6        30.3180   -8.2220   52.2780 C.2   602  UMA602      0.0929
      7  O2        31.1250   -6.3600   55.1560 O.2   602  UMA602     -0.1918
      8  O4        31.2420  -10.7750   54.5660 O.2   602  UMA602     -0.2085
      9  C1B       30.2530   -5.7870   52.6350 C.3   602  UMA602      0.2401
     10  C2B       30.8870   -5.3620   51.3210 C.3   602  UMA602      0.2319
     11  O2'       32.1920   -4.8380   51.5120 O.3   602  UMA602     -0.2157
     12  C3B       29.9230   -4.2930   50.8410 C.3   602  UMA602      0.2158
     13  C4B       28.5760   -4.6910   51.4310 C.3   602  UMA602      0.1799
     14  O4B       28.8420   -5.6450   52.4580 O.3   602  UMA602     -0.3320
     15  O3B       30.2610   -3.0090   51.3420 O.3   602  UMA602     -0.2175
     16  C5B       27.6850   -5.3210   50.3790 C.3   602  UMA602      0.1813
     17  O5B       27.4030   -4.3270   49.3970 O.3   602  UMA602     -0.3112
     18  PA        25.9650   -4.2630   48.7050 P.3   602  UMA602      0.2189
     19  O1A       25.9000   -2.9350   47.9920 O.3   602  UMA602     -0.4371
     20  O2A       25.7400   -5.5420   47.9610 O.2   602  UMA602     -0.5170
     21  O3A       25.0800   -4.2790   50.0600 O.3   602  UMA602     -0.2703
     22  PB        23.5700   -3.7650   50.3180 P.3   602  UMA602      0.2208
     23  O1B       23.6290   -2.3340   50.7660 O.2   602  UMA602     -0.5170
     24  O2B       22.9720   -4.8190   51.1940 O.3   602  UMA602     -0.4371
     25  O1'       22.8620   -3.7820   48.8820 O.3   602  UMA602     -0.2864
     26  C1'       21.6710   -4.4980   48.5810 C.3   602  UMA602      0.2632
     27  C2'       22.0250   -5.4170   47.4180 C.3   602  UMA602      0.1813
     28  N2'       23.0470   -6.3530   47.8430 N.am  602  UMA602     -0.1994
     29  C7'       22.6600   -7.7000   48.2070 C.2   602  UMA602      0.2420
     30  O7'       21.4760   -8.0200   48.4600 O.2   602  UMA602     -0.2733
     31  C8'       23.8410   -8.6370   48.4750 C.3   602  UMA602      0.0964
     32  C3'       22.5450   -4.5380   46.2840 C.3   602  UMA602      0.1733
     33  O3'       23.0080   -5.2740   45.1460 O.3   602  UMA602     -0.3449
     34  C4'       21.4690   -3.5440   45.8630 C.3   602  UMA602      0.2103
     35  O4'       22.0610   -2.6940   44.8940 O.3   602  UMA602     -0.2178
     36  C5'       21.0270   -2.7190   47.0810 C.3   602  UMA602      0.1833
     37  O5'       20.6530   -3.5680   48.1800 O.3   602  UMA602     -0.3260
     38  C6'       19.8860   -1.7580   46.7600 C.3   602  UMA602      0.2142
     39  O6'       18.6850   -2.4620   46.4860 O.3   602  UMA602     -0.2176
     40  C18       24.4460   -5.3620   45.0680 C.3   602  UMA602      0.1926
     41  C19       24.8270   -6.2300   43.9050 C.2   602  UMA602      0.2690
     42  O18       25.9980   -6.5510   43.7660 O.2   602  UMA602     -0.2707
     43  C20       25.1460   -4.0040   44.9270 C.3   602  UMA602      0.0421
     44  N4        23.8220   -6.5860   43.0940 N.am  602  UMA602     -0.1936
     45  C21       23.9000   -7.5020   41.9560 C.3   602  UMA602      0.1979
     46  C22       24.2860   -8.8970   42.3670 C.2   602  UMA602      0.3842
     47  O19       24.2150   -9.8130   41.5210 O.co2 602  UMA602     -0.2437
     48  O20       24.6590   -9.1010   43.5440 O.co2 602  UMA602     -0.2437
     49  C23       24.8290   -6.9590   40.8710 C.3   602  UMA602      0.0356
@<TRIPOS>BOND
     1    49    45    1
     2    47    46   ar
     3    45    46    1
     4    45    44    1
     5    46    48   ar
     6    44    41   am
     7    42    41    2
     8    41    40    1
     9    35    34    1
    10    43    40    1
    11    40    33    1
    12    33    32    1
    13    34    32    1
    14    34    36    1
    15    32    27    1
    16    39    38    1
    17    38    36    1
    18    36    37    1
    19    27    28    1
    20    27    26    1
    21    28    29   am
    22    20    18    2
    23    19    18    1
    24    37    26    1
    25    29    30    2
    26    29    31    1
    27    26    25    1
    28    18    17    1
    29    18    21    1
    30    25    22    1
    31    17    16    1
    32    21    22    1
    33    22    23    2
    34    22    24    1
    35    16    13    1
    36    12    10    1
    37    12    15    1
    38    12    13    1
    39    10    11    1
    40    10     9    1
    41    13    14    1
    42     6     5    2
    43     6     1    1
    44    14     9    1
    45     9     1    1
    46     5     4    1
    47     1     2   am
    48     4     8    2
    49     4     3    2
    50     2     3    2
    51     2     7    2
