@<TRIPOS>MOLECULE
1p3d_ANP_A_1.pdb
 31 33 0 0 0
SMALL
GASTEIGER

@<TRIPOS>ATOM
      1  PG        20.1830   -3.8530   40.3860 P.3   603  ANP603      0.4884
      2  O1G       19.9120   -3.0040   41.5800 O.3   603  ANP603     -0.1240
      3  O2G       21.6330   -4.3670   40.4120 O.3   603  ANP603     -0.1240
      4  O3G       19.2400   -5.0620   40.3090 O.2   603  ANP603     -0.2331
      5  PB        18.9380   -1.7550   38.7770 P.3   603  ANP603      0.4669
      6  O1B       19.0250   -0.7340   39.8470 O.3   603  ANP603     -0.1253
      7  O2B       17.5190   -2.2780   38.5700 O.2   603  ANP603     -0.2351
      8  N3B       20.0190   -2.9380   39.0430 N.3   603  ANP603     -0.0163
      9  PA        20.2370    0.3010   37.2570 P.3   603  ANP603      0.2220
     10  O1A       19.4020    1.5190   37.2430 O.2   603  ANP603     -0.5170
     11  O2A       21.4100    0.2970   38.2320 O.3   603  ANP603     -0.4370
     12  O3A       19.3560   -1.0330   37.4000 O.3   603  ANP603     -0.2360
     13  O5'       20.7760    0.0710   35.7620 O.3   603  ANP603     -0.3111
     14  C5'       21.7820   -0.8970   35.5940 C.3   603  ANP603      0.1813
     15  C4'       22.0470   -1.0380   34.1080 C.3   603  ANP603      0.1821
     16  O4'       20.9000   -1.5440   33.4540 O.3   603  ANP603     -0.3135
     17  C3'       22.3440    0.2900   33.4430 C.3   603  ANP603      0.2184
     18  O3'       23.7090    0.6110   33.6120 O.3   603  ANP603     -0.2174
     19  C2'       21.9380    0.0050   32.0160 C.3   603  ANP603      0.2570
     20  O2'       22.9400   -0.8030   31.4410 O.3   603  ANP603     -0.2130
     21  C1'       20.7590   -0.9430   32.1770 C.3   603  ANP603      0.3186
     22  N9        19.4060   -0.3620   32.2100 N.pl3 603  ANP603     -0.1439
     23  C8        18.9770    0.7990   32.8170 C.3   603  ANP603      0.3377
     24  N7        17.6400    0.8940   32.6470 N.2   603  ANP603     -0.2095
     25  C5        17.1970   -0.1950   31.9740 C.2   603  ANP603      0.2526
     26  C6        15.9390   -0.6050   31.5380 C.2   603  ANP603      0.4393
     27  N6        14.8560    0.1160   31.7350 N.pl3 603  ANP603      0.2180
     28  N1        15.8180   -1.8000   30.8560 N.2   603  ANP603      0.0021
     29  C2        16.9300   -2.5810   30.6090 C.3   603  ANP603      0.5254
     30  N3        18.1780   -2.1700   31.0380 N.2   603  ANP603     -0.0055
     31  C4        18.3050   -0.9960   31.7090 C.2   603  ANP603      0.3518
@<TRIPOS>BOND
     1    29    28    1
     2    29    30    1
     3    28    26    2
     4    30    31    2
     5    20    19    1
     6    26    27    1
     7    26    25    1
     8    31    25    1
     9    31    22    1
    10    25    24    2
    11    19    21    1
    12    19    17    1
    13    21    22    1
    14    21    16    1
    15    22    23    1
    16    24    23    1
    17    17    18    1
    18    17    15    1
    19    16    15    1
    20    15    14    1
    21    14    13    1
    22    13     9    1
    23    10     9    2
    24     9    12    1
    25     9    11    1
    26    12     5    1
    27     7     5    2
    28     5     8    1
    29     5     6    1
    30     8     1    1
    31     4     1    2
    32     1     3    1
    33     1     2    1
