@<TRIPOS>MOLECULE
1p3t_HEM_A_1.pdb
 43 50 0 0 0
SMALL
GASTEIGER

@<TRIPOS>ATOM
      1 FE         14.1460    7.7000   20.4520 Fe    300  HEM300      0.0000
      2  CHA       15.1090    9.8460   17.9380 C.2   300  HEM300      0.0000
      3  CHB       11.1200    7.3020   18.8680 C.2   300  HEM300      0.0000
      4  CHC       12.7020    6.5430   23.3700 C.2   300  HEM300      0.0000
      5  CHD       17.0130    8.3490   22.2020 C.2   300  HEM300      0.0000
      6  NA        13.3490    8.3510   18.7210 N.ar  300  HEM300      0.0000
      7  C1A       13.8570    9.2460   17.8060 C.ar  300  HEM300      0.0000
      8  C2A       12.8720    9.4400   16.6990 C.ar  300  HEM300      0.0000
      9  C3A       11.8260    8.6320   16.9480 C.ar  300  HEM300      0.0000
     10  C4A       12.1060    7.9960   18.2010 C.ar  300  HEM300      0.0000
     11  CMA       10.5670    8.4460   16.1000 C.3   300  HEM300      0.0000
     12  CAA       12.8280   10.3770   15.5010 C.3   300  HEM300      0.0000
     13  CBA       13.5210   11.7130   15.4890 C.3   300  HEM300      0.0000
     14  CGA       13.4610   12.3670   14.1260 C.2   300  HEM300      0.0000
     15  O1A       14.1040   11.8470   13.1890 O.co2 300  HEM300      0.0000
     16  O2A       12.7700   13.3960   13.9930 O.co2 300  HEM300      0.0000
     17  NB        12.3650    6.9730   20.9560 N.2   300  HEM300      0.0000
     18  C1B       11.2360    6.8400   20.1580 C.2   300  HEM300      0.0000
     19  C2B       10.1200    6.1830   20.8680 C.2   300  HEM300      0.0000
     20  C3B       10.5510    5.9700   22.1440 C.2   300  HEM300      0.0000
     21  C4B       11.9510    6.4670   22.1970 C.2   300  HEM300      0.0000
     22  CMB        8.7380    5.8360   20.2840 C.3   300  HEM300      0.0000
     23  CAB        9.8130    5.3730   23.1700 C.3   300  HEM300      0.0000
     24  CBB        9.1760    4.0460   23.0230 C.3   300  HEM300      0.0000
     25  NC        14.7300    7.4590   22.3670 N.ar  300  HEM300      0.0000
     26  C1C       13.9760    7.0260   23.4550 C.ar  300  HEM300      0.0000
     27  C2C       14.7570    6.9800   24.6840 C.ar  300  HEM300      0.0000
     28  C3C       16.0330    7.3370   24.3330 C.ar  300  HEM300      0.0000
     29  C4C       15.9930    7.6740   22.8980 C.ar  300  HEM300      0.0000
     30  CMC       14.2210    6.6160   26.0610 C.3   300  HEM300      0.0000
     31  CAC       17.1720    7.3370   25.1060 C.3   300  HEM300      0.0000
     32  CBC       17.3170    7.0750   26.5280 C.3   300  HEM300      0.0000
     33  ND        15.7340    8.8460   20.1250 N.2   300  HEM300      0.0000
     34  C1D       16.8900    8.8850   20.9150 C.2   300  HEM300      0.0000
     35  C2D       17.9600    9.5680   20.2160 C.2   300  HEM300      0.0000
     36  C3D       17.3900   10.0820   19.0770 C.2   300  HEM300      0.0000
     37  C4D       16.0050    9.6360   19.0140 C.2   300  HEM300      0.0000
     38  CMD       19.3940    9.7220   20.6820 C.3   300  HEM300      0.0000
     39  CAD       18.1430   10.9430   18.0890 C.3   300  HEM300      0.0000
     40  CBD       18.3980   10.1540   16.8140 C.3   300  HEM300      0.0000
     41  CGD       19.1230   10.9690   15.7710 C.2   300  HEM300      0.0000
     42  O1D       20.3780   10.9690   15.7860 O.co2 300  HEM300      0.0000
     43  O2D       18.4290   11.6150   14.9530 O.co2 300  HEM300      0.0000
@<TRIPOS>BOND
     1    15    14   ar
     2    16    14   ar
     3    14    13    1
     4    43    41   ar
     5    13    12    1
     6    12     8    1
     7    41    42   ar
     8    41    40    1
     9    11     9    1
    10     8     9   ar
    11     8     7   ar
    12    40    39    1
    13     9    10   ar
    14     7     2    2
    15     7     6   ar
    16     2    37    1
    17    39    36    1
    18    10     6   ar
    19    10     3    2
    20     6     1    1
    21     3    18    1
    22    37    36    1
    23    37    33    2
    24    36    35    2
    25    33     1    1
    26    33    34    1
    27    18    19    1
    28    18    17    2
    29    35    38    1
    30    35    34    1
    31    22    19    1
    32     1    17    1
    33     1    25    1
    34    19    20    2
    35    34     5    2
    36    17    21    1
    37    20    21    1
    38    20    23    1
    39    21     4    2
    40     5    29    1
    41    25    29   ar
    42    25    26   ar
    43    29    28   ar
    44    24    23    1
    45     4    26    1
    46    26    27   ar
    47    28    27   ar
    48    28    31    1
    49    27    30    1
    50    31    32    1
