@<TRIPOS>MOLECULE
1p3u_HEM_A_1.pdb
 43 50 0 0 0
SMALL
GASTEIGER

@<TRIPOS>ATOM
      1 FE         14.1370    7.9600   20.1470 Fe    300  HEM300      0.0000
      2  CHA       15.3380    9.7810   17.5280 C.2   300  HEM300      0.0000
      3  CHB       11.3200    7.2130   18.3150 C.2   300  HEM300      0.0000
      4  CHC       12.7550    6.4470   22.8960 C.2   300  HEM300      0.0000
      5  CHD       17.0370    8.4650   21.8870 C.2   300  HEM300      0.0000
      6  NA        13.4760    8.4100   18.3250 N.ar  300  HEM300      0.0000
      7  C1A       14.0790    9.2270   17.3940 C.ar  300  HEM300      0.0000
      8  C2A       13.2590    9.3730   16.1740 C.ar  300  HEM300      0.0000
      9  C3A       12.1740    8.6020   16.3850 C.ar  300  HEM300      0.0000
     10  C4A       12.2930    8.0140   17.7160 C.ar  300  HEM300      0.0000
     11  CMA       11.0780    8.3770   15.3620 C.3   300  HEM300      0.0000
     12  CAA       13.5840   10.2500   14.9610 C.3   300  HEM300      0.0000
     13  CBA       12.8940   11.5970   15.0610 C.3   300  HEM300      0.0000
     14  CGA       13.2740   12.5320   13.9300 C.2   300  HEM300      0.0000
     15  O1A       12.6240   13.5920   13.7910 O.co2 300  HEM300      0.0000
     16  O2A       14.2240   12.2100   13.1820 O.co2 300  HEM300      0.0000
     17  NB        12.4680    6.9670   20.5040 N.2   300  HEM300      0.0000
     18  C1B       11.4180    6.7120   19.6270 C.2   300  HEM300      0.0000
     19  C2B       10.3320    6.0320   20.3120 C.2   300  HEM300      0.0000
     20  C3B       10.6910    5.8540   21.6060 C.2   300  HEM300      0.0000
     21  C4B       12.0260    6.4470   21.7140 C.2   300  HEM300      0.0000
     22  CMB        9.0120    5.6340   19.6570 C.3   300  HEM300      0.0000
     23  CAB        9.9910    5.2740   22.6830 C.3   300  HEM300      0.0000
     24  CBB        9.0040    4.2180   22.6010 C.3   300  HEM300      0.0000
     25  NC        14.7470    7.5370   21.9980 N.ar  300  HEM300      0.0000
     26  C1C       14.0390    6.9700   23.0270 C.ar  300  HEM300      0.0000
     27  C2C       14.8190    6.9000   24.2510 C.ar  300  HEM300      0.0000
     28  C3C       16.0590    7.3910   23.9560 C.ar  300  HEM300      0.0000
     29  C4C       15.9920    7.8240   22.5580 C.ar  300  HEM300      0.0000
     30  CMC       14.2820    6.4920   25.6260 C.3   300  HEM300      0.0000
     31  CAC       17.2040    7.4540   24.7570 C.3   300  HEM300      0.0000
     32  CBC       17.3100    7.3530   26.2030 C.3   300  HEM300      0.0000
     33  ND        15.8280    8.9200   19.7810 N.2   300  HEM300      0.0000
     34  C1D       16.9670    8.9580   20.5740 C.2   300  HEM300      0.0000
     35  C2D       18.0860    9.5390   19.8350 C.2   300  HEM300      0.0000
     36  C3D       17.5990    9.9370   18.6400 C.2   300  HEM300      0.0000
     37  C4D       16.1880    9.5750   18.6210 C.2   300  HEM300      0.0000
     38  CMD       19.5050    9.7280   20.3520 C.3   300  HEM300      0.0000
     39  CAD       18.3850   10.7260   17.6030 C.3   300  HEM300      0.0000
     40  CBD       18.5940    9.9790   16.3040 C.3   300  HEM300      0.0000
     41  CGD       19.3800   10.7960   15.3070 C.2   300  HEM300      0.0000
     42  O1D       20.6150   10.8990   15.4680 O.co2 300  HEM300      0.0000
     43  O2D       18.7570   11.3430   14.3720 O.co2 300  HEM300      0.0000
@<TRIPOS>BOND
     1    16    14   ar
     2    15    14   ar
     3    14    13    1
     4    43    41   ar
     5    12    13    1
     6    12     8    1
     7    41    42   ar
     8    41    40    1
     9    11     9    1
    10     8     9   ar
    11     8     7   ar
    12    40    39    1
    13     9    10   ar
    14     7     2    2
    15     7     6   ar
    16     2    37    1
    17    39    36    1
    18    10     3    2
    19    10     6   ar
    20     3    18    1
    21     6     1    1
    22    37    36    1
    23    37    33    2
    24    36    35    2
    25    18    19    1
    26    18    17    2
    27    22    19    1
    28    33     1    1
    29    33    34    1
    30    35    38    1
    31    35    34    1
    32     1    17    1
    33     1    25    1
    34    19    20    2
    35    17    21    1
    36    34     5    2
    37    20    21    1
    38    20    23    1
    39    21     4    2
    40     5    29    1
    41    25    29   ar
    42    25    26   ar
    43    29    28   ar
    44    24    23    1
    45     4    26    1
    46    26    27   ar
    47    28    27   ar
    48    28    31    1
    49    27    30    1
    50    31    32    1
