@<TRIPOS>MOLECULE
1p3v_HEM_A_1.pdb
 43 50 0 0 0
SMALL
GASTEIGER

@<TRIPOS>ATOM
      1  CHA       14.5430   10.2690   18.7360 C.2   300  HEM300      0.0000
      2  CHB       10.5660    7.6360   19.6080 C.2   300  HEM300      0.0000
      3  CHC       12.3880    6.4190   23.9520 C.2   300  HEM300      0.0000
      4  CHD       16.6010    8.6410   22.8890 C.2   300  HEM300      0.0000
      5  C1A       13.2970    9.6290   18.5760 C.ar  300  HEM300      0.0000
      6  C2A       12.4000    9.7440   17.4110 C.ar  300  HEM300      0.0000
      7  C3A       11.2790    8.9830   17.6690 C.ar  300  HEM300      0.0000
      8  C4A       11.4960    8.4310   18.9810 C.ar  300  HEM300      0.0000
      9  CMA       10.0650    8.7060   16.7660 C.3   300  HEM300      0.0000
     10  CAA       12.6250   10.5650   16.1350 C.3   300  HEM300      0.0000
     11  CBA       12.4050   12.0340   16.4420 C.3   300  HEM300      0.0000
     12  CGA       12.5790   12.9300   15.2230 C.2   300  HEM300      0.0000
     13  O1A       13.5980   12.7780   14.5030 O.co2 300  HEM300      0.0000
     14  O2A       11.7030   13.8010   14.9970 O.co2 300  HEM300      0.0000
     15  C1B       10.7720    7.0120   20.8380 C.2   300  HEM300      0.0000
     16  C2B        9.7050    6.3340   21.5430 C.2   300  HEM300      0.0000
     17  C3B       10.1800    6.0010   22.7820 C.2   300  HEM300      0.0000
     18  C4B       11.5690    6.4840   22.8270 C.2   300  HEM300      0.0000
     19  CMB        8.3160    6.1180   20.9890 C.3   300  HEM300      0.0000
     20  CAB        9.4960    5.3910   23.8460 C.3   300  HEM300      0.0000
     21  CBB        8.4730    4.3580   23.7550 C.3   300  HEM300      0.0000
     22  C1C       13.6950    6.9490   24.0190 C.ar  300  HEM300      0.0000
     23  C2C       14.5190    6.9110   25.2260 C.ar  300  HEM300      0.0000
     24  C3C       15.7360    7.4480   24.9230 C.ar  300  HEM300      0.0000
     25  C4C       15.6320    7.8540   23.5260 C.ar  300  HEM300      0.0000
     26  CMC       14.0310    6.4840   26.6110 C.3   300  HEM300      0.0000
     27  CAC       16.8460    7.6690   25.7500 C.3   300  HEM300      0.0000
     28  CBC       17.3170    6.8660   26.8500 C.3   300  HEM300      0.0000
     29  C1D       16.3840    9.2800   21.6670 C.2   300  HEM300      0.0000
     30  C2D       17.4450    9.9430   20.9360 C.2   300  HEM300      0.0000
     31  C3D       16.8430   10.4430   19.8090 C.2   300  HEM300      0.0000
     32  C4D       15.4490   10.0570   19.8190 C.2   300  HEM300      0.0000
     33  CMD       18.9140   10.0600   21.3750 C.3   300  HEM300      0.0000
     34  CAD       17.5400   11.2850   18.7490 C.3   300  HEM300      0.0000
     35  CBD       17.7190   10.5290   17.4340 C.3   300  HEM300      0.0000
     36  CGD       18.3490   11.3870   16.3560 C.2   300  HEM300      0.0000
     37  O1D       19.5940   11.5030   16.3170 O.co2 300  HEM300      0.0000
     38  O2D       17.5870   11.9550   15.5540 O.co2 300  HEM300      0.0000
     39  NA        12.7510    8.7880   19.5070 N.ar  300  HEM300      0.0000
     40  NB        11.9330    7.1120   21.6290 N.2   300  HEM300      0.0000
     41  NC        14.3580    7.5770   22.9920 N.ar  300  HEM300      0.0000
     42  ND        15.1930    9.2790   20.9390 N.2   300  HEM300      0.0000
     43 FE         13.6120    8.1490   21.1990 Fe    300  HEM300      0.0000
@<TRIPOS>BOND
     1    13    12   ar
     2    14    12   ar
     3    12    11    1
     4    38    36   ar
     5    10    11    1
     6    10     6    1
     7    37    36   ar
     8    36    35    1
     9     9     7    1
    10     6     7   ar
    11     6     5   ar
    12    35    34    1
    13     7     8   ar
    14     5     1    2
    15     5    39   ar
    16     1    32    1
    17    34    31    1
    18     8    39   ar
    19     8     2    2
    20    39    43    1
    21     2    15    1
    22    31    32    1
    23    31    30    2
    24    32    42    2
    25    15    16    1
    26    15    40    2
    27    30    33    1
    28    30    29    1
    29    42    43    1
    30    42    29    1
    31    19    16    1
    32    43    40    1
    33    43    41    1
    34    16    17    2
    35    40    18    1
    36    29     4    2
    37    17    18    1
    38    17    20    1
    39    18     3    2
    40     4    25    1
    41    41    25   ar
    42    41    22   ar
    43    25    24   ar
    44    21    20    1
    45     3    22    1
    46    22    23   ar
    47    24    23   ar
    48    24    27    1
    49    23    26    1
    50    27    28    1
