@<TRIPOS>MOLECULE
1p3w_PLP_A_1.pdb
 15 15 0 0 0
SMALL
GASTEIGER

@<TRIPOS>ATOM
      1  N1        35.1550  -48.0940   -8.0850 N.ar  764  PLP764     -0.2452
      2  C2        36.1160  -47.6880   -8.9760 C.ar  764  PLP764      0.0978
      3  C2A       37.5630  -47.9520   -8.6160 C.3   764  PLP764      0.0555
      4  C3        35.6950  -47.0390  -10.1950 C.ar  764  PLP764      0.2049
      5  O3        36.6690  -46.6470  -11.0580 O.3   764  PLP764     -0.2857
      6  C4        34.3250  -46.8350  -10.4480 C.ar  764  PLP764      0.0182
      7  C4A       33.8750  -46.1900  -11.6970 C.3   764  PLP764      0.0342
      8  C5        33.3810  -47.2990   -9.4440 C.ar  764  PLP764      0.0261
      9  C6        33.8030  -47.9120   -8.2950 C.ar  764  PLP764      0.0965
     10  C5A       31.8730  -47.0870   -9.6930 C.3   764  PLP764      0.1815
     11  O4P       31.5320  -47.8630  -10.8640 O.3   764  PLP764     -0.2653
     12  P         30.0170  -48.2410  -11.2050 P.3   764  PLP764      0.5329
     13  O1P       28.8960  -47.4660  -10.5180 O.3   764  PLP764     -0.1145
     14  O2P       29.8330  -49.0580  -12.4660 O.2   764  PLP764     -0.2224
     15  O3P       30.1140  -47.0660  -12.0940 O.3   764  PLP764     -0.1145
@<TRIPOS>BOND
     1    14    12    2
     2    15    12    1
     3     7     6    1
     4    12    11    1
     5    12    13    1
     6     5     4    1
     7    11    10    1
     8     6     4   ar
     9     6     8   ar
    10     4     2   ar
    11    10     8    1
    12     8     9   ar
    13     2     3    1
    14     2     1   ar
    15     9     1   ar
