@<TRIPOS>MOLECULE
1p43_2PG_A_1.pdb
 11 10 0 0 0
SMALL
GASTEIGER

@<TRIPOS>ATOM
      1  C1        24.3430   40.4880    7.4720 C.2   441  2PG441      0.3946
      2  C2        23.1050   39.8350    8.2010 C.3   441  2PG441      0.2610
      3  C3        23.5300   38.9400    9.4500 C.3   441  2PG441      0.2237
      4  P         20.7620   41.0150    7.7820 P.3   441  2PG441      0.5331
      5  O1        24.3360   41.7350    7.2530 O.co2 441  2PG441     -0.2428
      6  O2        25.3080   39.7320    7.1170 O.co2 441  2PG441     -0.2428
      7  O3        24.7440   39.3670   10.1780 O.3   441  2PG441     -0.2170
      8  O1P       22.1940   40.8590    8.6170 O.3   441  2PG441     -0.2583
      9  O2P       20.0990   39.7060    7.9910 O.3   441  2PG441     -0.1145
     10  O3P       21.0950   41.2970    6.2850 O.2   441  2PG441     -0.2224
     11  O4P       19.9610   42.1920    8.4140 O.3   441  2PG441     -0.1145
@<TRIPOS>BOND
     1    10     4    2
     2     6     1   ar
     3     5     1   ar
     4     1     2    1
     5     4     9    1
     6     4    11    1
     7     4     8    1
     8     2     8    1
     9     2     3    1
    10     3     7    1
