@<TRIPOS>MOLECULE
1p44_NAD_A_1.pdb
 44 48 0 0 0
SMALL
GASTEIGER

@<TRIPOS>ATOM
      1  PA        19.5920   12.0810   16.2580 P.3   300  NAD300      0.2189
      2  O1A       20.5600   12.7660   15.2270 O.2   300  NAD300     -0.5170
      3  O2A       19.5250   12.8630   17.5380 O.3   300  NAD300     -0.4371
      4  O5B       20.1310   10.5870   16.4950 O.3   300  NAD300     -0.3112
      5  C5B       20.6600    9.6790   15.4800 C.3   300  NAD300      0.1813
      6  C4B       21.8290    8.9650   16.1250 C.3   300  NAD300      0.1821
      7  O4B       22.4170    8.0660   15.2230 O.3   300  NAD300     -0.3135
      8  C3B       23.0580    9.7860   16.5490 C.3   300  NAD300      0.2184
      9  O3B       23.0370   10.8820   17.4980 O.3   300  NAD300     -0.2174
     10  C2B       24.0480    8.6660   16.9290 C.3   300  NAD300      0.2570
     11  O2B       24.2990    8.3040   18.3540 O.3   300  NAD300     -0.2130
     12  C1B       23.5080    7.5100   15.9660 C.3   300  NAD300      0.3186
     13  N9A       24.5320    7.0990   15.0350 N.pl3 300  NAD300     -0.1439
     14  C8A       24.9500    7.7600   13.9210 C.3   300  NAD300      0.3377
     15  N7A       25.9120    7.1180   13.2670 N.2   300  NAD300     -0.2095
     16  C5A       26.1180    5.9560   14.0320 C.2   300  NAD300      0.2526
     17  C6A       26.9150    4.8030   14.0340 C.2   300  NAD300      0.4393
     18  N6A       27.8060    4.5340   13.1300 N.pl3 300  NAD300      0.2180
     19  N1A       26.8690    3.8050   14.9750 N.2   300  NAD300      0.0021
     20  C2A       26.0160    3.8910   15.9900 C.3   300  NAD300      0.5254
     21  N3A       25.1590    4.9330   16.1590 N.2   300  NAD300     -0.0055
     22  C4A       25.2410    5.9450   15.1590 C.2   300  NAD300      0.3518
     23  O3        18.2400   12.1090   15.5110 O.3   300  NAD300     -0.2703
     24  PN        16.9190   11.5720   15.9840 P.3   300  NAD300      0.2189
     25  O1N       15.9190   12.6250   15.5250 O.2   300  NAD300     -0.5170
     26  O2N       16.7530   11.4250   17.4990 O.3   300  NAD300     -0.4371
     27  O5D       16.4270   10.3900   15.1370 O.3   300  NAD300     -0.3112
     28  C5D       17.0280    9.1050   15.3210 C.3   300  NAD300      0.1813
     29  C4D       16.4220    8.0570   14.3850 C.3   300  NAD300      0.1799
     30  O4D       15.0310    8.3350   14.1840 O.3   300  NAD300     -0.3327
     31  C3D       17.1280    8.0330   12.9880 C.3   300  NAD300      0.2158
     32  O3D       17.2950    6.6420   12.5100 O.3   300  NAD300     -0.2175
     33  C2D       16.1710    8.9390   12.2270 C.3   300  NAD300      0.2309
     34  O2D       16.2490    8.9890   10.7650 O.3   300  NAD300     -0.2158
     35  C1D       14.7950    8.4740   12.8140 C.3   300  NAD300      0.2263
     36  N1N       13.6060    9.4120   12.6920 N.pl3 300  NAD300     -0.2787
     37  C2N       13.6750   10.8120   12.8160 C.3   300  NAD300      0.1244
     38  C3N       12.4990   11.6390   12.6630 C.2   300  NAD300      0.0544
     39  C7N       12.4900   13.1210   12.7730 C.2   300  NAD300      0.2818
     40  O7N       11.5050   13.8170   12.6390 O.2   300  NAD300     -0.2670
     41  N7N       13.5920   13.7630   13.0250 N.am  300  NAD300     -0.0839
     42  C4N       11.2470   10.9640   12.3810 C.2   300  NAD300      0.0033
     43  C5N       11.1920    9.5560   12.2630 C.2   300  NAD300      0.0157
     44  C6N       12.3830    8.8220   12.4220 C.2   300  NAD300      0.0633
@<TRIPOS>BOND
     1    34    33    1
     2    33    35    1
     3    33    31    1
     4    43    42    1
     5    43    44    2
     6    42    38    2
     7    44    36    1
     8    32    31    1
     9    40    39    2
    10    38    39    1
    11    38    37    1
    12    36    35    1
    13    36    37    1
    14    39    41   am
    15    35    30    1
    16    31    29    1
    17    18    17    1
    18    15    14    1
    19    15    16    2
    20    14    13    1
    21    16    17    1
    22    16    22    1
    23    17    19    2
    24    30    29    1
    25    29    28    1
    26    19    20    1
    27    13    22    1
    28    13    12    1
    29    27    28    1
    30    27    24    1
    31    22    21    2
    32     7    12    1
    33     7     6    1
    34     2     1    2
    35     5     6    1
    36     5     4    1
    37    23    24    1
    38    23     1    1
    39    25    24    2
    40    12    10    1
    41    24    26    1
    42    20    21    1
    43     6     8    1
    44     1     4    1
    45     1     3    1
    46     8    10    1
    47     8     9    1
    48    10    11    1
