@<TRIPOS>MOLECULE
1p44_GEQ_A_1.pdb
 30 35 0 0 0
SMALL
GASTEIGER

@<TRIPOS>ATOM
      1  C1A       17.6540   11.9710    9.9950 C.2   350  GEQ350     -0.0114
      2  C2A       16.5270   12.5240   10.6790 C.3   350  GEQ350      0.1206
      3  C3A       16.6890   13.1250   11.9680 C.2   350  GEQ350     -0.0114
      4  C4A       17.9520   13.1930   12.5940 C.2   350  GEQ350      0.0153
      5  C5A       19.0470   12.6380   11.8970 C.2   350  GEQ350      0.0808
      6  C6A       18.9100   12.0400   10.6310 C.2   350  GEQ350      0.0157
      7  C7A       20.1770   11.6090   10.2580 C.2   350  GEQ350      0.0218
      8  C8A       21.0320   11.9630   11.3130 C.2   350  GEQ350      0.0989
      9  N9A       20.3280   12.5810   12.2870 N.2   350  GEQ350     -0.2439
     10  C1B       15.1660   12.4420    9.9910 C.2   350  GEQ350      0.2335
     11  O2B       14.7520   11.2970    9.8270 O.2   350  GEQ350     -0.2742
     12  N1C       14.4320   13.5550    9.5720 N.am  350  GEQ350     -0.2762
     13  C2C       13.0610   13.3470    9.0980 C.3   350  GEQ350      0.1108
     14  C3C       12.7130   14.4340    8.0580 C.3   350  GEQ350      0.0944
     15  N4C       12.7580   15.8270    8.6660 N.3   350  GEQ350     -0.2638
     16  C5C       13.7880   16.0020    9.7680 C.3   350  GEQ350      0.0944
     17  C6C       14.9380   14.9320    9.7390 C.3   350  GEQ350      0.1108
     18  C1D       12.8990   16.9440    7.6320 C.3   350  GEQ350      0.1031
     19  C1E       11.7250   16.9240    6.6450 C.ar  350  GEQ350     -0.0036
     20  C2E       10.3370   16.9530    6.9600 C.ar  350  GEQ350     -0.0026
     21  C3E        9.3880   16.9240    5.8930 C.ar  350  GEQ350     -0.0003
     22  C4E        9.8260   16.8670    4.5360 C.ar  350  GEQ350     -0.0000
     23  C5E       11.2140   16.8400    4.2150 C.ar  350  GEQ350     -0.0003
     24  C6E       12.1550   16.8690    5.2880 C.ar  350  GEQ350     -0.0026
     25  C1F       14.0510   16.8980    6.5810 C.ar  350  GEQ350     -0.0036
     26  C2F       15.4700   16.8990    6.8060 C.ar  350  GEQ350     -0.0026
     27  C3F       16.3540   16.8530    5.6850 C.ar  350  GEQ350     -0.0003
     28  C4F       15.8430   16.8050    4.3550 C.ar  350  GEQ350     -0.0000
     29  C5F       14.4340   16.8040    4.1240 C.ar  350  GEQ350     -0.0003
     30  C6F       13.5520   16.8530    5.2520 C.ar  350  GEQ350     -0.0026
@<TRIPOS>BOND
     1    29    28   ar
     2    29    30   ar
     3    23    22   ar
     4    23    24   ar
     5    28    27   ar
     6    22    21   ar
     7    30    24    1
     8    30    25   ar
     9    24    19   ar
    10    27    26   ar
    11    21    20   ar
    12    25    26   ar
    13    25    18    1
    14    19    20   ar
    15    19    18    1
    16    18    15    1
    17    14    15    1
    18    14    13    1
    19    15    16    1
    20    13    12    1
    21    12    17    1
    22    12    10   am
    23    17    16    1
    24    11    10    2
    25    10     2    1
    26     1     6    2
    27     1     2    1
    28     7     6    1
    29     7     8    2
    30     6     5    1
    31     2     3    1
    32     8     9    1
    33     5     9    2
    34     5     4    1
    35     3     4    2
