@<TRIPOS>MOLECULE
1p45_TCL_A_1.pdb
 17 18 0 0 0
SMALL
GASTEIGER

@<TRIPOS>ATOM
      1  C1         4.9610   10.8370   35.8930 C.ar  400  TCL400      0.0566
      2  C2         4.5390   10.6950   37.2180 C.ar  400  TCL400      0.0611
      3  C6         5.5990    9.7810   35.2470 C.ar  400  TCL400      0.2307
      4  C5         5.7820    8.5610   35.9840 C.ar  400  TCL400      0.1840
      5  C4         5.3620    8.4390   37.2960 C.ar  400  TCL400      0.0417
      6  C3         4.7240    9.4920   37.9270 C.ar  400  TCL400      0.0147
      7  C11       10.5710    6.4720   35.9550 C.ar  400  TCL400      0.0587
      8  C10        9.6710    5.5820   35.3110 C.ar  400  TCL400      0.0259
      9  C9         8.3720    6.0090   35.1790 C.ar  400  TCL400      0.0929
     10  C8         7.8340    7.2620   35.6280 C.ar  400  TCL400      0.1559
     11  C12       10.0990    7.7320   36.4040 C.ar  400  TCL400      0.0146
     12  C13        8.7300    8.1280   36.2580 C.ar  400  TCL400      0.0392
     13  O7         6.4350    7.5080   35.3670 O.3   400  TCL400     -0.4494
     14 CL14        3.7840   12.0520   37.9840 Cl    400  TCL400     -0.0821
     15 CL15       12.2340    6.1020   36.2280 Cl    400  TCL400     -0.0822
     16 CL16        7.2960    4.9500   34.3990 Cl    400  TCL400     -0.0790
     17  O17        6.0140    9.9170   33.9890 O.3   400  TCL400     -0.2833
@<TRIPOS>BOND
     1    17     3    1
     2    16     9    1
     3     9     8   ar
     4     9    10   ar
     5     3     1   ar
     6     3     4   ar
     7     8     7   ar
     8    13    10    1
     9    13     4    1
    10    10    12   ar
    11     1     2   ar
    12     7    15    1
    13     7    11   ar
    14     4     5   ar
    15    12    11   ar
    16     2     6   ar
    17     2    14    1
    18     5     6   ar
