@<TRIPOS>MOLECULE
1p45_NAD_A_1.pdb
 44 48 0 0 0
SMALL
GASTEIGER

@<TRIPOS>ATOM
      1  PA         5.4620    1.3280   35.5960 P.3   300  NAD300      0.2189
      2  O1A        6.6780    1.1980   36.3820 O.3   300  NAD300     -0.4371
      3  O2A        4.3220    0.3700   36.0420 O.2   300  NAD300     -0.5170
      4  O5B        5.6750    1.1010   34.0220 O.3   300  NAD300     -0.3112
      5  C5B        6.9140    1.1830   33.3870 C.3   300  NAD300      0.1813
      6  C4B        7.0360    0.0770   32.3490 C.3   300  NAD300      0.1821
      7  O4B        8.2190    0.4340   31.6060 O.3   300  NAD300     -0.3135
      8  C3B        7.2440   -1.3100   33.0130 C.3   300  NAD300      0.2184
      9  O3B        6.7170   -2.4320   32.3260 O.3   300  NAD300     -0.2174
     10  C2B        8.7480   -1.3620   32.9130 C.3   300  NAD300      0.2570
     11  O2B        9.1940   -2.6390   32.9420 O.3   300  NAD300     -0.2130
     12  C1B        8.9200   -0.7740   31.5190 C.3   300  NAD300      0.3186
     13  N9A       10.2540   -0.6830   30.9520 N.pl3 300  NAD300     -0.1439
     14  C8A       11.3810    0.0200   31.3100 C.3   300  NAD300      0.3377
     15  N7A       12.3520   -0.2570   30.3770 N.2   300  NAD300     -0.2095
     16  C5A       11.8290   -1.1080   29.4330 C.2   300  NAD300      0.2526
     17  C6A       12.3500   -1.6510   28.3000 C.2   300  NAD300      0.4393
     18  N6A       13.6290   -1.3950   27.9260 N.pl3 300  NAD300      0.2180
     19  N1A       11.5170   -2.4450   27.5550 N.2   300  NAD300      0.0021
     20  C2A       10.2130   -2.6650   27.9030 C.3   300  NAD300      0.5254
     21  N3A        9.6990   -2.0940   29.0330 N.2   300  NAD300     -0.0055
     22  C4A       10.5130   -1.3430   29.7800 C.2   300  NAD300      0.3518
     23  O3         4.7970    2.7850   35.8360 O.3   300  NAD300     -0.2703
     24  PN         3.4680    3.2210   35.0350 P.3   300  NAD300      0.2189
     25  O1N        2.6050    2.1140   34.4370 O.2   300  NAD300     -0.5170
     26  O2N        2.8780    4.3120   35.7950 O.3   300  NAD300     -0.4371
     27  O5D        4.3300    3.9270   33.8720 O.3   300  NAD300     -0.3112
     28  C5D        3.7950    3.6300   32.6100 C.3   300  NAD300      0.1813
     29  C4D        3.7390    4.7740   31.6070 C.3   300  NAD300      0.1799
     30  O4D        2.7990    5.7460   31.9610 O.3   300  NAD300     -0.3327
     31  C3D        5.0410    5.5020   31.4150 C.3   300  NAD300      0.2158
     32  O3D        4.9910    6.1790   30.1760 O.3   300  NAD300     -0.2175
     33  C2D        4.9540    6.5900   32.4210 C.3   300  NAD300      0.2309
     34  O2D        5.9640    7.4940   32.1060 O.3   300  NAD300     -0.2158
     35  C1D        3.5250    6.9660   32.1060 C.3   300  NAD300      0.2263
     36  N1N        2.8910    7.8060   33.1150 N.pl3 300  NAD300     -0.2787
     37  C2N        2.7750    7.3840   34.3800 C.3   300  NAD300      0.1244
     38  C3N        2.1530    8.2150   35.3030 C.2   300  NAD300      0.0544
     39  C7N        2.0320    7.7740   36.7270 C.2   300  NAD300      0.2818
     40  O7N        1.4400    8.5340   37.7220 O.2   300  NAD300     -0.2670
     41  N7N        2.4510    6.6340   37.0860 N.am  300  NAD300     -0.0839
     42  C4N        1.6300    9.4700   34.9080 C.2   300  NAD300      0.0033
     43  C5N        1.7460    9.8730   33.5910 C.2   300  NAD300      0.0157
     44  C6N        2.3840    9.0120   32.7120 C.2   300  NAD300      0.0633
@<TRIPOS>BOND
     1    19    20    1
     2    19    17    2
     3    20    21    1
     4    18    17    1
     5    17    16    1
     6    21    22    2
     7    16    22    1
     8    16    15    2
     9    22    13    1
    10    32    31    1
    11    15    14    1
    12    13    14    1
    13    13    12    1
    14    31    29    1
    15    31    33    1
    16    12     7    1
    17    12    10    1
    18     7     6    1
    19    29    30    1
    20    29    28    1
    21    30    35    1
    22    35    33    1
    23    35    36    1
    24    34    33    1
    25     9     8    1
    26     6     8    1
    27     6     5    1
    28    28    27    1
    29    44    36    1
    30    44    43    2
    31    10    11    1
    32    10     8    1
    33    36    37    1
    34     5     4    1
    35    43    42    1
    36    27    24    1
    37     4     1    1
    38    37    38    1
    39    25    24    2
    40    42    38    2
    41    24    26    1
    42    24    23    1
    43    38    39    1
    44     1    23    1
    45     1     3    2
    46     1     2    1
    47    39    41   am
    48    39    40    2
