@<TRIPOS>MOLECULE
1p48_PEP_A_1.pdb
 10 9 0 0 0
SMALL
GASTEIGER

@<TRIPOS>ATOM
      1  C1        24.6900   40.6560    7.2630 C.2   440  PEP440      0.4216
      2  O1        25.6770   39.8900    6.9730 O.co2 440  PEP440     -0.2371
      3  O2'       24.5660   41.7760    6.8040 O.co2 440  PEP440     -0.2371
      4  C2        23.6800   40.0450    8.2240 C.2   440  PEP440      0.2283
      5  C3        23.6720   38.8200    8.8290 C.2   440  PEP440      0.0477
      6  O2        22.6070   40.8830    8.5130 O.2   440  PEP440     -0.3930
      7  P         21.2160   40.8380    7.7590 P.3   440  PEP440      0.5889
      8  O1P       21.5320   41.0830    6.2890 O.2   440  PEP440     -0.2114
      9  O2P       20.4020   41.9070    8.4040 O.3   440  PEP440     -0.1039
     10  O3P       20.6870   39.4620    7.8830 O.3   440  PEP440     -0.1039
@<TRIPOS>BOND
     1     8     7    2
     2     3     1   ar
     3     2     1   ar
     4     1     4    1
     5     7    10    1
     6     7     9    1
     7     7     6    1
     8     4     6    1
     9     4     5    2
