@<TRIPOS>MOLECULE
1p4a_PCP_A_1.pdb
 22 22 0 0 0
SMALL
GASTEIGER

@<TRIPOS>ATOM
      1  C1        44.4920   80.6150   61.2930 C.3   604  PCP604      0.1547
      2  C2        44.7580   79.1680   61.6750 C.3   604  PCP604      0.2094
      3  C3        45.7350   79.1700   62.8400 C.3   604  PCP604      0.1870
      4  C4        46.0880   80.6170   63.1550 C.3   604  PCP604      0.0658
      5  C5        45.3360   81.5140   62.1830 C.3   604  PCP604      0.0379
      6  CP        47.5820   80.8690   63.0300 C.3   604  PCP604      0.1564
      7  O1        43.1170   80.8970   61.5070 O.3   604  PCP604     -0.3136
      8  O2        45.3000   78.4760   60.5630 O.3   604  PCP604     -0.2178
      9  O3        46.9040   78.4340   62.5120 O.3   604  PCP604     -0.2202
     10  OP        48.1220   81.1720   64.3130 O.3   604  PCP604     -0.2702
     11  P         48.7510   80.0180   65.2390 P.3   604  PCP604      0.5326
     12  O1P       47.5780   79.5290   66.0450 O.3   604  PCP604     -0.1145
     13  O2P       49.3110   79.0140   64.2630 O.2   604  PCP604     -0.2224
     14  O3P       49.7940   80.7290   66.0620 O.3   604  PCP604     -0.1145
     15  PA        42.0220   80.4500   60.4180 P.3   604  PCP604      0.2230
     16  O1A       42.7370   80.1520   59.1210 O.2   604  PCP604     -0.5169
     17  O2A       41.1290   79.4040   61.0430 O.3   604  PCP604     -0.4370
     18  O3A       41.1850   81.8130   60.2410 O.3   604  PCP604     -0.2261
     19  PB        39.6090   81.7990   59.9310 P.3   604  PCP604      0.5373
     20  O1B       38.9720   81.3990   61.2390 O.3   604  PCP604     -0.1143
     21  O2B       39.4620   80.7790   58.8320 O.2   604  PCP604     -0.2221
     22  O3B       39.3440   83.2190   59.4990 O.3   604  PCP604     -0.1143
@<TRIPOS>BOND
     1    21    19    2
     2    16    15    2
     3    22    19    1
     4    19    18    1
     5    19    20    1
     6    18    15    1
     7    15    17    1
     8    15     7    1
     9     8     2    1
    10     1     7    1
    11     1     2    1
    12     1     5    1
    13     2     3    1
    14     5     4    1
    15     9     3    1
    16     3     4    1
    17     6     4    1
    18     6    10    1
    19    13    11    2
    20    10    11    1
    21    11    12    1
    22    11    14    1
