@<TRIPOS>MOLECULE
1p4c_FMN_A_1.pdb
 31 33 0 0 0
SMALL
GASTEIGER

@<TRIPOS>ATOM
      1  N1        72.6210   82.4640   25.9610 N.2   490  FMN490     -0.2890
      2  C2        71.4510   81.9360   26.4560 C.1   490  FMN490      0.3669
      3  O2        71.3010   81.7120   27.5920 O.2   490  FMN490     -0.1744
      4  N3        70.3960   81.6280   25.4890 N.2   490  FMN490     -0.2300
      5  C4        70.4530   81.8570   24.0780 C.1   490  FMN490      0.2513
      6  O4        69.5400   81.5780   23.3050 O.2   490  FMN490     -0.2057
      7  C4A       71.7400   82.4170   23.5680 C.2   490  FMN490      0.2700
      8  N5        71.9700   82.6090   22.2470 N.2   490  FMN490     -0.3878
      9  C5A       73.2370   82.9460   21.7700 C.2   490  FMN490      0.1320
     10  C6        73.4890   82.9930   20.3510 C.2   490  FMN490      0.0250
     11  C7        74.8270   83.2130   19.7920 C.2   490  FMN490     -0.0238
     12  C7M       75.0090   83.1870   18.3090 C.3   490  FMN490      0.0308
     13  C8        75.9970   83.4280   20.7590 C.2   490  FMN490     -0.0280
     14  C8M       77.4270   83.6120   20.3390 C.3   490  FMN490      0.0304
     15  C9        75.7220   83.4230   22.1480 C.2   490  FMN490     -0.0041
     16  C9A       74.3950   83.1760   22.7310 C.3   490  FMN490      0.1497
     17  N10       74.0640   83.0580   24.1540 N.pl3 490  FMN490     -0.2691
     18  C10       72.7890   82.6690   24.6520 C.2   490  FMN490      0.2416
     19  C1'       75.1530   83.2770   25.1310 C.3   490  FMN490      0.1294
     20  C2'       75.9370   82.0030   25.4110 C.3   490  FMN490      0.2044
     21  O2'       75.2320   81.1290   26.2000 O.3   490  FMN490     -0.2185
     22  C3'       77.2520   82.2660   26.1190 C.3   490  FMN490      0.2164
     23  O3'       76.9920   83.1310   27.2860 O.3   490  FMN490     -0.2175
     24  C4'       78.2960   83.0430   25.3340 C.3   490  FMN490      0.2147
     25  O4'       78.3770   82.6280   23.9850 O.3   490  FMN490     -0.2176
     26  C5'       79.6300   82.8150   25.9930 C.3   490  FMN490      0.1892
     27  O5'       80.7230   83.5100   25.3130 O.3   490  FMN490     -0.2674
     28  P         81.6270   83.0470   24.1610 P.3   490  FMN490      0.5327
     29  O1P       82.8380   83.9420   24.1120 O.3   490  FMN490     -0.1145
     30  O2P       80.7810   83.1120   22.9160 O.2   490  FMN490     -0.2224
     31  O3P       81.9860   81.6380   24.5340 O.3   490  FMN490     -0.1145
@<TRIPOS>BOND
     1    12    11    1
     2    11    10    2
     3    11    13    1
     4    14    13    1
     5    10     9    1
     6    13    15    2
     7     9     8    2
     8     9    16    1
     9    15    16    1
    10     8     7    2
    11    16    17    1
    12    30    28    2
    13     6     5    2
    14     7     5    1
    15     7    18    1
    16    25    24    1
    17     5     4    2
    18    29    28    1
    19    17    18    1
    20    17    19    1
    21    28    31    1
    22    28    27    1
    23    18     1    2
    24    19    20    1
    25    27    26    1
    26    24    26    1
    27    24    22    1
    28    20    22    1
    29    20    21    1
    30     4     2    2
    31     1     2    2
    32    22    23    1
    33     2     3    2
