@<TRIPOS>MOLECULE
1p4f_DRG_A_1.pdb
 15 17 0 0 0
SMALL
GASTEIGER

@<TRIPOS>ATOM
      1  C4        25.5120   30.2070   12.3140 C.ar  295  DRG295      0.0410
      2  C14       24.4630   29.3320   12.0310 C.ar  295  DRG295      0.0223
      3  C5        23.4360   29.0990   13.1130 C.ar  295  DRG295      0.0016
      4  C6        22.2940   28.1420   12.7760 C.ar  295  DRG295      0.0001
      5  C11       22.2860   27.5120   11.4060 C.ar  295  DRG295      0.0015
      6  C7        21.2420   26.6420   11.1050 C.ar  295  DRG295      0.0000
      7  C8        21.1820   26.0280    9.8560 C.ar  295  DRG295      0.0000
      8  C9        22.1730   26.2920    8.9040 C.ar  295  DRG295      0.0000
      9  C10       23.2160   27.1600    9.2120 C.ar  295  DRG295      0.0016
     10  C12       23.2780   27.7760   10.4620 C.ar  295  DRG295      0.0194
     11  C13       24.3950   28.7130   10.7850 C.ar  295  DRG295      0.1029
     12  N1        25.3610   28.9590    9.8710 N.ar  295  DRG295     -0.1467
     13  N2        26.4110   29.8410   10.1500 N.ar  295  DRG295     -0.1296
     14  C3        26.4850   30.4530   11.3440 C.ar  295  DRG295      0.1911
     15  N3        27.5100   31.3020   11.6000 N.pl3 295  DRG295     -0.1053
@<TRIPOS>BOND
     1     8     9   ar
     2     8     7   ar
     3     9    10   ar
     4     7     6   ar
     5    12    13   ar
     6    12    11   ar
     7    13    14   ar
     8    10    11   ar
     9    10     5   ar
    10    11     2   ar
    11     6     5   ar
    12    14    15    1
    13    14     1   ar
    14     5     4   ar
    15     2     1   ar
    16     2     3   ar
    17     4     3   ar
