@<TRIPOS>MOLECULE
1p4g_CGF_A_1.pdb
 17 17 0 0 0
SMALL
GASTEIGER

@<TRIPOS>ATOM
      1  O5        33.6230   21.3060   27.8440 O.3   998  CGF998     -0.3244
      2  C1        33.9190   22.7370   27.5060 C.3   998  CGF998      0.3125
      3  C7        32.8680   23.7120   28.1900 C.2   998  CGF998      0.3128
      4  N7        32.6300   23.5740   29.4660 N.am  998  CGF998     -0.0838
      5  O7        32.2980   24.5550   27.5740 O.2   998  CGF998     -0.2667
      6  N1        35.1980   23.1370   28.0860 N.2   998  CGF998     -0.0612
      7  N2        35.4250   23.0410   29.2570 N.2   998  CGF998     -0.1636
      8  N3        35.6230   22.9080   30.4170 N.2   998  CGF998      0.0679
      9  C2        34.0950   22.9620   25.9570 C.3   998  CGF998      0.2424
     10  O2        34.3740   24.3220   25.6410 O.3   998  CGF998     -0.2149
     11  C3        32.7770   22.4690   25.2250 C.3   998  CGF998      0.2198
     12  O3        32.9150   22.6520   23.7880 O.3   998  CGF998     -0.2174
     13  C4        32.5250   20.9570   25.6240 C.3   998  CGF998      0.2144
     14  O4        31.3360   20.5430   24.9480 O.3   998  CGF998     -0.2176
     15  C5        32.3780   20.8390   27.2430 C.3   998  CGF998      0.1834
     16  C6        32.1510   19.3730   27.6900 C.3   998  CGF998      0.2142
     17  O6        33.2060   18.5860   27.1330 O.3   998  CGF998     -0.2176
@<TRIPOS>BOND
     1    12    11    1
     2    14    13    1
     3    11    13    1
     4    11     9    1
     5    13    15    1
     6    10     9    1
     7     9     2    1
     8    17    16    1
     9    15    16    1
    10    15     1    1
    11     2     1    1
    12     2     6    1
    13     2     3    1
    14     5     3    2
    15     6     7    2
    16     3     4   am
    17     7     8    2
