@<TRIPOS>MOLECULE
1p4g_PLP_A_1.pdb
 15 15 0 0 0
SMALL
GASTEIGER

@<TRIPOS>ATOM
      1  N1        24.5680   25.4540   30.1370 N.ar  999  PLP999     -0.2452
      2  C2        23.4540   24.7270   30.3760 C.ar  999  PLP999      0.0978
      3  C2A       22.5140   25.1740   31.4940 C.3   999  PLP999      0.0555
      4  C3        23.1970   23.6040   29.6150 C.ar  999  PLP999      0.2049
      5  O3        22.0230   22.8680   29.8370 O.3   999  PLP999     -0.2857
      6  C4        24.1040   23.2220   28.6280 C.ar  999  PLP999      0.0182
      7  C4A       23.8610   21.9200   27.8350 C.3   999  PLP999      0.0342
      8  C5        25.2480   23.9880   28.4240 C.ar  999  PLP999      0.0261
      9  C6        25.4450   25.0900   29.1740 C.ar  999  PLP999      0.0965
     10  C5A       26.2930   23.6900   27.3140 C.3   999  PLP999      0.1815
     11  O4P       25.8360   24.3680   26.1500 O.3   999  PLP999     -0.2653
     12  P         26.7730   24.6760   24.8950 P.3   999  PLP999      0.5329
     13  O1P       25.9380   25.3980   23.9420 O.2   999  PLP999     -0.2224
     14  O2P       27.8110   25.6630   25.4760 O.3   999  PLP999     -0.1145
     15  O3P       27.4590   23.4410   24.4710 O.3   999  PLP999     -0.1145
@<TRIPOS>BOND
     1    13    12    2
     2    15    12    1
     3    12    14    1
     4    12    11    1
     5    11    10    1
     6    10     8    1
     7     7     6    1
     8     8     6   ar
     9     8     9   ar
    10     6     4   ar
    11     9     1   ar
    12     4     5    1
    13     4     2   ar
    14     1     2   ar
    15     2     3    1
