@<TRIPOS>MOLECULE
1p4h_PLP_A_1.pdb
 15 15 0 0 0
SMALL
GASTEIGER

@<TRIPOS>ATOM
      1  N1        24.5870   25.4560   30.1110 N.ar  999  PLP999     -0.2452
      2  C2        23.4760   24.7390   30.3760 C.ar  999  PLP999      0.0978
      3  C2A       22.5550   25.2380   31.4380 C.3   999  PLP999      0.0555
      4  C3        23.2160   23.6160   29.6550 C.ar  999  PLP999      0.2049
      5  O3        22.0370   22.9230   29.8600 O.3   999  PLP999     -0.2857
      6  C4        24.1050   23.2500   28.6610 C.ar  999  PLP999      0.0182
      7  C4A       23.8120   22.0540   27.7870 C.3   999  PLP999      0.0342
      8  C5        25.2530   24.0100   28.4340 C.ar  999  PLP999      0.0261
      9  C6        25.4670   25.0810   29.1680 C.ar  999  PLP999      0.0965
     10  C5A       26.3130   23.7040   27.3200 C.3   999  PLP999      0.1815
     11  O4P       25.8880   24.4430   26.1890 O.3   999  PLP999     -0.2653
     12  P         26.7920   24.6120   24.8790 P.3   999  PLP999      0.5329
     13  O1P       25.9670   25.3320   23.9120 O.2   999  PLP999     -0.2224
     14  O2P       27.8110   25.6170   25.3990 O.3   999  PLP999     -0.1145
     15  O3P       27.4920   23.3720   24.4840 O.3   999  PLP999     -0.1145
@<TRIPOS>BOND
     1    13    12    2
     2    15    12    1
     3    12    14    1
     4    12    11    1
     5    11    10    1
     6    10     8    1
     7     7     6    1
     8     8     6   ar
     9     8     9   ar
    10     6     4   ar
    11     9     1   ar
    12     4     5    1
    13     4     2   ar
    14     1     2   ar
    15     2     3    1
