@<TRIPOS>MOLECULE
1p4h_CR6_A_1.pdb
 18 18 0 0 0
SMALL
GASTEIGER

@<TRIPOS>ATOM
      1  N1        31.7800   23.5280   28.6720 N.am  998  CR6998     -0.0841
      2  C2        34.0540   22.9000   26.0780 C.3   998  CR6998      0.2373
      3  O2        34.3590   24.2840   25.7900 O.3   998  CR6998     -0.2153
      4  C4        32.4460   21.0570   25.7270 C.3   998  CR6998      0.2144
      5  C5        32.2830   20.9510   27.2750 C.3   998  CR6998      0.1831
      6  C6        32.0540   19.4800   27.6920 C.3   998  CR6998      0.2142
      7  C1        33.9160   22.7970   27.5630 C.3   998  CR6998      0.2746
      8  C3        32.7620   22.4970   25.3630 C.3   998  CR6998      0.2194
      9  O3        32.9610   22.5800   23.9630 O.3   998  CR6998     -0.2174
     10  O4        31.2470   20.7110   25.0000 O.3   998  CR6998     -0.2176
     11  O5        33.5470   21.3690   27.8630 O.3   998  CR6998     -0.3280
     12  N2        35.2700   23.1360   28.0570 N.am  998  CR6998     -0.1710
     13  O6        33.1740   18.7420   27.0810 O.3   998  CR6998     -0.2176
     14  C7        35.5270   23.5250   29.3250 C.2   998  CR6998      0.2442
     15  O7        34.4600   23.6530   30.3100 O.2   998  CR6998     -0.2732
     16  C8        36.6890   23.7920   29.6880 C.3   998  CR6998      0.0965
     17  C9        32.9490   23.8770   28.0970 C.2   998  CR6998      0.3076
     18  O9        33.2650   25.1220   27.9790 O.2   998  CR6998     -0.2671
@<TRIPOS>BOND
     1     9     8    1
     2    10     4    1
     3     8     4    1
     4     8     2    1
     5     4     5    1
     6     3     2    1
     7     2     7    1
     8    13     6    1
     9     5     6    1
    10     5    11    1
    11     7    11    1
    12     7    12    1
    13     7    17    1
    14    18    17    2
    15    12    14   am
    16    17     1   am
    17    14    16    1
    18    14    15    2
