@<TRIPOS>MOLECULE
1p4j_PLP_A_1.pdb
 15 15 0 0 0
SMALL
GASTEIGER

@<TRIPOS>ATOM
      1  N1        24.6630   25.7030   30.2110 N.ar  999  PLP999     -0.2452
      2  C2        23.5610   24.9610   30.4900 C.ar  999  PLP999      0.0978
      3  C2A       22.6320   25.4100   31.6360 C.3   999  PLP999      0.0555
      4  C3        23.3130   23.8200   29.7720 C.ar  999  PLP999      0.2049
      5  O3        22.1540   23.0820   30.0260 O.3   999  PLP999     -0.2857
      6  C4        24.2010   23.4320   28.7790 C.ar  999  PLP999      0.0182
      7  C4A       23.8540   22.2090   27.8600 C.3   999  PLP999      0.0342
      8  C5        25.3300   24.2040   28.5390 C.ar  999  PLP999      0.0261
      9  C6        25.5300   25.3310   29.2540 C.ar  999  PLP999      0.0965
     10  C5A       26.3380   23.9070   27.3940 C.3   999  PLP999      0.1815
     11  O4P       25.9040   24.6030   26.2190 O.3   999  PLP999     -0.2653
     12  P         26.8710   24.8590   24.9150 P.3   999  PLP999      0.5329
     13  O1P       26.0370   25.5980   23.9670 O.2   999  PLP999     -0.2224
     14  O2P       27.9340   25.8390   25.4810 O.3   999  PLP999     -0.1145
     15  O3P       27.5550   23.6000   24.5200 O.3   999  PLP999     -0.1145
@<TRIPOS>BOND
     1    13    12    2
     2    15    12    1
     3    12    14    1
     4    12    11    1
     5    11    10    1
     6    10     8    1
     7     7     6    1
     8     8     6   ar
     9     8     9   ar
    10     6     4   ar
    11     9     1   ar
    12     4     5    1
    13     4     2   ar
    14     1     2   ar
    15     2     3    1
