@<TRIPOS>MOLECULE
1p4j_CBF_A_1.pdb
 15 15 0 0 0
SMALL
GASTEIGER

@<TRIPOS>ATOM
      1  O6        33.3440   18.7840   27.2540 O.3   998  CBF998     -0.2176
      2  C6        32.2450   19.4900   27.7960 C.3   998  CBF998      0.2142
      3  C5        32.3310   20.9740   27.4350 C.3   998  CBF998      0.1839
      4  O5        33.4270   21.5780   28.1440 O.3   998  CBF998     -0.3208
      5  C1        33.5530   22.9940   27.9300 C.3   998  CBF998      0.3219
      6  O1        32.3500   23.6550   28.2690 O.3   998  CBF998     -0.1824
      7  C7        34.6640   23.5360   28.8230 C.2   998  CBF998      0.3177
      8  O7        34.3480   24.1460   29.8490 O.2   998  CBF998     -0.2662
      9  N1        35.9200   23.1850   28.5690 N.am  998  CBF998     -0.0834
     10  C2        33.8680   23.2410   26.4490 C.3   998  CBF998      0.2473
     11  O2        33.9920   24.6260   26.1980 O.3   998  CBF998     -0.2144
     12  C3        32.7500   22.6380   25.5850 C.3   998  CBF998      0.2203
     13  O3        33.0690   22.7620   24.2150 O.3   998  CBF998     -0.2174
     14  C4        32.5370   21.1590   25.9260 C.3   998  CBF998      0.2144
     15  O4        31.4180   20.6670   25.2200 O.3   998  CBF998     -0.2176
@<TRIPOS>BOND
     1    13    12    1
     2    15    14    1
     3    12    14    1
     4    12    10    1
     5    14     3    1
     6    11    10    1
     7    10     5    1
     8     1     2    1
     9     3     2    1
    10     3     4    1
    11     5     4    1
    12     5     6    1
    13     5     7    1
    14     9     7   am
    15     7     8    2
