@<TRIPOS>MOLECULE
1p4m_FMN_A_1.pdb
 31 33 0 0 0
SMALL
GASTEIGER

@<TRIPOS>ATOM
      1  N1        -1.7930   32.2870   20.8790 N.2   401  FMN401     -0.2887
      2  C2        -2.7240   31.7700   21.7770 C.1   401  FMN401      0.3669
      3  O2        -3.7710   31.2340   21.4140 O.2   401  FMN401     -0.1744
      4  N3        -2.4790   31.8270   23.1200 N.2   401  FMN401     -0.2300
      5  C4        -1.3190   32.3870   23.6070 C.1   401  FMN401      0.2513
      6  O4        -1.1230   32.3840   24.8190 O.2   401  FMN401     -0.2057
      7  C4A       -0.3880   32.9180   22.7230 C.2   401  FMN401      0.2706
      8  N5         0.7630   33.5010   23.1780 N.2   401  FMN401     -0.3841
      9  C5A        1.7080   34.0110   22.3040 C.2   401  FMN401      0.1452
     10  C6         2.8660   34.5850   22.8640 C.2   401  FMN401      0.0252
     11  C7         3.8610   35.1160   22.0500 C.2   401  FMN401     -0.0375
     12  C7M        5.0720   35.7150   22.6910 C.3   401  FMN401      0.0268
     13  C8         3.6980   35.0730   20.6540 C.3   401  FMN401      0.0417
     14  C8M        4.7530   35.6660   19.7410 C.3   401  FMN401      0.0091
     15  C9         2.5280   34.4970   20.1050 C.2   401  FMN401     -0.0049
     16  C9A        1.5100   33.9450   20.9170 C.2   401  FMN401      0.0795
     17  N10        0.3000   33.3740   20.4510 N.pl3 401  FMN401     -0.2545
     18  C10       -0.6130   32.8550   21.3530 C.2   401  FMN401      0.2449
     19  C1'        0.0200   33.2300   18.9750 C.3   401  FMN401      0.1336
     20  C2'        0.2910   34.2130   17.8650 C.3   401  FMN401      0.2048
     21  O2'       -0.5960   35.2900   18.0260 O.3   401  FMN401     -0.2185
     22  C3'       -0.0870   33.3980   16.6150 C.3   401  FMN401      0.2165
     23  O3'        0.6540   32.1910   16.5460 O.3   401  FMN401     -0.2175
     24  C4'        0.0450   34.1250   15.2800 C.3   401  FMN401      0.2147
     25  O4'       -0.8000   33.4960   14.3390 O.3   401  FMN401     -0.2176
     26  C5'        1.4820   34.1070   14.7620 C.3   401  FMN401      0.1892
     27  O5'        1.5510   33.3060   13.6040 O.3   401  FMN401     -0.2674
     28  P          1.5440   33.9750   12.1390 P.3   401  FMN401      0.5327
     29  O1P        2.9550   34.2780   11.7740 O.3   401  FMN401     -0.1145
     30  O2P        0.8480   33.0460   11.1070 O.2   401  FMN401     -0.2224
     31  O3P        0.7080   35.2780   12.2090 O.3   401  FMN401     -0.1145
@<TRIPOS>BOND
     1    30    28    2
     2    29    28    1
     3    28    31    1
     4    28    27    1
     5    27    26    1
     6    25    24    1
     7    26    24    1
     8    24    22    1
     9    23    22    1
    10    22    20    1
    11    20    21    1
    12    20    19    1
    13    19    17    1
    14    14    13    1
    15    15    13    1
    16    15    16    2
    17    17    16    1
    18    17    18    1
    19    13    11    1
    20     1    18    2
    21     1     2    2
    22    16     9    1
    23    18     7    1
    24     3     2    2
    25     2     4    2
    26    11    12    1
    27    11    10    2
    28     9    10    1
    29     9     8    2
    30     7     8    2
    31     7     5    1
    32     4     5    2
    33     5     6    2
