@<TRIPOS>MOLECULE
1p4m_ADP_A_1.pdb
 27 29 0 0 0
SMALL
GASTEIGER

@<TRIPOS>ATOM
      1  PB         5.3520   33.8840    8.6210 P.3   301  ADP301      0.5373
      2  O1B        5.1430   33.3570    9.9830 O.3   301  ADP301     -0.1143
      3  O2B        6.7770   33.6240    8.1170 O.3   301  ADP301     -0.1143
      4  O3B        4.4090   33.2660    7.6170 O.2   301  ADP301     -0.2221
      5  PA         5.2910   36.5820    9.7240 P.3   301  ADP301      0.2231
      6  O1A        4.2920   37.6940    9.4480 O.2   301  ADP301     -0.5169
      7  O2A        5.2020   36.0370   11.1330 O.3   301  ADP301     -0.4370
      8  O3A        5.0790   35.4800    8.5860 O.3   301  ADP301     -0.2261
      9  O5'        6.7570   37.1870    9.5040 O.3   301  ADP301     -0.3111
     10  C5'        7.8940   36.4060    9.8630 C.3   301  ADP301      0.1813
     11  C4'        9.0710   36.8840    9.0640 C.3   301  ADP301      0.1821
     12  O4'        9.3790   38.1850    9.4740 O.3   301  ADP301     -0.3135
     13  C3'       10.3560   36.0920    9.3750 C.3   301  ADP301      0.2184
     14  O3'       10.4830   34.9110    8.6090 O.3   301  ADP301     -0.2174
     15  C2'       11.4440   37.0850    9.0440 C.3   301  ADP301      0.2570
     16  O2'       11.8170   36.9730    7.6810 O.3   301  ADP301     -0.2130
     17  C1'       10.7840   38.4480    9.2940 C.3   301  ADP301      0.3186
     18  N9        11.2150   39.2040   10.4990 N.pl3 301  ADP301     -0.1439
     19  C8        11.6350   40.5140   10.4740 C.3   301  ADP301      0.3377
     20  N7        11.9190   40.9010   11.7310 N.2   301  ADP301     -0.2095
     21  C5        11.6760   39.8860   12.5840 C.2   301  ADP301      0.2526
     22  C6        11.7840   39.7590   13.9740 C.2   301  ADP301      0.4393
     23  N6        12.0030   40.8100   14.7910 N.pl3 301  ADP301      0.2180
     24  N1        11.4380   38.5370   14.5440 N.2   301  ADP301      0.0021
     25  C2        10.9960   37.4780   13.7730 C.3   301  ADP301      0.5254
     26  N3        10.9040   37.6250   12.4150 N.2   301  ADP301     -0.0055
     27  C4        11.2330   38.8090   11.8180 C.2   301  ADP301      0.3518
@<TRIPOS>BOND
     1     4     1    2
     2    16    15    1
     3     3     1    1
     4     8     1    1
     5     8     5    1
     6    14    13    1
     7     1     2    1
     8    15    17    1
     9    15    13    1
    10    11    13    1
    11    11    12    1
    12    11    10    1
    13    17    12    1
    14    17    18    1
    15     6     5    2
    16     9     5    1
    17     9    10    1
    18     5     7    1
    19    19    18    1
    20    19    20    1
    21    18    27    1
    22    20    21    2
    23    27    26    2
    24    27    21    1
    25    26    25    1
    26    21    22    1
    27    25    24    1
    28    22    24    2
    29    22    23    1
