@<TRIPOS>MOLECULE
1p50_ARG_A_1.pdb
 11 10 0 0 0
SMALL
GASTEIGER

@<TRIPOS>ATOM
      1  N         33.4710    5.4250   40.0410 N.3   403  ARG403     -0.1245
      2  CA        33.0010    6.4790   40.9330 C.3   403  ARG403      0.1563
      3  C         33.3880    6.2130   42.3860 C.2   403  ARG403      0.2260
      4  O         33.6930    5.0800   42.7520 O.2   403  ARG403     -0.2867
      5  CB        31.4760    6.6340   40.8280 C.3   403  ARG403      0.0307
      6  CG        30.6770    5.3990   41.2250 C.3   403  ARG403      0.0489
      7  CD        29.2570    5.7780   41.6180 C.3   403  ARG403      0.2205
      8  NE        28.6390    6.6680   40.6390 N.pl3 403  ARG403     -0.0865
      9  CZ        28.2640    6.2910   39.4250 C.cat 403  ARG403      0.5346
     10  NH1       28.4360    5.0350   39.0390 N.pl3 403  ARG403      0.1354
     11  NH2       27.7370    7.1720   38.5920 N.pl3 403  ARG403      0.1354
@<TRIPOS>BOND
     1    11     9    1
     2    10     9    1
     3     9     8    2
     4     1     2    1
     5     8     7    1
     6     5     2    1
     7     5     6    1
     8     2     3    1
     9     6     7    1
    10     3     4    2
