@<TRIPOS>MOLECULE
1p50_ADP_A_1.pdb
 27 29 0 0 0
SMALL
GASTEIGER

@<TRIPOS>ATOM
      1  PB        22.7090   10.4450   38.2280 P.3   400  ADP400      0.5373
      2  O1B       23.7740   10.1470   37.2320 O.2   400  ADP400     -0.2221
      3  O2B       21.5150   10.9850   37.5270 O.3   400  ADP400     -0.1143
      4  O3B       22.3200    9.2950   39.0670 O.3   400  ADP400     -0.1143
      5  PA        24.4960   12.5270   39.4050 P.3   400  ADP400      0.2231
      6  O1A       25.6340   12.0680   38.5610 O.2   400  ADP400     -0.5169
      7  O2A       24.8290   12.7110   40.8420 O.3   400  ADP400     -0.4370
      8  O3A       23.2270   11.5210   39.3130 O.3   400  ADP400     -0.2261
      9  O5'       23.9260   13.9490   38.9610 O.3   400  ADP400     -0.3111
     10  C5'       23.5070   14.1690   37.6530 C.3   400  ADP400      0.1813
     11  C4'       22.5420   15.3120   37.8950 C.3   400  ADP400      0.1821
     12  O4'       21.3870   14.9120   38.6350 O.3   400  ADP400     -0.3135
     13  C3'       23.1420   16.5060   38.6330 C.3   400  ADP400      0.2184
     14  O3'       22.9690   17.6740   37.7800 O.3   400  ADP400     -0.2174
     15  C2'       22.3290   16.5990   39.9250 C.3   400  ADP400      0.2570
     16  O2'       22.2120   17.9320   40.4760 O.3   400  ADP400     -0.2130
     17  C1'       21.0210   16.0600   39.3860 C.3   400  ADP400      0.3186
     18  N9        20.0120   15.7650   40.4190 N.pl3 400  ADP400     -0.1439
     19  C8        19.8210   14.6340   41.1230 C.3   400  ADP400      0.3377
     20  N7        18.7900   14.7660   41.9630 N.2   400  ADP400     -0.2095
     21  C5        18.3770   16.0020   41.7470 C.2   400  ADP400      0.2526
     22  C6        17.2230   16.5140   42.2910 C.2   400  ADP400      0.4393
     23  N6        16.5780   15.9100   43.2930 N.pl3 400  ADP400      0.2180
     24  N1        16.8490   17.7000   41.7770 N.2   400  ADP400      0.0021
     25  C2        17.5570   18.2930   40.8290 C.3   400  ADP400      0.5254
     26  N3        18.6690   17.8030   40.3140 N.2   400  ADP400     -0.0055
     27  C4        19.0930   16.6370   40.7770 C.2   400  ADP400      0.3518
@<TRIPOS>BOND
     1     2     1    2
     2     3     1    1
     3    10    11    1
     4    10     9    1
     5    14    13    1
     6    11    13    1
     7    11    12    1
     8     1     4    1
     9     1     8    1
    10     6     5    2
    11    13    15    1
    12    12    17    1
    13     9     5    1
    14     8     5    1
    15    17    15    1
    16    17    18    1
    17     5     7    1
    18    15    16    1
    19    26    27    2
    20    26    25    1
    21    18    27    1
    22    18    19    1
    23    27    21    1
    24    25    24    1
    25    19    20    1
    26    21    20    2
    27    21    22    1
    28    24    22    2
    29    22    23    1
