@<TRIPOS>MOLECULE
1p52_ADP_A_1.pdb
 27 29 0 0 0
SMALL
GASTEIGER

@<TRIPOS>ATOM
      1  PB        22.6530   10.2350   38.0910 P.3   400  ADP400      0.5373
      2  O1B       23.7380   10.0390   37.0800 O.2   400  ADP400     -0.2221
      3  O2B       21.4110   10.6440   37.3990 O.3   400  ADP400     -0.1143
      4  O3B       22.4100    9.0420   38.9590 O.3   400  ADP400     -0.1143
      5  PA        24.2960   12.3390   39.3380 P.3   400  ADP400      0.2231
      6  O1A       25.4220   11.9890   38.4200 O.2   400  ADP400     -0.5169
      7  O2A       24.6330   12.4480   40.7710 O.3   400  ADP400     -0.4370
      8  O3A       23.0170   11.3850   39.1240 O.3   400  ADP400     -0.2261
      9  O5'       23.6580   13.7750   38.9630 O.3   400  ADP400     -0.3111
     10  C5'       23.3460   14.1380   37.6330 C.3   400  ADP400      0.1813
     11  C4'       22.4770   15.3860   37.6700 C.3   400  ADP400      0.1821
     12  O4'       21.1800   15.1460   38.2590 O.3   400  ADP400     -0.3135
     13  C3'       23.1130   16.5080   38.4840 C.3   400  ADP400      0.2184
     14  O3'       22.9540   17.7210   37.7180 O.3   400  ADP400     -0.2174
     15  C2'       22.2760   16.6120   39.7420 C.3   400  ADP400      0.2570
     16  O2'       22.2670   17.9280   40.3540 O.3   400  ADP400     -0.2130
     17  C1'       20.9130   16.1850   39.2300 C.3   400  ADP400      0.3186
     18  N9        19.9680   15.7740   40.3260 N.pl3 400  ADP400     -0.1439
     19  C8        19.9240   14.6190   41.0300 C.3   400  ADP400      0.3377
     20  N7        18.8750   14.6390   41.8710 N.2   400  ADP400     -0.2095
     21  C5        18.2680   15.8110   41.6620 C.2   400  ADP400      0.2526
     22  C6        17.0470   16.2320   42.2190 C.2   400  ADP400      0.4393
     23  N6        16.3670   15.5830   43.1770 N.pl3 400  ADP400      0.2180
     24  N1        16.6060   17.4370   41.7960 N.2   400  ADP400      0.0021
     25  C2        17.2890   18.1380   40.8870 C.3   400  ADP400      0.5254
     26  N3        18.4310   17.7180   40.3320 N.2   400  ADP400     -0.0055
     27  C4        18.9490   16.5420   40.7240 C.2   400  ADP400      0.3518
@<TRIPOS>BOND
     1     2     1    2
     2     3     1    1
     3    10    11    1
     4    10     9    1
     5    11    12    1
     6    11    13    1
     7    14    13    1
     8     1     4    1
     9     1     8    1
    10    12    17    1
    11     6     5    2
    12    13    15    1
    13     9     5    1
    14     8     5    1
    15    17    15    1
    16    17    18    1
    17     5     7    1
    18    15    16    1
    19    18    27    1
    20    18    19    1
    21    26    27    2
    22    26    25    1
    23    27    21    1
    24    25    24    1
    25    19    20    1
    26    21    20    2
    27    21    22    1
    28    24    22    2
    29    22    23    1
