@<TRIPOS>MOLECULE
1p52_DAR_A_1.pdb
 11 10 0 0 0
SMALL
GASTEIGER

@<TRIPOS>ATOM
      1  N         33.3450    5.0900   40.0280 N.3   403  DAR403     -0.1245
      2  CA        32.9380    6.0800   41.0350 C.3   403  DAR403      0.1563
      3  CB        31.4270    6.3240   40.9740 C.3   403  DAR403      0.0307
      4  CG        30.5640    5.0750   41.1790 C.3   403  DAR403      0.0489
      5  CD        29.0920    5.4470   41.4910 C.3   403  DAR403      0.2205
      6  NE        28.5960    6.4470   40.5450 N.pl3 403  DAR403     -0.0865
      7  CZ        28.2360    6.2000   39.2890 C.cat 403  DAR403      0.5346
      8  NH1       28.2900    4.9630   38.7880 N.pl3 403  DAR403      0.1354
      9  NH2       27.8600    7.2090   38.5130 N.pl3 403  DAR403      0.1354
     10  C         33.3160    5.6510   42.4590 C.2   403  DAR403      0.2260
     11  O         33.5150    4.4580   42.7100 O.2   403  DAR403     -0.2867
@<TRIPOS>BOND
     1     9     7    1
     2     8     7    1
     3     7     6    2
     4     1     2    1
     5     6     5    1
     6     3     2    1
     7     3     4    1
     8     2    10    1
     9     4     5    1
    10    10    11    2
