@<TRIPOS>MOLECULE
1p57_CR4_B_1.pdb
 31 33 0 0 0
SMALL
GASTEIGER

@<TRIPOS>ATOM
      1  C1        16.3700   -6.1580   25.2670 C.2   346  CR4346      0.0492
      2  C2        15.4100   -5.1810   24.8180 C.3   346  CR4346      0.0224
      3  C3        15.0090   -4.0920   25.6180 C.2   346  CR4346     -0.0511
      4  C4        15.5910   -4.0250   26.8490 C.2   346  CR4346      0.0677
      5  C5        16.4990   -4.9170   27.3080 C.2   346  CR4346      0.1376
      6  C6        16.9190   -5.9940   26.5610 C.2   346  CR4346     -0.0111
      7  C7        16.7520   -7.2370   24.4510 C.2   346  CR4346      0.2628
      8  N1        17.8350   -7.9110   24.6850 N.pl3 346  CR4346     -0.2500
      9  N2        16.0360   -7.5980   23.4340 N.2   346  CR4346     -0.2887
     10  N3        15.4260   -3.1650   27.7850 N.pl3 346  CR4346     -0.2867
     11  N4        16.9240   -4.6450   28.5280 N.2   346  CR4346     -0.3862
     12  C8        16.2160   -3.5530   28.7520 C.2   346  CR4346      0.1862
     13  C1'       16.2960   -2.8690   29.9730 C.ar  346  CR4346      0.0739
     14  C2'       17.2840   -3.1240   30.9470 C.ar  346  CR4346     -0.0466
     15  C3'       17.2930   -2.4500   32.1550 C.ar  346  CR4346     -0.0608
     16  C4'       16.3110   -1.4950   32.4270 C.ar  346  CR4346     -0.0581
     17  C5'       15.3260   -1.2210   31.4800 C.ar  346  CR4346     -0.0142
     18  C6'       15.3250   -1.9020   30.2670 C.ar  346  CR4346      0.1904
     19  O6'       14.3680   -1.6370   29.3000 O.3   346  CR4346     -0.2871
     20  HC2       14.9740   -5.2750   23.8360 H     346  CR4346      0.0403
     21  HC3       14.2940   -3.3550   25.2920 H     346  CR4346      0.0598
     22  HC6       17.6410   -6.6950   26.9540 H     346  CR4346      0.0655
     23 HH11       18.4160   -7.6650   25.4590 H     346  CR4346      0.2883
     24 HH12       18.1080   -8.6460   24.0670 H     346  CR4346      0.2883
     25 HH21       15.2140   -7.0890   23.2060 H     346  CR4346      0.3009
     26 HH22       16.3220   -8.3650   22.8620 H     346  CR4346      0.3009
     27  HN3       14.8270   -2.3980   27.7730 H     346  CR4346      0.1546
     28 HC2'       18.0530   -3.8570   30.7560 H     346  CR4346      0.0626
     29 HC3'       18.0590   -2.6660   32.8850 H     346  CR4346      0.0618
     30 HC4'       16.3130   -0.9680   33.3700 H     346  CR4346      0.0619
     31 HC5'       14.5670   -0.4850   31.6860 H     346  CR4346      0.0656
@<TRIPOS>BOND
     1    26     9    1
     2    25     9    1
     3     9     7    2
     4    20     2    1
     5    24     8    1
     6     7     8    1
     7     7     1    1
     8     8    23    1
     9     2     1    1
    10     2     3    1
    11     1     6    2
    12    21     3    1
    13     3     4    2
    14     6    22    1
    15     6     5    1
    16     4     5    1
    17     4    10    1
    18     5    11    2
    19    27    10    1
    20    10    12    1
    21    11    12    2
    22    12    13    1
    23    19    18    1
    24    13    18   ar
    25    13    14   ar
    26    18    17   ar
    27    28    14    1
    28    14    15   ar
    29    17    31    1
    30    17    16   ar
    31    15    16   ar
    32    15    29    1
    33    16    30    1
