@<TRIPOS>MOLECULE
1p5b_FMN_A_1.pdb
 31 33 0 0 0
SMALL
GASTEIGER

@<TRIPOS>ATOM
      1  N1        72.0430   82.0200   26.0170 N.2   490  FMN490     -0.2890
      2  C2        70.8710   81.4930   26.5110 C.1   490  FMN490      0.3669
      3  O2        70.7150   81.2510   27.6180 O.2   490  FMN490     -0.1744
      4  N3        69.8210   81.2130   25.5110 N.2   490  FMN490     -0.2300
      5  C4        69.8820   81.4800   24.1090 C.1   490  FMN490      0.2513
      6  O4        68.9870   81.2060   23.3380 O.2   490  FMN490     -0.2057
      7  C4A       71.1600   82.0390   23.6090 C.2   490  FMN490      0.2700
      8  N5        71.4060   82.2510   22.2880 N.2   490  FMN490     -0.3878
      9  C5A       72.6860   82.5450   21.8110 C.2   490  FMN490      0.1320
     10  C6        72.9280   82.5770   20.3920 C.2   490  FMN490      0.0250
     11  C7        74.3160   82.7450   19.8510 C.2   490  FMN490     -0.0238
     12  C7M       74.5220   82.7050   18.3910 C.3   490  FMN490      0.0308
     13  C8        75.4930   82.9200   20.8480 C.2   490  FMN490     -0.0280
     14  C8M       76.9190   83.0540   20.4860 C.3   490  FMN490      0.0304
     15  C9        75.2160   82.9240   22.2150 C.2   490  FMN490     -0.0041
     16  C9A       73.8710   82.7300   22.7960 C.3   490  FMN490      0.1497
     17  N10       73.5180   82.6130   24.2150 N.pl3 490  FMN490     -0.2691
     18  C10       72.2190   82.2500   24.7130 C.2   490  FMN490      0.2416
     19  C1'       74.6090   82.7900   25.2010 C.3   490  FMN490      0.1294
     20  C2'       75.3880   81.4980   25.4850 C.3   490  FMN490      0.2044
     21  O2'       74.6490   80.6410   26.2600 O.3   490  FMN490     -0.2185
     22  C3'       76.7080   81.7690   26.1950 C.3   490  FMN490      0.2164
     23  O3'       76.4480   82.6260   27.3670 O.3   490  FMN490     -0.2175
     24  C4'       77.7590   82.5580   25.3930 C.3   490  FMN490      0.2147
     25  O4'       77.7980   82.0770   24.0490 O.3   490  FMN490     -0.2176
     26  C5'       79.0900   82.3290   26.0550 C.3   490  FMN490      0.1892
     27  O5'       80.1800   83.0160   25.3670 O.3   490  FMN490     -0.2674
     28  P         81.0520   82.4840   24.1910 P.3   490  FMN490      0.5327
     29  O1P       82.2650   83.3950   24.1500 O.3   490  FMN490     -0.1145
     30  O2P       80.2040   82.5650   22.9340 O.2   490  FMN490     -0.2224
     31  O3P       81.4260   81.0630   24.5350 O.3   490  FMN490     -0.1145
@<TRIPOS>BOND
     1    12    11    1
     2    11    10    2
     3    11    13    1
     4    10     9    1
     5    14    13    1
     6    13    15    2
     7     9     8    2
     8     9    16    1
     9    15    16    1
    10     8     7    2
    11    16    17    1
    12    30    28    2
    13     6     5    2
    14     7     5    1
    15     7    18    1
    16    25    24    1
    17     5     4    2
    18    29    28    1
    19    28    31    1
    20    28    27    1
    21    17    18    1
    22    17    19    1
    23    18     1    2
    24    19    20    1
    25    27    26    1
    26    24    26    1
    27    24    22    1
    28    20    22    1
    29    20    21    1
    30     4     2    2
    31     1     2    2
    32    22    23    1
    33     2     3    2
