@<TRIPOS>MOLECULE
1p5d_G1P_X_1.pdb
 16 16 0 0 0
SMALL
GASTEIGER

@<TRIPOS>ATOM
      1  C1       -48.1630  -14.2520   16.3570 C.3   658  G1P658      0.2781
      2  C2       -47.9010  -15.7370   16.2310 C.3   658  G1P658      0.2410
      3  C3       -47.1380  -16.0580   14.9430 C.3   658  G1P658      0.2198
      4  C4       -48.0040  -15.6380   13.7490 C.3   658  G1P658      0.2144
      5  C5       -48.4070  -14.1690   13.8610 C.3   658  G1P658      0.1835
      6  C6       -49.4590  -13.7730   12.7850 C.3   658  G1P658      0.2142
      7  O1       -46.9340  -13.5380   16.3790 O.3   658  G1P658     -0.2416
      8  O2       -47.1650  -16.2350   17.3830 O.3   658  G1P658     -0.2149
      9  O3       -46.8910  -17.4600   14.8820 O.3   658  G1P658     -0.2174
     10  O4       -47.2680  -15.7860   12.5420 O.3   658  G1P658     -0.2176
     11  O5       -48.9370  -13.8100   15.1880 O.3   658  G1P658     -0.3253
     12  O6       -50.4750  -14.7020   13.0930 O.3   658  G1P658     -0.2176
     13  P        -46.3090  -12.9250   17.7380 P.3   658  G1P658      0.5346
     14  O1P      -45.9110  -14.0960   18.6000 O.3   658  G1P658     -0.1145
     15  O2P      -47.3150  -12.0540   18.4230 O.3   658  G1P658     -0.1145
     16  O3P      -45.1070  -12.1880   17.2690 O.2   658  G1P658     -0.2223
@<TRIPOS>BOND
     1    10     4    1
     2     6    12    1
     3     6     5    1
     4     4     5    1
     5     4     3    1
     6     5    11    1
     7     9     3    1
     8     3     2    1
     9    11     1    1
    10     2     1    1
    11     2     8    1
    12     1     7    1
    13     7    13    1
    14    16    13    2
    15    13    15    1
    16    13    14    1
