@<TRIPOS>MOLECULE
1p5e_TBS_A_1.pdb
 13 14 0 0 0
SMALL
GASTEIGER

@<TRIPOS>ATOM
      1  C1         7.5360   44.8230   50.5680 C.2   301  TBS301      0.0318
      2  C2         8.5410   45.5200   51.1720 C.2   301  TBS301      0.0318
      3  C3         8.2050   46.4620   52.1060 C.3   301  TBS301      0.1286
      4  C4         6.2100   45.0570   50.8820 C.3   301  TBS301      0.1286
      5  N5         4.6190   46.4150   52.2920 N.ar  301  TBS301     -0.1306
      6  C6         5.8490   46.0040   51.8170 C.ar  301  TBS301      0.1134
      7  C7         6.9050   46.7440   52.4640 C.ar  301  TBS301      0.1134
      8  N8         6.3710   47.6480   53.3620 N.ar  301  TBS301     -0.1306
      9  N9         4.9620   47.4310   53.2410 N.ar  301  TBS301     -0.0426
     10 BR10        4.8580   44.0860   50.0300 Br    301  TBS301     -0.0697
     11 BR11        8.0720   43.5450   49.3110 Br    301  TBS301     -0.0522
     12 BR12       10.3490   45.1570   50.7170 Br    301  TBS301     -0.0522
     13 BR13        9.5980   47.3860   52.9010 Br    301  TBS301     -0.0697
@<TRIPOS>BOND
     1    11     1    1
     2    10     4    1
     3     1     4    1
     4     1     2    2
     5    12     2    1
     6     4     6    1
     7     2     3    1
     8     6     5   ar
     9     6     7   ar
    10     3     7    1
    11     3    13    1
    12     5     9   ar
    13     7     8   ar
    14     9     8   ar
