@<TRIPOS>MOLECULE
1p5g_G6P_X_1.pdb
 16 16 0 0 0
SMALL
GASTEIGER

@<TRIPOS>ATOM
      1  C1       -49.8140  -13.5120   14.1590 C.3   658  G6P658      0.3024
      2  C2       -48.9460  -13.9350   12.9920 C.3   658  G6P658      0.2434
      3  C3       -48.2920  -15.2900   13.3040 C.3   658  G6P658      0.2199
      4  C4       -47.5660  -15.2270   14.6730 C.3   658  G6P658      0.2143
      5  C5       -48.5220  -14.7030   15.7730 C.3   658  G6P658      0.1808
      6  C6       -47.8100  -14.5290   17.1120 C.3   658  G6P658      0.1859
      7  O1       -50.8750  -14.4530   14.3210 O.3   658  G6P658     -0.1869
      8  O2       -49.7650  -14.1020   11.7800 O.3   658  G6P658     -0.2148
      9  O3       -47.4230  -15.5780   12.2280 O.3   658  G6P658     -0.2174
     10  O4       -47.1560  -16.5150   14.9910 O.3   658  G6P658     -0.2176
     11  O5       -49.0260  -13.4370   15.3950 O.3   658  G6P658     -0.3237
     12  O6       -46.7920  -13.5080   16.9360 O.3   658  G6P658     -0.2675
     13  P        -46.0960  -12.9370   18.2540 P.3   658  G6P658      0.5327
     14  O1P      -45.6930  -14.0680   19.1540 O.3   658  G6P658     -0.1145
     15  O2P      -47.0780  -12.0490   18.9610 O.3   658  G6P658     -0.1145
     16  O3P      -44.9320  -12.1400   17.7340 O.2   658  G6P658     -0.2224
@<TRIPOS>BOND
     1     8     2    1
     2     9     3    1
     3     2     3    1
     4     2     1    1
     5     3     4    1
     6     1     7    1
     7     1    11    1
     8     4    10    1
     9     4     5    1
    10    11     5    1
    11     5     6    1
    12    12     6    1
    13    12    13    1
    14    16    13    2
    15    13    15    1
    16    13    14    1
