@<TRIPOS>MOLECULE
1p5r_COA_A_1.pdb
 48 50 0 0 0
SMALL
GASTEIGER

@<TRIPOS>ATOM
      1  N1A      -47.3210   13.9520   31.9180 N.2   501  COA501      0.0021
      2  C2A      -46.6100   12.8650   32.4270 C.3   501  COA501      0.5254
      3  N3A      -45.5190   12.3250   31.8850 N.2   501  COA501     -0.0055
      4  C4A      -45.1220   12.9400   30.7270 C.2   501  COA501      0.3518
      5  C5A      -45.7280   14.0280   30.1100 C.2   501  COA501      0.2526
      6  C6A      -46.9020   14.5650   30.7410 C.2   501  COA501      0.4393
      7  N6A      -47.5820   15.5830   30.2750 N.pl3 501  COA501      0.2180
      8  N7A      -45.0750   14.3800   28.9850 N.2   501  COA501     -0.2095
      9  C8A      -44.0720   13.5270   28.9030 C.3   501  COA501      0.3377
     10  N9A      -44.0330   12.6220   29.9230 N.pl3 501  COA501     -0.1439
     11  C1B      -43.0690   11.5240   30.1460 C.3   501  COA501      0.3185
     12  C2B      -42.7520   10.7570   28.8790 C.3   501  COA501      0.2543
     13  O2B      -43.8760    9.9910   28.4190 O.3   501  COA501     -0.2131
     14  C3B      -41.5600    9.9330   29.3420 C.3   501  COA501      0.1928
     15  O3B      -41.9680    8.7670   30.0260 O.3   501  COA501     -0.2673
     16  P3B      -41.1470    7.4240   30.1160 P.3   501  COA501      0.5327
     17  O7A      -40.7340    7.0370   28.7360 O.2   501  COA501     -0.2224
     18  O8A      -42.0650    6.4610   30.7360 O.3   501  COA501     -0.1145
     19  O9A      -39.8450    7.8080   30.9430 O.3   501  COA501     -0.1145
     20  C4B      -40.7880   10.9020   30.2400 C.3   501  COA501      0.1795
     21  O4B      -41.7890   11.9060   30.6240 O.3   501  COA501     -0.3136
     22  C5B      -39.5920   11.5970   29.5670 C.3   501  COA501      0.1812
     23  O5B      -40.0720   12.1120   28.3360 O.3   501  COA501     -0.3112
     24  P1A      -39.1980   12.4280   27.0370 P.3   501  COA501      0.2189
     25  O1A      -40.0360   12.9470   25.9760 O.2   501  COA501     -0.5170
     26  O2A      -38.4410   11.2290   26.5340 O.3   501  COA501     -0.4371
     27  O3A      -38.1520   13.5610   27.5260 O.3   501  COA501     -0.2703
     28  P2A      -36.5730   13.7120   27.3300 P.3   501  COA501      0.2188
     29  O4A      -35.8590   12.4670   27.6640 O.2   501  COA501     -0.5170
     30  O5A      -36.0790   14.8900   28.0500 O.3   501  COA501     -0.4371
     31  O6A      -36.4620   13.8780   25.8730 O.3   501  COA501     -0.3138
     32  CBP      -35.8930   14.1300   23.7570 C.3   501  COA501      0.0645
     33  CCP      -35.3070   13.6060   25.0890 C.3   501  COA501      0.1519
     34  CDP      -34.9040   14.1350   22.5620 C.3   501  COA501      0.0056
     35  CEP      -36.4280   15.5720   23.9620 C.3   501  COA501      0.0056
     36  CAP      -37.1350   13.1410   23.4410 C.3   501  COA501      0.2312
     37  OAP      -38.4000   13.8010   23.2600 O.3   501  COA501     -0.2131
     38  C9P      -36.9520   12.2300   22.1730 C.2   501  COA501      0.2719
     39  O9P      -35.9630   11.3240   22.1130 O.2   501  COA501     -0.2706
     40  N8P      -37.8270   12.6230   21.2870 N.am  501  COA501     -0.2028
     41  C7P      -38.0090   12.2020   19.8560 C.3   501  COA501      0.1248
     42  C6P      -37.0110   13.2550   19.4450 C.3   501  COA501      0.1102
     43  C5P      -37.2880   14.2520   18.3920 C.2   501  COA501      0.2432
     44  O5P      -38.3640   14.3070   17.7620 O.2   501  COA501     -0.2733
     45  N4P      -36.2740   15.1100   18.3270 N.am  501  COA501     -0.2044
     46  C3P      -36.3760   16.2840   17.4290 C.3   501  COA501      0.1276
     47  C2P      -36.6610   17.3500   18.5020 C.3   501  COA501      0.0920
     48  S1P      -37.3680   18.7910   17.8260 S.3   501  COA501     -0.0802
@<TRIPOS>BOND
     1    46    45    1
     2    46    47    1
     3    44    43    2
     4    48    47    1
     5    45    43   am
     6    43    42    1
     7    42    41    1
     8    41    40    1
     9    40    38   am
    10    39    38    2
    11    38    36    1
    12    34    32    1
    13    37    36    1
    14    36    32    1
    15    32    35    1
    16    32    33    1
    17    33    31    1
    18    31    28    1
    19    25    24    2
    20    26    24    1
    21    24    27    1
    22    24    23    1
    23    28    27    1
    24    28    29    2
    25    28    30    1
    26    23    22    1
    27    13    12    1
    28    17    16    2
    29    12    14    1
    30    12    11    1
    31     9     8    1
    32     9    10    1
    33     8     5    2
    34    14    15    1
    35    14    20    1
    36    22    20    1
    37    10    11    1
    38    10     4    1
    39    15    16    1
    40     5     4    1
    41     5     6    1
    42    16    18    1
    43    16    19    1
    44    11    21    1
    45    20    21    1
    46     7     6    1
    47     4     3    2
    48     6     1    2
    49     3     2    1
    50     1     2    1
