@<TRIPOS>MOLECULE
1p5z_AR3_B_1.pdb
 17 18 0 0 0
SMALL
GASTEIGER

@<TRIPOS>ATOM
      1  O5'       69.6030   37.8460   20.1260 O.3   304  AR3304     -0.2176
      2  C5'       70.0840   37.1800   21.2900 C.3   304  AR3304      0.2142
      3  C4'       70.1910   35.6720   21.0690 C.3   304  AR3304      0.1829
      4  O4'       68.9080   35.0150   20.8200 O.3   304  AR3304     -0.3318
      5  C1'       68.9450   34.1570   19.6900 C.3   304  AR3304      0.2400
      6  N1        67.5810   34.0940   19.0910 N.am  304  AR3304     -0.1778
      7  C6        66.7810   35.1100   19.0440 C.2   304  AR3304      0.0836
      8  C5        65.5810   35.0140   18.5620 C.2   304  AR3304      0.0687
      9  C4        65.1450   33.8360   18.1020 C.2   304  AR3304      0.2346
     10  N3        65.9550   32.8000   18.0650 N.2   304  AR3304     -0.3024
     11  C2        67.1820   32.9390   18.5620 C.1   304  AR3304      0.2756
     12  O2        67.9930   31.9220   18.5220 O.2   304  AR3304     -0.1925
     13  N4        63.8890   33.6440   17.5940 N.pl3 304  AR3304     -0.0921
     14  C2'       70.0970   34.6810   18.8340 C.3   304  AR3304      0.2319
     15  O1        69.5890   35.6280   17.9020 O.3   304  AR3304     -0.2157
     16  C3'       71.0520   35.3020   19.8680 C.3   304  AR3304      0.2159
     17  O3'       72.0810   34.3480   20.2360 O.3   304  AR3304     -0.2175
@<TRIPOS>BOND
     1    13     9    1
     2    15    14    1
     3    10     9    2
     4    10    11    2
     5     9     8    1
     6    12    11    2
     7     8     7    2
     8    11     6   am
     9    14     5    1
    10    14    16    1
    11     7     6    1
    12     6     5    1
    13     5     4    1
    14    16    17    1
    15    16     3    1
    16     1     2    1
    17     4     3    1
    18     3     2    1
