@<TRIPOS>MOLECULE
1p5z_ADP_B_1.pdb
 27 29 0 0 0
SMALL
GASTEIGER

@<TRIPOS>ATOM
      1  PB        73.1230   42.8360   18.9630 P.3   301  ADP301      0.5373
      2  O1B       73.3070   41.3670   19.3380 O.3   301  ADP301     -0.1143
      3  O2B       72.1700   43.5940   19.8730 O.3   301  ADP301     -0.1143
      4  O3B       72.7840   43.1000   17.5270 O.2   301  ADP301     -0.2221
      5  PA        75.2440   44.4860   20.2440 P.3   301  ADP301      0.2231
      6  O1A       74.6260   45.8230   20.1250 O.2   301  ADP301     -0.5169
      7  O2A       75.1330   43.7050   21.5330 O.3   301  ADP301     -0.4370
      8  O3A       74.5930   43.5490   19.0990 O.3   301  ADP301     -0.2261
      9  O5'       76.7480   44.6370   19.8000 O.3   301  ADP301     -0.3111
     10  C5'       77.6810   43.5450   19.8290 C.3   301  ADP301      0.1813
     11  C4'       79.1040   43.9980   20.0860 C.3   301  ADP301      0.1821
     12  O4'       79.5890   44.7330   18.9400 O.3   301  ADP301     -0.3135
     13  C3'       79.2360   44.9440   21.2960 C.3   301  ADP301      0.2184
     14  O3'       80.4680   44.6750   21.9590 O.3   301  ADP301     -0.2174
     15  C2'       79.1730   46.3340   20.6890 C.3   301  ADP301      0.2570
     16  O2'       79.9210   47.3110   21.3950 O.3   301  ADP301     -0.2130
     17  C1'       79.8410   46.1010   19.3530 C.3   301  ADP301      0.3186
     18  N9        79.3640   46.9160   18.2400 N.pl3 301  ADP301     -0.1439
     19  C8        78.1100   46.8550   17.6910 C.3   301  ADP301      0.3377
     20  N7        78.0140   47.6830   16.5980 N.2   301  ADP301     -0.2095
     21  C5        79.2340   48.2350   16.4570 C.2   301  ADP301      0.2526
     22  C6        79.7880   49.1560   15.4610 C.2   301  ADP301      0.4393
     23  N6        79.0680   49.5650   14.4800 N.pl3 301  ADP301      0.2180
     24  N1        81.0620   49.4500   15.6580 N.2   301  ADP301      0.0021
     25  C2        81.9310   48.9900   16.6800 C.3   301  ADP301      0.5254
     26  N3        81.3300   48.0840   17.6120 N.2   301  ADP301     -0.0055
     27  C4        80.0230   47.7290   17.4460 C.2   301  ADP301      0.3518
@<TRIPOS>BOND
     1    23    22    1
     2    22    24    2
     3    22    21    1
     4    24    25    1
     5    21    20    2
     6    21    27    1
     7    20    19    1
     8    25    26    1
     9    27    26    2
    10    27    18    1
    11     4     1    2
    12    19    18    1
    13    18    17    1
    14    12    17    1
    15    12    11    1
    16     1     8    1
    17     1     2    1
    18     1     3    1
    19     8     5    1
    20    17    15    1
    21     9    10    1
    22     9     5    1
    23    10    11    1
    24    11    13    1
    25     6     5    2
    26     5     7    1
    27    15    13    1
    28    15    16    1
    29    13    14    1
