@<TRIPOS>MOLECULE
1p60_DCZ_A_1.pdb
 16 17 0 0 0
SMALL
GASTEIGER

@<TRIPOS>ATOM
      1  N1        47.9450   65.1490  100.4110 N.am  402  DCZ402     -0.1802
      2  C2        48.0330   66.3260  101.0240 C.1   402  DCZ402      0.2756
      3  N3        46.9620   66.9420  101.5930 N.2   402  DCZ402     -0.3024
      4  C4        45.8300   66.3150  101.5180 C.2   402  DCZ402      0.2346
      5  C5        45.7390   65.1570  100.9100 C.2   402  DCZ402      0.0687
      6  C6        46.7690   64.5980  100.3540 C.2   402  DCZ402      0.0835
      7  O2        49.1170   66.9720  101.1900 O.2   402  DCZ402     -0.1925
      8  N4        44.7360   66.9760  102.0330 N.pl3 402  DCZ402     -0.0921
      9  C1'       49.1330   64.5600   99.7380 C.3   402  DCZ402      0.2090
     10  C2'       49.8400   63.4010  100.4050 C.3   402  DCZ402      0.0874
     11  C3'       50.3790   62.6280   99.1750 C.3   402  DCZ402      0.1858
     12  C4'       49.3510   62.8870   98.0350 C.3   402  DCZ402      0.1802
     13  O4'       48.6840   64.0890   98.4240 O.3   402  DCZ402     -0.3338
     14  O3'       51.6560   63.1590   98.7880 O.3   402  DCZ402     -0.2203
     15  C5'       48.4300   61.7200   97.8370 C.3   402  DCZ402      0.2141
     16  O5'       47.8230   61.3020   99.0490 O.3   402  DCZ402     -0.2176
@<TRIPOS>BOND
     1    15    12    1
     2    15    16    1
     3    12    13    1
     4    12    11    1
     5    13     9    1
     6    14    11    1
     7    11    10    1
     8     9    10    1
     9     9     1    1
    10     6     1    1
    11     6     5    2
    12     1     2   am
    13     5     4    1
    14     2     7    2
    15     2     3    2
    16     4     3    2
    17     4     8    1
