@<TRIPOS>MOLECULE
1p60_ADP_A_1.pdb
 27 29 0 0 0
SMALL
GASTEIGER

@<TRIPOS>ATOM
      1  PB        48.5270   55.0500   99.7320 P.3   401  ADP401      0.5373
      2  O1B       49.2250   56.3730   99.6290 O.3   401  ADP401     -0.1143
      3  O2B       47.3160   54.8120   98.8660 O.2   401  ADP401     -0.2221
      4  O3B       48.2290   54.7980  101.1790 O.3   401  ADP401     -0.1143
      5  PA        49.8160   52.9070   98.1940 P.3   401  ADP401      0.2231
      6  O1A       48.6110   51.9660   98.2300 O.3   401  ADP401     -0.4370
      7  O2A       50.0170   53.7100   96.9630 O.2   401  ADP401     -0.5169
      8  O3A       49.6890   53.9220   99.4880 O.3   401  ADP401     -0.2261
      9  O5'       51.1320   52.0860   98.5360 O.3   401  ADP401     -0.3111
     10  C5'       52.3850   52.7740   98.5280 C.3   401  ADP401      0.1813
     11  C4'       53.4840   51.8090   98.0870 C.3   401  ADP401      0.1821
     12  O4'       53.6020   50.7390   99.0090 O.3   401  ADP401     -0.3135
     13  C3'       53.1830   51.1870   96.7270 C.3   401  ADP401      0.2184
     14  O3'       54.4080   51.1160   96.0200 O.3   401  ADP401     -0.2174
     15  C2'       52.6720   49.7830   97.0690 C.3   401  ADP401      0.2570
     16  O2'       53.1180   48.7790   96.2310 O.3   401  ADP401     -0.2130
     17  C1'       53.3350   49.4560   98.3490 C.3   401  ADP401      0.3186
     18  N9        52.5910   48.6900   99.3560 N.pl3 401  ADP401     -0.1439
     19  C8        51.4280   49.0340   99.9150 C.3   401  ADP401      0.3377
     20  N7        51.0730   48.1280  100.8710 N.2   401  ADP401     -0.2095
     21  C5        52.0790   47.2600  100.9530 C.2   401  ADP401      0.2526
     22  C6        52.3100   46.0590  101.7440 C.2   401  ADP401      0.4393
     23  N6        51.4750   45.7750  102.6460 N.pl3 401  ADP401      0.2180
     24  N1        53.4190   45.3470  101.5110 N.2   401  ADP401      0.0021
     25  C2        54.3980   45.6810  100.5120 C.3   401  ADP401      0.5254
     26  N3        54.0880   46.8500   99.7500 N.2   401  ADP401     -0.0055
     27  C4        52.9850   47.6070  100.0010 C.2   401  ADP401      0.3518
@<TRIPOS>BOND
     1    14    13    1
     2    16    15    1
     3    13    15    1
     4    13    11    1
     5     7     5    2
     6    15    17    1
     7    11    10    1
     8    11    12    1
     9     5     6    1
    10     5     9    1
    11     5     8    1
    12    17    12    1
    13    17    18    1
    14    10     9    1
    15     3     1    2
    16    18    19    1
    17    18    27    1
    18     8     1    1
    19     2     1    1
    20     1     4    1
    21    26    27    2
    22    26    25    1
    23    19    20    1
    24    27    21    1
    25    25    24    1
    26    20    21    2
    27    21    22    1
    28    24    22    2
    29    22    23    1
