@<TRIPOS>MOLECULE
1p61_DCZ_B_1.pdb
 16 17 0 0 0
SMALL
GASTEIGER

@<TRIPOS>ATOM
      1  N1        67.1790   33.8340   19.0990 N.am  302  DCZ302     -0.1802
      2  C2        66.7010   32.6760   18.6360 C.1   302  DCZ302      0.2756
      3  N3        65.4650   32.6260   18.1560 N.2   302  DCZ302     -0.3024
      4  C4        64.7410   33.7470   18.2100 C.2   302  DCZ302      0.2346
      5  C5        65.2170   34.8540   18.6390 C.2   302  DCZ302      0.0687
      6  C6        66.4170   34.8780   19.0900 C.2   302  DCZ302      0.0835
      7  O2        67.3730   31.5660   18.5920 O.2   302  DCZ302     -0.1925
      8  N4        63.5280   33.6400   17.7340 N.pl3 302  DCZ302     -0.0921
      9  C1'       68.5380   33.8910   19.6720 C.3   302  DCZ302      0.2090
     10  C2'       69.6040   34.6760   18.9390 C.3   302  DCZ302      0.0874
     11  C3'       70.5020   35.1590   20.0580 C.3   302  DCZ302      0.1858
     12  C4'       69.5510   35.3640   21.2480 C.3   302  DCZ302      0.1802
     13  O4'       68.4050   34.5420   20.9500 O.3   302  DCZ302     -0.3338
     14  O3'       71.4060   34.0900   20.4300 O.3   302  DCZ302     -0.2203
     15  C5'       69.1210   36.8020   21.4420 C.3   302  DCZ302      0.2141
     16  O5'       68.7780   37.4540   20.1890 O.3   302  DCZ302     -0.2176
@<TRIPOS>BOND
     1     8     4    1
     2     3     4    2
     3     3     2    2
     4     4     5    1
     5     7     2    2
     6     2     1   am
     7     5     6    2
     8    10     9    1
     9    10    11    1
    10     6     1    1
    11     1     9    1
    12     9    13    1
    13    11    14    1
    14    11    12    1
    15    16    15    1
    16    13    12    1
    17    12    15    1
