@<TRIPOS>MOLECULE
1p61_ADP_B_1.pdb
 27 29 0 0 0
SMALL
GASTEIGER

@<TRIPOS>ATOM
      1  PB        72.6980   42.5410   19.1930 P.3   301  ADP301      0.5373
      2  O1B       73.0920   41.1570   19.6990 O.3   301  ADP301     -0.1143
      3  O2B       71.7310   43.3250   20.0090 O.3   301  ADP301     -0.1143
      4  O3B       72.2520   42.6640   17.8020 O.2   301  ADP301     -0.2221
      5  PA        74.7660   44.1870   20.4780 P.3   301  ADP301      0.2231
      6  O1A       74.2310   45.5970   20.4450 O.2   301  ADP301     -0.5169
      7  O2A       74.6570   43.4750   21.7970 O.3   301  ADP301     -0.4370
      8  O3A       74.1280   43.3220   19.2770 O.3   301  ADP301     -0.2261
      9  O5'       76.2610   44.3360   19.9650 O.3   301  ADP301     -0.3111
     10  C5'       77.1730   43.2750   19.8670 C.3   301  ADP301      0.1813
     11  C4'       78.5670   43.7000   20.2660 C.3   301  ADP301      0.1821
     12  O4'       79.0330   44.4690   19.1730 O.3   301  ADP301     -0.3135
     13  C3'       78.7140   44.6130   21.4900 C.3   301  ADP301      0.2184
     14  O3'       79.9640   44.4040   22.0950 O.3   301  ADP301     -0.2174
     15  C2'       78.7400   46.0310   20.9740 C.3   301  ADP301      0.2570
     16  O2'       79.5840   46.8580   21.7500 O.3   301  ADP301     -0.2130
     17  C1'       79.3390   45.8040   19.6050 C.3   301  ADP301      0.3186
     18  N9        78.8040   46.6250   18.5060 N.pl3 301  ADP301     -0.1439
     19  C8        77.5900   46.6050   18.0080 C.3   301  ADP301      0.3377
     20  N7        77.5300   47.4680   16.9480 N.2   301  ADP301     -0.2095
     21  C5        78.7240   47.9860   16.7580 C.2   301  ADP301      0.2526
     22  C6        79.3450   48.9290   15.7850 C.2   301  ADP301      0.4393
     23  N6        78.6680   49.4860   14.8600 N.pl3 301  ADP301      0.2180
     24  N1        80.6370   49.1810   15.9540 N.2   301  ADP301      0.0021
     25  C2        81.4700   48.6210   16.9890 C.3   301  ADP301      0.5254
     26  N3        80.7890   47.7160   17.8480 N.2   301  ADP301     -0.0055
     27  C4        79.4820   47.4270   17.7160 C.2   301  ADP301      0.3518
@<TRIPOS>BOND
     1    23    22    1
     2    22    24    2
     3    22    21    1
     4    24    25    1
     5    21    20    2
     6    21    27    1
     7    20    19    1
     8    25    26    1
     9    27    26    2
    10    27    18    1
    11     4     1    2
    12    19    18    1
    13    18    17    1
    14    12    17    1
    15    12    11    1
    16     1     8    1
    17     1     2    1
    18     1     3    1
    19     8     5    1
    20    17    15    1
    21    10     9    1
    22    10    11    1
    23     9     5    1
    24    11    13    1
    25     6     5    2
    26     5     7    1
    27    15    13    1
    28    15    16    1
    29    13    14    1
