@<TRIPOS>MOLECULE
1p62_ADP_B_1.pdb
 27 29 0 0 0
SMALL
GASTEIGER

@<TRIPOS>ATOM
      1  PB        73.4680   43.3490   19.1010 P.3   301  ADP301      0.5373
      2  O1B       73.7210   41.8970   19.4660 O.3   301  ADP301     -0.1143
      3  O2B       72.5440   44.1000   19.9980 O.3   301  ADP301     -0.1143
      4  O3B       73.0960   43.5630   17.6530 O.2   301  ADP301     -0.2221
      5  PA        75.5430   44.9940   20.3680 P.3   301  ADP301      0.2231
      6  O1A       74.9390   46.3330   20.2510 O.2   301  ADP301     -0.5169
      7  O2A       75.5020   44.2290   21.7190 O.3   301  ADP301     -0.4370
      8  O3A       74.9460   44.0530   19.1880 O.3   301  ADP301     -0.2261
      9  O5'       77.1060   45.1440   19.9040 O.3   301  ADP301     -0.3111
     10  C5'       78.0170   44.0350   19.9500 C.3   301  ADP301      0.1813
     11  C4'       79.4380   44.4490   20.2610 C.3   301  ADP301      0.1821
     12  O4'       79.9870   45.1970   19.1210 O.3   301  ADP301     -0.3135
     13  C3'       79.6170   45.3670   21.4920 C.3   301  ADP301      0.2184
     14  O3'       80.9300   45.1470   22.0500 O.3   301  ADP301     -0.2174
     15  C2'       79.5450   46.7640   20.8950 C.3   301  ADP301      0.2570
     16  O2'       80.2600   47.7980   21.5710 O.3   301  ADP301     -0.2130
     17  C1'       80.2080   46.5720   19.5410 C.3   301  ADP301      0.3186
     18  N9        79.7300   47.3930   18.4200 N.pl3 301  ADP301     -0.1439
     19  C8        78.4930   47.3540   17.8430 C.3   301  ADP301      0.3377
     20  N7        78.4500   48.1560   16.7330 N.2   301  ADP301     -0.2095
     21  C5        79.6800   48.6960   16.5840 C.2   301  ADP301      0.2526
     22  C6        80.2730   49.5720   15.5830 C.2   301  ADP301      0.4393
     23  N6        79.5480   50.0120   14.6340 N.pl3 301  ADP301      0.2180
     24  N1        81.5530   49.8920   15.7360 N.2   301  ADP301      0.0021
     25  C2        82.4020   49.3890   16.7900 C.3   301  ADP301      0.5254
     26  N3        81.7390   48.5040   17.7020 N.2   301  ADP301     -0.0055
     27  C4        80.4430   48.1760   17.5840 C.2   301  ADP301      0.3518
@<TRIPOS>BOND
     1    23    22    1
     2    22    24    2
     3    22    21    1
     4    24    25    1
     5    21    20    2
     6    21    27    1
     7    20    19    1
     8    25    26    1
     9    27    26    2
    10    27    18    1
    11     4     1    2
    12    19    18    1
    13    18    17    1
    14     1     8    1
    15     1     2    1
    16     1     3    1
    17    12    17    1
    18    12    11    1
    19     8     5    1
    20    17    15    1
    21     9    10    1
    22     9     5    1
    23    10    11    1
    24     6     5    2
    25    11    13    1
    26     5     7    1
    27    15    13    1
    28    15    16    1
    29    13    14    1
