@<TRIPOS>MOLECULE
1p62_GEO_B_1.pdb
 18 19 0 0 0
SMALL
GASTEIGER

@<TRIPOS>ATOM
      1  O5'       69.9710   38.0950   20.6110 O.3   302  GEO302     -0.2176
      2  C5'       70.2680   37.3460   21.7920 C.3   302  GEO302      0.2143
      3  C4'       70.4670   35.8600   21.3710 C.3   302  GEO302      0.1859
      4  O4'       69.1490   35.3280   21.0460 O.3   302  GEO302     -0.3296
      5  C1'       69.2100   34.4730   19.9010 C.3   302  GEO302      0.2718
      6  N1        67.9220   34.4220   19.1610 N.am  302  GEO302     -0.1754
      7  C6        67.1460   35.4720   18.9970 C.2   302  GEO302      0.0837
      8  C5        65.9110   35.3510   18.5820 C.2   302  GEO302      0.0687
      9  C4        65.4560   34.2010   18.1600 C.2   302  GEO302      0.2346
     10  N3        66.2500   33.1260   18.1940 N.2   302  GEO302     -0.3024
     11  C2        67.4980   33.2220   18.6960 C.1   302  GEO302      0.2757
     12  O2        68.2730   32.1280   18.7270 O.2   302  GEO302     -0.1925
     13  N4        64.2250   34.0320   17.6390 N.pl3 302  GEO302     -0.0921
     14  C2'       70.3860   35.0840   19.0980 C.3   302  GEO302      0.3366
     15  F1        69.9430   36.0620   18.3370 F     302  GEO302     -0.1969
     16  F2        70.8690   34.2060   18.2630 F     302  GEO302     -0.1969
     17  C3'       71.3680   35.6020   20.1690 C.3   302  GEO302      0.2463
     18  O3'       72.4070   34.5860   20.4110 O.3   302  GEO302     -0.2144
@<TRIPOS>BOND
     1    13     9    1
     2     9    10    2
     3     9     8    1
     4    10    11    2
     5    16    14    1
     6    15    14    1
     7     8     7    2
     8    11    12    2
     9    11     6   am
    10     7     6    1
    11    14     5    1
    12    14    17    1
    13     6     5    1
    14     5     4    1
    15    17    18    1
    16    17     3    1
    17     1     2    1
    18     4     3    1
    19     3     2    1
