@<TRIPOS>MOLECULE
1p6b_EBP_A_1.pdb
 16 16 0 0 0
SMALL
GASTEIGER

@<TRIPOS>ATOM
      1  C1        30.8660   -0.7100    4.8030 C.ar    7  EBP7       -0.0101
      2  C2        29.4850   -1.0860    4.6730 C.ar    7  EBP7       -0.0040
      3  C3        28.5130   -0.6330    5.6170 C.ar    7  EBP7       -0.0046
      4  C4        28.9360    0.2170    6.6880 C.ar    7  EBP7       -0.0219
      5  C5        30.3090    0.6030    6.8130 C.ar    7  EBP7       -0.0046
      6  C6        31.2850    0.1340    5.8780 C.ar    7  EBP7       -0.0040
      7  C7        31.8730   -1.1860    3.7780 C.3     7  EBP7        0.1423
      8  C8        27.9400    0.7110    7.6910 C.3     7  EBP7        0.0310
      9  C9        34.3180   -0.5340    5.4400 C.3     7  EBP7        0.1514
     10  C10       35.7820   -0.7810    5.7110 C.3     7  EBP7        0.0352
     11  C11       32.0900   -4.8640    5.1790 C.3     7  EBP7        0.1514
     12  C12       31.3260   -5.7090    4.1930 C.3     7  EBP7        0.0352
     13  P         32.7520   -2.4320    4.3400 P.3     7  EBP7        0.3476
     14  O1        33.6140   -1.8020    5.5540 O.3     7  EBP7       -0.2939
     15  O2        31.7030   -3.4810    4.9440 O.3     7  EBP7       -0.2939
     16  O3        33.5020   -2.8770    3.1550 O.2     7  EBP7       -0.2574
@<TRIPOS>BOND
     1    16    13    2
     2     7    13    1
     3     7     1    1
     4    12    11    1
     5    13    15    1
     6    13    14    1
     7     2     1   ar
     8     2     3   ar
     9     1     6   ar
    10    15    11    1
    11     9    14    1
    12     9    10    1
    13     3     4   ar
    14     6     5   ar
    15     4     5   ar
    16     4     8    1
