@<TRIPOS>MOLECULE
1p6c_EBP_A_1.pdb
 16 16 0 0 0
SMALL
GASTEIGER

@<TRIPOS>ATOM
      1  C1        30.8590   -0.7120    4.8010 C.ar    5  EBP5       -0.0101
      2  C2        29.5260   -1.1840    4.6690 C.ar    5  EBP5       -0.0040
      3  C3        28.5230   -0.7530    5.5890 C.ar    5  EBP5       -0.0046
      4  C4        28.8680    0.1380    6.6460 C.ar    5  EBP5       -0.0219
      5  C5        30.2010    0.5940    6.7840 C.ar    5  EBP5       -0.0046
      6  C6        31.1920    0.1770    5.8600 C.ar    5  EBP5       -0.0040
      7  C7        31.8980   -1.1400    3.7960 C.3     5  EBP5        0.1423
      8  C8        27.8200    0.5990    7.6060 C.3     5  EBP5        0.0310
      9  C9        34.2840   -0.4760    5.5130 C.3     5  EBP5        0.1514
     10  C10       35.7360   -0.7790    5.7110 C.3     5  EBP5        0.0352
     11  C11       31.9500   -4.7310    5.3700 C.3     5  EBP5        0.1514
     12  C12       31.2700   -5.4640    4.2350 C.3     5  EBP5        0.0352
     13  P         32.7580   -2.3510    4.4330 P.3     5  EBP5        0.3476
     14  O1        33.5220   -1.6980    5.6860 O.3     5  EBP5       -0.2939
     15  O2        31.6830   -3.3220    5.1370 O.3     5  EBP5       -0.2939
     16  O3        33.5650   -2.8260    3.2950 O.2     5  EBP5       -0.2574
@<TRIPOS>BOND
     1    16    13    2
     2     7    13    1
     3     7     1    1
     4    12    11    1
     5    13    15    1
     6    13    14    1
     7     2     1   ar
     8     2     3   ar
     9     1     6   ar
    10    15    11    1
    11     9    14    1
    12     9    10    1
    13     3     4   ar
    14     6     5   ar
    15     4     5   ar
    16     4     8    1
