@<TRIPOS>MOLECULE
1p6c_DII_A_1.pdb
 11 10 0 0 0
SMALL
GASTEIGER

@<TRIPOS>ATOM
      1  P1        49.4070   -7.7880   29.5310 P.3     7  DII7        0.3437
      2  O1        49.2490   -6.7130   28.4170 O.2     7  DII7       -0.2577
      3  O2        50.6460   -8.7600   29.4150 O.3     7  DII7       -0.2966
      4  C1        50.7120  -10.0110   30.1960 C.3     7  DII7        0.1241
      5  C2        49.8930  -11.1340   29.5730 C.3     7  DII7        0.0326
      6  C3        52.1580  -10.4990   30.3200 C.3     7  DII7        0.0326
      7  O3        48.1450   -8.7030   29.5580 O.3     7  DII7       -0.2966
      8  C4        46.8230   -8.1660   29.3900 C.3     7  DII7        0.1241
      9  C5        45.8920   -9.2920   28.9360 C.3     7  DII7        0.0326
     10  C6        46.3680   -7.6140   30.7440 C.3     7  DII7        0.0326
     11  C7        49.5040   -6.9940   30.9660 C.3     7  DII7        0.1287
@<TRIPOS>BOND
     1     2     1    2
     2     9     8    1
     3     8     7    1
     4     8    10    1
     5     3     1    1
     6     3     4    1
     7     1     7    1
     8     1    11    1
     9     5     4    1
    10     4     6    1
