@<TRIPOS>MOLECULE
1p6d_3PC_A_1.pdb
 30 29 0 0 0
SMALL
GASTEIGER

@<TRIPOS>ATOM
      1  C15       39.4560   20.9880   -6.2230 C.3   601  3PC601      0.0000
      2  C14       40.5620   21.4080   -5.2260 C.3   601  3PC601      0.0000
      3  C13       40.0910   21.2930   -3.7800 C.3   601  3PC601      0.0006
      4  C12       40.8840   22.2780   -2.9190 C.3   601  3PC601      0.0116
      5  C11       40.0390   22.7410   -1.7150 C.3   601  3PC601      0.1096
      6  C10       40.7110   23.4330   -0.5040 C.2   601  3PC601      0.3171
      7  O7        41.9210   23.7450   -0.5470 O.2   601  3PC601     -0.2501
      8  O6        39.9680   23.7460    0.7540 O.3   601  3PC601     -0.4445
      9  C9        40.4770   24.4210    1.9610 C.3   601  3PC601      0.2516
     10  C8        39.3640   24.7110    3.0000 C.3   601  3PC601      0.2129
     11  O5        38.1130   24.9980    2.3500 O.3   601  3PC601     -0.4483
     12  C16       37.7360   26.0540    1.4120 C.2   601  3PC601      0.3170
     13  O8        38.5350   26.9790    1.1490 O.2   601  3PC601     -0.2501
     14  C17       36.3140   26.0330    0.8010 C.3   601  3PC601      0.1096
     15  C18       36.2110   26.1580   -0.7230 C.3   601  3PC601      0.0116
     16  C19       36.6370   24.8620   -1.4190 C.3   601  3PC601      0.0006
     17  C20       36.9530   25.1600   -2.8860 C.3   601  3PC601      0.0000
     18  C21       36.7870   23.9150   -3.7850 C.3   601  3PC601      0.0000
     19  C7        39.1040   23.5080    3.8630 C.3   601  3PC601      0.0604
     20  C6        39.1890   23.4250    5.4190 C.3   601  3PC601      0.1220
     21  P1        40.8390   23.0800    6.0040 P.3   601  3PC601      0.3698
     22  O2        41.6920   24.2240    6.1430 O.2   601  3PC601     -0.2555
     23  O3        40.9870   22.1960    7.2440 O.3   601  3PC601     -0.1398
     24  O1        41.3310   22.0570    4.7520 O.3   601  3PC601     -0.2949
     25  C5        42.6670   21.9460    4.1510 C.3   601  3PC601      0.1293
     26  C4        43.0000   20.6480    3.3230 C.3   601  3PC601     -0.0402
     27  N1        42.1330   19.8840    2.2640 N.4   601  3PC601      0.3874
     28  C1        41.1940   18.8540    2.8190 C.3   601  3PC601     -0.0959
     29  C2        41.2460   20.6820    1.3830 C.3   601  3PC601     -0.0959
     30  C3        43.0900   19.1690    1.3280 C.3   601  3PC601     -0.0959
@<TRIPOS>BOND
     1     1     2    1
     2     2     3    1
     3    18    17    1
     4     3     4    1
     5     4     5    1
     6    17    16    1
     7     5     6    1
     8    16    15    1
     9    15    14    1
    10     7     6    2
    11     6     8    1
    12     8     9    1
    13    14    12    1
    14    13    12    2
    15    30    27    1
    16    29    27    1
    17    12    11    1
    18     9    10    1
    19    27    28    1
    20    27    26    1
    21    11    10    1
    22    10    19    1
    23    26    25    1
    24    19    20    1
    25    25    24    1
    26    24    21    1
    27    20    21    1
    28    21    22    2
    29    21    23    1
