@<TRIPOS>MOLECULE
1p6e_PC5_A_1.pdb
 28 27 0 0 0
SMALL
GASTEIGER

@<TRIPOS>ATOM
      1  C14       41.5130   21.3400   -4.8090 C.3   601  PC5601      0.0000
      2  C13       41.1310   22.6980   -4.1460 C.3   601  PC5601      0.0006
      3  C12       40.5620   22.5520   -2.7150 C.3   601  PC5601      0.0116
      4  C11       41.3530   23.5270   -1.8280 C.3   601  PC5601      0.1096
      5  C10       41.0450   23.6920   -0.3220 C.2   601  PC5601      0.3171
      6  O7        41.8350   24.4190    0.3230 O.2   601  PC5601     -0.2501
      7  O6        39.8940   23.0260    0.4090 O.3   601  PC5601     -0.4444
      8  C9        39.5420   22.9120    1.8490 C.3   601  PC5601      0.2543
      9  C8        39.2150   24.2070    2.6180 C.3   601  PC5601      0.2420
     10  O5        38.0140   24.7400    1.9900 O.3   601  PC5601     -0.4457
     11  C15       37.9040   25.8290    0.9800 C.2   601  PC5601      0.3171
     12  O8        38.7270   26.7760    1.0140 O.2   601  PC5601     -0.2501
     13  C16       36.5150   26.0380    0.2940 C.3   601  PC5601      0.1096
     14  C17       36.4540   25.9970   -1.2460 C.3   601  PC5601      0.0116
     15  C18       36.7440   24.5750   -1.7910 C.3   601  PC5601      0.0006
     16  C19       37.0630   24.5790   -3.3080 C.3   601  PC5601      0.0000
     17  C7        39.0260   24.2420    4.1780 C.3   601  PC5601      0.1969
     18  O1        39.4480   23.1550    5.0690 O.3   601  PC5601     -0.3055
     19  P1        40.9100   22.9500    5.8300 P.3   601  PC5601      0.2414
     20  S2        41.9920   24.3750    6.1020 S.3   601  PC5601      0.0039
     21  S3        40.7560   21.9030    7.4600 S.3   601  PC5601      0.0039
     22  O4        41.4750   21.9360    4.6340 O.3   601  PC5601     -0.3117
     23  C5        42.7790   21.9370    3.9290 C.3   601  PC5601      0.1276
     24  C4        43.2030   20.5880    3.2400 C.3   601  PC5601     -0.0402
     25  N1        42.4160   19.8370    2.0870 N.4   601  PC5601      0.3874
     26  C1        43.1230   18.5480    1.7160 C.3   601  PC5601     -0.0959
     27  C2        40.9950   19.3930    2.4450 C.3   601  PC5601     -0.0959
     28  C3        42.4610   20.5870    0.7590 C.3   601  PC5601     -0.0959
@<TRIPOS>BOND
     1     1     2    1
     2     2     3    1
     3    16    15    1
     4     3     4    1
     5     4     5    1
     6    15    14    1
     7    14    13    1
     8     5     6    2
     9     5     7    1
    10    13    11    1
    11     7     8    1
    12    28    25    1
    13    11    12    2
    14    11    10    1
    15    26    25    1
    16     8     9    1
    17    10     9    1
    18    25    27    1
    19    25    24    1
    20     9    17    1
    21    24    23    1
    22    23    22    1
    23    17    18    1
    24    22    19    1
    25    18    19    1
    26    19    20    1
    27    19    21    1
