@<TRIPOS>MOLECULE
1p6h_H4B_A_1.pdb
 17 18 0 0 0
SMALL
GASTEIGER

@<TRIPOS>ATOM
      1  N1        10.0430    2.5610   33.9080 N.2   760  H4B760     -0.2683
      2  C2        10.2090    2.1860   32.6160 C.1   760  H4B760      0.2608
      3  N2        11.4130    2.0940   32.0420 N.pl3 760  H4B760     -0.0220
      4  N3         9.1020    1.8950   31.9080 N.2   760  H4B760     -0.2474
      5  C4         7.7700    1.9620   32.4190 C.1   760  H4B760      0.2441
      6  O4         6.8400    1.6750   31.6760 O.2   760  H4B760     -0.2063
      7  C4A        7.6910    2.3730   33.7710 C.2   760  H4B760      0.2463
      8  C8A        8.8140    2.6670   34.5140 C.1   760  H4B760      0.1270
      9  N5         6.3590    2.4920   34.3680 N.2   760  H4B760     -0.2460
     10  N8         8.7550    3.0440   35.8010 N.2   760  H4B760     -0.2054
     11  C6         6.3290    3.5020   35.5320 C.3   760  H4B760      0.1627
     12  C7         7.4730    3.1630   36.4790 C.3   760  H4B760      0.1643
     13  C9         4.9270    3.4180   36.1790 C.3   760  H4B760      0.2063
     14  O9         4.5700    2.1200   36.6310 O.3   760  H4B760     -0.2183
     15  C10        4.7620    4.4070   37.3710 C.3   760  H4B760      0.1842
     16  C11        3.3510    4.4770   37.8280 C.3   760  H4B760      0.0383
     17  O10        5.1580    5.6840   36.8600 O.3   760  H4B760     -0.2204
@<TRIPOS>BOND
     1     6     5    2
     2     4     5    2
     3     4     2    2
     4     3     2    1
     5     5     7    1
     6     2     1    2
     7     7     9    2
     8     7     8    1
     9     1     8    2
    10     9    11    1
    11     8    10    2
    12    11    13    1
    13    11    12    1
    14    10    12    1
    15    13    14    1
    16    13    15    1
    17    17    15    1
    18    15    16    1
