@<TRIPOS>MOLECULE
1p6h_HEM_A_1.pdb
 43 50 0 0 0
SMALL
GASTEIGER

@<TRIPOS>ATOM
      1 FE         15.8420    4.4290   24.4470 Fe    750  HEM750      0.0000
      2  CHA       13.0420    4.5100   26.4710 C.2   750  HEM750      0.0000
      3  CHB       16.7470    1.5090   26.0330 C.2   750  HEM750      0.0000
      4  CHC       17.7390    3.4220   21.7190 C.2   750  HEM750      0.0000
      5  CHD       14.6720    7.0920   22.7200 C.2   750  HEM750      0.0000
      6  NA        15.0960    3.2670   25.9300 N.2   750  HEM750      0.0000
      7  C1A       13.8820    3.4400   26.6160 C.2   750  HEM750      0.0000
      8  C2A       13.6400    2.4020   27.5470 C.2   750  HEM750      0.0000
      9  C3A       14.7050    1.5700   27.4760 C.2   750  HEM750      0.0000
     10  C4A       15.6060    2.1270   26.4830 C.2   750  HEM750      0.0000
     11  CMA       14.7990    0.2350   28.2470 C.3   750  HEM750      0.0000
     12  CAA       12.3820    2.2010   28.3700 C.3   750  HEM750      0.0000
     13  CBA       11.3560    1.4360   27.5570 C.3   750  HEM750      0.0000
     14  CGA       10.0630    1.2470   28.2960 C.2   750  HEM750      0.0000
     15  O1A       10.1180    0.9770   29.5260 O.co2 750  HEM750      0.0000
     16  O2A        8.9960    1.3570   27.6560 O.co2 750  HEM750      0.0000
     17  NB        17.0500    2.8830   24.0350 N.ar  750  HEM750      0.0000
     18  C1B       17.4010    1.8460   24.8760 C.ar  750  HEM750      0.0000
     19  C2B       18.5340    1.1030   24.3770 C.ar  750  HEM750      0.0000
     20  C3B       18.8760    1.6140   23.1620 C.ar  750  HEM750      0.0000
     21  C4B       17.9070    2.7030   22.9250 C.ar  750  HEM750      0.0000
     22  CMB       19.1910   -0.0590   25.1090 C.3   750  HEM750      0.0000
     23  CAB       20.0590    1.1860   22.4860 C.2   750  HEM750      0.0000
     24  CBB       20.4630    1.4180   21.2160 C.2   750  HEM750      0.0000
     25  NC        16.0440    5.0280   22.5830 N.2   750  HEM750      0.0000
     26  C1C       16.8150    4.4750   21.5510 C.2   750  HEM750      0.0000
     27  C2C       16.8620    5.3500   20.4030 C.2   750  HEM750      0.0000
     28  C3C       16.1360    6.5020   20.7500 C.2   750  HEM750      0.0000
     29  C4C       15.6480    6.2700   22.0860 C.2   750  HEM750      0.0000
     30  CMC       17.5910    5.0140   19.0870 C.3   750  HEM750      0.0000
     31  CAC       15.7990    7.6570   20.0000 C.2   750  HEM750      0.0000
     32  CBC       16.1250    7.8160   18.6940 C.2   750  HEM750      0.0000
     33  ND        14.2350    5.5710   24.6130 N.ar  750  HEM750      0.0000
     34  C1D       13.9560    6.7350   23.8840 C.ar  750  HEM750      0.0000
     35  C2D       12.7760    7.3840   24.4000 C.ar  750  HEM750      0.0000
     36  C3D       12.2950    6.6060   25.4020 C.ar  750  HEM750      0.0000
     37  C4D       13.1860    5.4840   25.5300 C.ar  750  HEM750      0.0000
     38  CMD       12.2130    8.7220   23.9160 C.3   750  HEM750      0.0000
     39  CAD       11.0170    6.7630   26.2290 C.3   750  HEM750      0.0000
     40  CBD        9.8220    6.2730   25.4440 C.3   750  HEM750      0.0000
     41  CGD        8.5640    6.2530   26.2810 C.2   750  HEM750      0.0000
     42  O1D        8.3790    7.2010   27.0690 O.co2 750  HEM750      0.0000
     43  O2D        7.7620    5.3020   26.1450 O.co2 750  HEM750      0.0000
@<TRIPOS>BOND
     1    32    31    2
     2    30    27    1
     3    31    28    1
     4    27    28    2
     5    27    26    1
     6    28    29    1
     7    24    23    2
     8    26     4    2
     9    26    25    1
    10     4    21    1
    11    29    25    2
    12    29     5    1
    13    23    20    1
    14    25     1    1
    15     5    34    2
    16    21    20   ar
    17    21    17   ar
    18    20    19   ar
    19    34    35   ar
    20    34    33   ar
    21    38    35    1
    22    17     1    1
    23    17    18   ar
    24    19    18   ar
    25    19    22    1
    26    35    36   ar
    27     1    33    1
    28     1     6    1
    29    33    37   ar
    30    18     3    1
    31    36    37   ar
    32    36    39    1
    33    40    39    1
    34    40    41    1
    35    37     2    2
    36     6    10    1
    37     6     7    2
    38     3    10    2
    39    43    41   ar
    40    41    42   ar
    41     2     7    1
    42    10     9    1
    43     7     8    1
    44     9     8    2
    45     9    11    1
    46     8    12    1
    47    13    14    1
    48    13    12    1
    49    16    14   ar
    50    14    15   ar
