@<TRIPOS>MOLECULE
1p6h_DP1_A_1.pdb
 22 21 0 0 0
SMALL
GASTEIGER

@<TRIPOS>ATOM
      1  NH2       14.6310   -0.3080   23.6140 N.pl3 790  DP1790      0.1343
      2  CZ        13.6920    0.5090   23.2550 C.cat 790  DP1790      0.5245
      3  NH1       13.8500    1.3540   22.3140 N.pl3 790  DP1790      0.1075
      4  NO        14.8010    1.3200   21.3230 N.pl3 790  DP1790      0.2221
      5  O2        14.6430    1.9890   20.3150 O.2   790  DP1790     -0.0910
      6  O3        15.8040    0.6490   21.4510 O.2   790  DP1790     -0.0910
      7  NE        12.5450    0.4460   23.9070 N.pl3 790  DP1790     -0.0874
      8  CD        11.3600    1.3120   23.6380 C.3   790  DP1790      0.2204
      9  CG        10.2900    0.4780   22.9130 C.3   790  DP1790      0.0489
     10  CB         9.9880   -0.8310   23.6560 C.3   790  DP1790      0.0321
     11  CA         9.2500   -0.5900   24.9810 C.3   790  DP1790      0.1694
     12  N          9.6350   -1.6480   25.9200 N.3   790  DP1790     -0.1231
     13  C          7.7310   -0.5450   24.7590 C.2   790  DP1790      0.2592
     14  O          7.0460   -1.5700   24.7990 O.2   790  DP1790     -0.2718
     15  N'         7.2050    0.6500   24.5170 N.am  790  DP1790     -0.1965
     16  CA'        5.7650    0.8340   24.2850 C.3   790  DP1790      0.1759
     17  C'         5.4570    1.0620   22.7730 C.2   790  DP1790      0.2806
     18  O'         5.0900    0.1260   22.0330 O.2   790  DP1790     -0.2698
     19  N1'        5.6190    2.3080   22.3050 N.am  790  DP1790     -0.0863
     20  CB'        5.3000    1.9870   25.2070 C.3   790  DP1790      0.0516
     21  C1         5.3340    1.5590   26.7010 C.3   790  DP1790      0.1116
     22  N1         4.2800    2.2490   27.4640 N.3   790  DP1790     -0.1313
@<TRIPOS>BOND
     1     5     4    2
     2     4     6    2
     3     4     3    1
     4    18    17    2
     5    19    17   am
     6     3     2    1
     7    17    16    1
     8     9     8    1
     9     9    10    1
    10     2     1    2
    11     2     7    1
    12     8     7    1
    13    10    11    1
    14    16    15    1
    15    16    20    1
    16    15    13   am
    17    13    14    2
    18    13    11    1
    19    11    12    1
    20    20    21    1
    21    21    22    1
