@<TRIPOS>MOLECULE
1p6i_DP3_A_1.pdb
 17 16 0 0 0
SMALL
GASTEIGER

@<TRIPOS>ATOM
      1  N2'        4.5850    2.2200   27.5200 N.3   793  DP3793     -0.1298
      2  C2'        5.2710    2.2600   26.1780 C.3   793  DP3793      0.1280
      3  C1'        5.6200    0.8510   25.6120 C.3   793  DP3793      0.1092
      4  N1'        7.0270    0.4130   25.8750 N.3   793  DP3793     -0.2150
      5  C          7.5780   -0.5830   24.9240 C.3   793  DP3793      0.1077
      6  CA         9.1320   -0.7460   24.9840 C.3   793  DP3793      0.1093
      7  N          9.4420   -2.0590   25.6250 N.3   793  DP3793     -0.1314
      8  CB         9.8290   -0.7890   23.5790 C.3   793  DP3793      0.0242
      9  CG        10.1630    0.5970   22.9980 C.3   793  DP3793      0.0485
     10  CD        11.2080    1.3820   23.8130 C.3   793  DP3793      0.2204
     11  NE        12.4740    0.5800   23.9700 N.pl3 793  DP3793     -0.0874
     12  CZ        13.5450    0.6160   23.1990 C.cat 793  DP3793      0.5245
     13  NH2       14.5720   -0.2070   23.5510 N.pl3 793  DP3793      0.1343
     14  NH1       13.5630    1.4520   22.1200 N.pl3 793  DP3793      0.1075
     15  NO        14.5730    1.4130   21.1740 N.pl3 793  DP3793      0.2221
     16  O2        14.4990    2.2180   20.1850 O.2   793  DP3793     -0.0910
     17  O3        15.5630    0.6200   21.2470 O.2   793  DP3793     -0.0910
@<TRIPOS>BOND
     1    16    15    2
     2    15    17    2
     3    15    14    1
     4    14    12    1
     5     9     8    1
     6     9    10    1
     7    12    13    2
     8    12    11    1
     9     8     6    1
    10    10    11    1
    11     5     6    1
    12     5     4    1
    13     6     7    1
    14     3     4    1
    15     3     2    1
    16     2     1    1
