@<TRIPOS>MOLECULE
1p6i_H4B_A_1.pdb
 17 18 0 0 0
SMALL
GASTEIGER

@<TRIPOS>ATOM
      1  N1         9.8380    2.4870   33.7770 N.2   760  H4B760     -0.2683
      2  C2         9.9690    2.0960   32.4860 C.1   760  H4B760      0.2608
      3  N2        11.1500    1.9560   31.9030 N.pl3 760  H4B760     -0.0220
      4  N3         8.8330    1.8480   31.7780 N.2   760  H4B760     -0.2474
      5  C4         7.5180    1.9720   32.2890 C.1   760  H4B760      0.2441
      6  O4         6.5600    1.7190   31.5460 O.2   760  H4B760     -0.2063
      7  C4A        7.4670    2.3920   33.6440 C.2   760  H4B760      0.2463
      8  C8A        8.6100    2.6450   34.3910 C.1   760  H4B760      0.1270
      9  N5         6.1340    2.5620   34.2420 N.2   760  H4B760     -0.2460
     10  N8         8.5690    3.0340   35.6780 N.2   760  H4B760     -0.2054
     11  C6         6.1360    3.5590   35.4130 C.3   760  H4B760      0.1627
     12  C7         7.2810    3.2070   36.3630 C.3   760  H4B760      0.1643
     13  C9         4.7340    3.5020   36.0530 C.3   760  H4B760      0.2063
     14  O9         4.3340    2.2060   36.4690 O.3   760  H4B760     -0.2183
     15  C10        4.6040    4.4710   37.2600 C.3   760  H4B760      0.1842
     16  C11        3.1920    4.5720   37.7280 C.3   760  H4B760      0.0383
     17  O10        5.0500    5.7510   36.7720 O.3   760  H4B760     -0.2204
@<TRIPOS>BOND
     1     6     5    2
     2     4     5    2
     3     4     2    2
     4     3     2    1
     5     5     7    1
     6     2     1    2
     7     7     9    2
     8     7     8    1
     9     1     8    2
    10     9    11    1
    11     8    10    2
    12    11    13    1
    13    11    12    1
    14    10    12    1
    15    13    14    1
    16    13    15    1
    17    17    15    1
    18    15    16    1
