@<TRIPOS>MOLECULE
1p6i_HEM_A_1.pdb
 43 50 0 0 0
SMALL
GASTEIGER

@<TRIPOS>ATOM
      1 FE         15.4720    4.4070   24.3860 Fe    750  HEM750      0.0000
      2  CHA       12.6550    4.4220   26.3830 C.2   750  HEM750      0.0000
      3  CHB       16.4380    1.4740   25.9570 C.2   750  HEM750      0.0000
      4  CHC       17.3560    3.4430   21.6690 C.2   750  HEM750      0.0000
      5  CHD       14.2310    7.0370   22.6370 C.2   750  HEM750      0.0000
      6  NA        14.7130    3.2190   25.8460 N.2   750  HEM750      0.0000
      7  C1A       13.5240    3.3650   26.5360 C.2   750  HEM750      0.0000
      8  C2A       13.3600    2.3090   27.5020 C.2   750  HEM750      0.0000
      9  C3A       14.4430    1.5050   27.4410 C.2   750  HEM750      0.0000
     10  C4A       15.2770    2.0680   26.4070 C.2   750  HEM750      0.0000
     11  CMA       14.6760    0.2580   28.3120 C.3   750  HEM750      0.0000
     12  CAA       12.1330    2.0970   28.3580 C.3   750  HEM750      0.0000
     13  CBA       11.1180    1.2970   27.5580 C.3   750  HEM750      0.0000
     14  CGA        9.7950    1.1800   28.2700 C.2   750  HEM750      0.0000
     15  O1A        9.8060    0.9670   29.5040 O.co2 750  HEM750      0.0000
     16  O2A        8.7490    1.2940   27.5970 O.co2 750  HEM750      0.0000
     17  NB        16.7490    2.8980   23.9780 N.ar  750  HEM750      0.0000
     18  C1B       17.1090    1.8440   24.8070 C.ar  750  HEM750      0.0000
     19  C2B       18.1780    1.0590   24.2330 C.ar  750  HEM750      0.0000
     20  C3B       18.4120    1.5580   23.0110 C.ar  750  HEM750      0.0000
     21  C4B       17.5190    2.7040   22.8440 C.ar  750  HEM750      0.0000
     22  CMB       18.9240   -0.1110   24.8590 C.3   750  HEM750      0.0000
     23  CAB       19.2910    0.9370   22.1180 C.2   750  HEM750      0.0000
     24  CBB       20.2080    1.5610   21.3490 C.2   750  HEM750      0.0000
     25  NC        15.6930    5.0610   22.5120 N.2   750  HEM750      0.0000
     26  C1C       16.4880    4.5430   21.4990 C.2   750  HEM750      0.0000
     27  C2C       16.4770    5.3900   20.3150 C.2   750  HEM750      0.0000
     28  C3C       15.6850    6.4860   20.6410 C.2   750  HEM750      0.0000
     29  C4C       15.1930    6.2360   21.9810 C.2   750  HEM750      0.0000
     30  CMC       17.2000    5.0800   18.9870 C.3   750  HEM750      0.0000
     31  CAC       15.3530    7.6290   19.8950 C.2   750  HEM750      0.0000
     32  CBC       15.9430    8.0110   18.7250 C.2   750  HEM750      0.0000
     33  ND        13.8850    5.5730   24.5780 N.ar  750  HEM750      0.0000
     34  C1D       13.6050    6.7200   23.8400 C.ar  750  HEM750      0.0000
     35  C2D       12.4460    7.4000   24.3620 C.ar  750  HEM750      0.0000
     36  C3D       11.9890    6.6050   25.3650 C.ar  750  HEM750      0.0000
     37  C4D       12.8420    5.4660   25.4770 C.ar  750  HEM750      0.0000
     38  CMD       11.8650    8.7490   23.9080 C.3   750  HEM750      0.0000
     39  CAD       10.7950    6.8180   26.2640 C.3   750  HEM750      0.0000
     40  CBD        9.6030    6.2810   25.5120 C.3   750  HEM750      0.0000
     41  CGD        8.3310    6.3680   26.3240 C.2   750  HEM750      0.0000
     42  O1D        8.1600    7.3790   27.0390 O.co2 750  HEM750      0.0000
     43  O2D        7.5100    5.4330   26.2370 O.co2 750  HEM750      0.0000
@<TRIPOS>BOND
     1    32    31    2
     2    30    27    1
     3    31    28    1
     4    27    28    2
     5    27    26    1
     6    28    29    1
     7    24    23    2
     8    26     4    2
     9    26    25    1
    10     4    21    1
    11    29    25    2
    12    29     5    1
    13    23    20    1
    14    25     1    1
    15     5    34    2
    16    21    20   ar
    17    21    17   ar
    18    20    19   ar
    19    34    35   ar
    20    34    33   ar
    21    38    35    1
    22    17     1    1
    23    17    18   ar
    24    19    18   ar
    25    19    22    1
    26    35    36   ar
    27     1    33    1
    28     1     6    1
    29    33    37   ar
    30    18     3    1
    31    36    37   ar
    32    36    39    1
    33    37     2    2
    34    40    39    1
    35    40    41    1
    36     6    10    1
    37     6     7    2
    38     3    10    2
    39    43    41   ar
    40    41    42   ar
    41     2     7    1
    42    10     9    1
    43     7     8    1
    44     9     8    2
    45     9    11    1
    46     8    12    1
    47    13    14    1
    48    13    12    1
    49    16    14   ar
    50    14    15   ar
