@<TRIPOS>MOLECULE
1p6j_DP9_A_1.pdb
 23 23 0 0 0
SMALL
GASTEIGER

@<TRIPOS>ATOM
      1  NH2       14.6170   -0.3110   23.8320 N.pl3 799  DP9799      0.1343
      2  CZ        13.6830    0.5180   23.3670 C.cat 799  DP9799      0.5245
      3  NH1       13.8490    1.2250   22.2430 N.pl3 799  DP9799      0.1075
      4  NO        14.8620    1.2600   21.3470 N.pl3 799  DP9799      0.2221
      5  O2        14.7250    2.0300   20.3280 O.2   799  DP9799     -0.0910
      6  O3        15.8740    0.6070   21.4550 O.2   799  DP9799     -0.0910
      7  NE        12.5660    0.6050   24.0850 N.pl3 799  DP9799     -0.0874
      8  CD        11.3380    1.4010   23.8850 C.3   799  DP9799      0.2204
      9  CG        10.2640    0.5560   23.1690 C.3   799  DP9799      0.0489
     10  CB        10.0690   -0.8500   23.7950 C.3   799  DP9799      0.0321
     11  CA         9.3720   -0.8470   25.1800 C.3   799  DP9799      0.1694
     12  N          9.7280   -2.1210   25.8230 N.3   799  DP9799     -0.1231
     13  C          7.8340   -0.6700   25.0930 C.2   799  DP9799      0.2588
     14  O          7.1020   -1.6420   24.8620 O.2   799  DP9799     -0.2718
     15  N2'        7.3670    0.5770   25.2670 N.am  799  DP9799     -0.2044
     16  CG'        5.9040    0.9850   25.2840 C.3   799  DP9799      0.1146
     17  CD'        5.0660    0.3460   26.4380 C.3   799  DP9799      0.1108
     18  N'         5.1570    1.3590   27.5170 N.3   799  DP9799     -0.2083
     19  CA'        5.5450    2.6790   27.0030 C.3   799  DP9799      0.1538
     20  C'         4.5530    3.7890   27.3840 C.2   799  DP9799      0.2766
     21  O'         3.4140    3.5400   27.7780 O.2   799  DP9799     -0.2701
     22  N1'        4.8870    5.0640   27.3000 N.am  799  DP9799     -0.0866
     23  CB'        5.6950    2.4900   25.4880 C.3   799  DP9799      0.0499
@<TRIPOS>BOND
     1     5     4    2
     2     4     6    2
     3     4     3    1
     4     3     2    1
     5     9    10    1
     6     9     8    1
     7     2     1    2
     8     2     7    1
     9    10    11    1
    10     8     7    1
    11    14    13    2
    12    13    11    1
    13    13    15   am
    14    11    12    1
    15    15    16    1
    16    16    23    1
    17    16    17    1
    18    23    19    1
    19    17    18    1
    20    19    20    1
    21    19    18    1
    22    22    20   am
    23    20    21    2
