@<TRIPOS>MOLECULE
1p6j_HEM_A_1.pdb
 43 50 0 0 0
SMALL
GASTEIGER

@<TRIPOS>ATOM
      1 FE         15.8200    4.5110   24.3320 Fe    750  HEM750      0.0000
      2  CHA       13.0620    4.6110   26.3620 C.2   750  HEM750      0.0000
      3  CHB       16.8340    1.6390   25.9130 C.2   750  HEM750      0.0000
      4  CHC       17.6290    3.5390   21.5870 C.2   750  HEM750      0.0000
      5  CHD       14.6220    7.2110   22.6020 C.2   750  HEM750      0.0000
      6  NA        15.1080    3.3880   25.8300 N.2   750  HEM750      0.0000
      7  C1A       13.9320    3.5450   26.5280 C.2   750  HEM750      0.0000
      8  C2A       13.7740    2.5060   27.5250 C.2   750  HEM750      0.0000
      9  C3A       14.8650    1.7000   27.4400 C.2   750  HEM750      0.0000
     10  C4A       15.6860    2.2560   26.3940 C.2   750  HEM750      0.0000
     11  CMA       15.1830    0.4520   28.2780 C.3   750  HEM750      0.0000
     12  CAA       12.5260    2.2950   28.3640 C.3   750  HEM750      0.0000
     13  CBA       11.4710    1.5670   27.5160 C.3   750  HEM750      0.0000
     14  CGA       10.1580    1.3630   28.2520 C.2   750  HEM750      0.0000
     15  O1A       10.2030    1.0000   29.4430 O.co2 750  HEM750      0.0000
     16  O2A        9.0860    1.5570   27.6380 O.co2 750  HEM750      0.0000
     17  NB        17.0760    3.0070   23.9060 N.ar  750  HEM750      0.0000
     18  C1B       17.4770    1.9640   24.7430 C.ar  750  HEM750      0.0000
     19  C2B       18.5430    1.1600   24.1550 C.ar  750  HEM750      0.0000
     20  C3B       18.7510    1.6540   22.9220 C.ar  750  HEM750      0.0000
     21  C4B       17.8200    2.7860   22.7520 C.ar  750  HEM750      0.0000
     22  CMB       19.3530    0.0440   24.8280 C.3   750  HEM750      0.0000
     23  CAB       19.7210    1.1260   22.0480 C.2   750  HEM750      0.0000
     24  CBB       20.6230    1.8890   21.3830 C.2   750  HEM750      0.0000
     25  NC        16.0370    5.2000   22.4750 N.2   750  HEM750      0.0000
     26  C1C       16.7860    4.6540   21.4540 C.2   750  HEM750      0.0000
     27  C2C       16.8200    5.5230   20.2960 C.2   750  HEM750      0.0000
     28  C3C       16.0450    6.6210   20.6030 C.2   750  HEM750      0.0000
     29  C4C       15.5620    6.3970   21.9480 C.2   750  HEM750      0.0000
     30  CMC       17.5560    5.1810   18.9940 C.3   750  HEM750      0.0000
     31  CAC       15.6260    7.6640   19.7760 C.2   750  HEM750      0.0000
     32  CBC       16.3080    8.1550   18.7080 C.2   750  HEM750      0.0000
     33  ND        14.2870    5.7390   24.5520 N.ar  750  HEM750      0.0000
     34  C1D       13.9960    6.8880   23.8090 C.ar  750  HEM750      0.0000
     35  C2D       12.8020    7.5450   24.3080 C.ar  750  HEM750      0.0000
     36  C3D       12.3460    6.7770   25.3370 C.ar  750  HEM750      0.0000
     37  C4D       13.2340    5.6450   25.4590 C.ar  750  HEM750      0.0000
     38  CMD       12.1760    8.8370   23.7430 C.3   750  HEM750      0.0000
     39  CAD       11.0800    6.9750   26.1800 C.3   750  HEM750      0.0000
     40  CBD        9.9020    6.4200   25.3970 C.3   750  HEM750      0.0000
     41  CGD        8.6080    6.4390   26.1860 C.2   750  HEM750      0.0000
     42  O1D        8.3950    7.4030   26.9510 O.co2 750  HEM750      0.0000
     43  O2D        7.8010    5.4940   26.0280 O.co2 750  HEM750      0.0000
@<TRIPOS>BOND
     1    32    31    2
     2    30    27    1
     3    31    28    1
     4    27    28    2
     5    27    26    1
     6    28    29    1
     7    24    23    2
     8    26     4    2
     9    26    25    1
    10     4    21    1
    11    29    25    2
    12    29     5    1
    13    23    20    1
    14    25     1    1
    15     5    34    2
    16    21    20   ar
    17    21    17   ar
    18    20    19   ar
    19    38    35    1
    20    34    35   ar
    21    34    33   ar
    22    17     1    1
    23    17    18   ar
    24    19    18   ar
    25    19    22    1
    26    35    36   ar
    27     1    33    1
    28     1     6    1
    29    33    37   ar
    30    18     3    1
    31    36    37   ar
    32    36    39    1
    33    40    39    1
    34    40    41    1
    35    37     2    2
    36     6    10    1
    37     6     7    2
    38     3    10    2
    39    43    41   ar
    40    41    42   ar
    41     2     7    1
    42    10     9    1
    43     7     8    1
    44     9     8    2
    45     9    11    1
    46    13    14    1
    47    13    12    1
    48     8    12    1
    49    16    14   ar
    50    14    15   ar
