@<TRIPOS>MOLECULE
1p6k_HEM_A_1.pdb
 43 50 0 0 0
SMALL
GASTEIGER

@<TRIPOS>ATOM
      1  CHA       13.0400    4.5180   26.4130 C.2   750  HEM750      0.0000
      2  CHB       16.7230    1.4060   25.8740 C.2   750  HEM750      0.0000
      3  CHC       17.7210    3.4830   21.6760 C.2   750  HEM750      0.0000
      4  CHD       14.5320    7.0370   22.6060 C.2   750  HEM750      0.0000
      5  C1A       13.8830    3.4100   26.5430 C.2   750  HEM750      0.0000
      6  C2A       13.6390    2.3350   27.4970 C.2   750  HEM750      0.0000
      7  C3A       14.7330    1.5190   27.4350 C.2   750  HEM750      0.0000
      8  C4A       15.6340    2.0970   26.4140 C.2   750  HEM750      0.0000
      9  CMA       15.0000    0.2160   28.2110 C.3   750  HEM750      0.0000
     10  CAA       12.3670    2.1860   28.3330 C.3   750  HEM750      0.0000
     11  CBA       11.3180    1.4860   27.4760 C.3   750  HEM750      0.0000
     12  CGA       10.0060    1.2450   28.2000 C.2   750  HEM750      0.0000
     13  O1A       10.0220    0.8940   29.4030 O.co2 750  HEM750      0.0000
     14  O2A        8.9620    1.3870   27.5440 O.co2 750  HEM750      0.0000
     15  C1B       17.3650    1.7260   24.6960 C.ar  750  HEM750      0.0000
     16  C2B       18.4680    0.9490   24.1300 C.ar  750  HEM750      0.0000
     17  C3B       18.8040    1.5190   22.9660 C.ar  750  HEM750      0.0000
     18  C4B       17.8890    2.6780   22.8130 C.ar  750  HEM750      0.0000
     19  CMB       19.0860   -0.2760   24.7900 C.3   750  HEM750      0.0000
     20  CAB       19.9620    1.0940   22.2660 C.2   750  HEM750      0.0000
     21  CBB       20.3210    1.4350   21.0030 C.2   750  HEM750      0.0000
     22  C1C       16.8090    4.5590   21.4910 C.2   750  HEM750      0.0000
     23  C2C       16.7920    5.3810   20.2900 C.2   750  HEM750      0.0000
     24  C3C       16.0030    6.5000   20.6250 C.2   750  HEM750      0.0000
     25  C4C       15.5240    6.2690   21.9570 C.2   750  HEM750      0.0000
     26  CMC       17.4330    5.0480   18.9170 C.3   750  HEM750      0.0000
     27  CAC       15.5980    7.5720   19.8270 C.2   750  HEM750      0.0000
     28  CBC       16.0910    7.8930   18.6110 C.2   750  HEM750      0.0000
     29  C1D       13.9060    6.7000   23.8040 C.ar  750  HEM750      0.0000
     30  C2D       12.8430    7.4480   24.4050 C.ar  750  HEM750      0.0000
     31  C3D       12.3720    6.7210   25.4390 C.ar  750  HEM750      0.0000
     32  C4D       13.1820    5.5280   25.4970 C.ar  750  HEM750      0.0000
     33  CMD       12.4160    8.8270   23.9340 C.3   750  HEM750      0.0000
     34  CAD       11.1720    7.0160   26.3510 C.3   750  HEM750      0.0000
     35  CBD        9.9310    6.5610   25.6080 C.3   750  HEM750      0.0000
     36  CGD        8.6820    6.6360   26.4690 C.2   750  HEM750      0.0000
     37  O1D        8.5390    7.6110   27.2240 O.co2 750  HEM750      0.0000
     38  O2D        7.8480    5.7110   26.3820 O.co2 750  HEM750      0.0000
     39  NA        15.1050    3.2530   25.8540 N.2   750  HEM750      0.0000
     40  NB        17.0540    2.8280   23.9160 N.ar  750  HEM750      0.0000
     41  NC        15.9940    5.0820   22.5100 N.2   750  HEM750      0.0000
     42  ND        14.1690    5.5580   24.5270 N.ar  750  HEM750      0.0000
     43 FE         15.8000    4.4010   24.3740 Fe    750  HEM750      0.0000
@<TRIPOS>BOND
     1    28    27    2
     2    26    23    1
     3    27    24    1
     4    23    24    2
     5    23    22    1
     6    24    25    1
     7    21    20    2
     8    22     3    2
     9    22    41    1
    10     3    18    1
    11    25    41    2
    12    25     4    1
    13    20    17    1
    14    41    43    1
    15     4    29    2
    16    18    17   ar
    17    18    40   ar
    18    17    16   ar
    19    29    30   ar
    20    29    42   ar
    21    40    43    1
    22    40    15   ar
    23    33    30    1
    24    16    15   ar
    25    16    19    1
    26    43    42    1
    27    43    39    1
    28    30    31   ar
    29    42    32   ar
    30    15     2    1
    31    31    32   ar
    32    31    34    1
    33    32     1    2
    34    35    34    1
    35    35    36    1
    36    39     8    1
    37    39     5    2
    38     2     8    2
    39    38    36   ar
    40     1     5    1
    41     8     7    1
    42    36    37   ar
    43     5     6    1
    44     7     6    2
    45     7     9    1
    46    11    12    1
    47    11    10    1
    48     6    10    1
    49    14    12   ar
    50    12    13   ar
