@<TRIPOS>MOLECULE
1p6k_DP1_A_1.pdb
 22 21 0 0 0
SMALL
GASTEIGER

@<TRIPOS>ATOM
      1  NH2       14.6340   -0.2960   23.4720 N.pl3 790  DP1790      0.1343
      2  CZ        13.6150    0.4430   23.1160 C.cat 790  DP1790      0.5245
      3  NH1       13.7110    1.3330   22.2030 N.pl3 790  DP1790      0.1075
      4  NO        14.6890    1.4010   21.2240 N.pl3 790  DP1790      0.2221
      5  O2        14.5360    2.1440   20.2720 O.2   790  DP1790     -0.0910
      6  O3        15.7080    0.7370   21.3140 O.2   790  DP1790     -0.0910
      7  NE        12.4550    0.2480   23.7370 N.pl3 790  DP1790     -0.0874
      8  CD        11.2050    1.0110   23.4490 C.3   790  DP1790      0.2204
      9  CG        10.0090    0.2120   23.9640 C.3   790  DP1790      0.0489
     10  CB         8.6860    0.9920   23.8250 C.3   790  DP1790      0.0321
     11  CA         7.6190    0.5250   24.8370 C.3   790  DP1790      0.1694
     12  N          7.5270   -0.9310   24.7280 N.3   790  DP1790     -0.1231
     13  C          6.2170    1.1580   24.6200 C.2   790  DP1790      0.2592
     14  O          5.2350    0.4440   24.4680 O.2   790  DP1790     -0.2718
     15  N'         6.1200    2.4940   24.6270 N.am  790  DP1790     -0.1965
     16  CA'        4.8250    3.1980   24.4590 C.3   790  DP1790      0.1759
     17  C'         4.5470    3.6650   23.0200 C.2   790  DP1790      0.2806
     18  O'         3.3910    3.7590   22.5980 O.2   790  DP1790     -0.2698
     19  N1'        5.6110    3.9760   22.2700 N.am  790  DP1790     -0.0863
     20  CB'        4.7890    4.3810   25.4480 C.3   790  DP1790      0.0516
     21  C1         4.5900    3.9200   26.8990 C.3   790  DP1790      0.1116
     22  N1         5.0590    4.9820   27.7840 N.3   790  DP1790     -0.1313
@<TRIPOS>BOND
     1     5     4    2
     2     4     6    2
     3     4     3    1
     4     3     2    1
     5    19    17   am
     6    18    17    2
     7    17    16    1
     8     2     1    2
     9     2     7    1
    10     8     7    1
    11     8     9    1
    12    10     9    1
    13    10    11    1
    14    16    15    1
    15    16    20    1
    16    14    13    2
    17    13    15   am
    18    13    11    1
    19    12    11    1
    20    20    21    1
    21    21    22    1
