@<TRIPOS>MOLECULE
1p6k_H4B_A_1.pdb
 17 18 0 0 0
SMALL
GASTEIGER

@<TRIPOS>ATOM
      1  N1        10.0520    2.4990   33.7310 N.2   760  H4B760     -0.2683
      2  C2        10.2030    2.0960   32.4470 C.1   760  H4B760      0.2608
      3  N2        11.4030    1.9800   31.8670 N.pl3 760  H4B760     -0.0220
      4  N3         9.0840    1.8060   31.7270 N.2   760  H4B760     -0.2474
      5  C4         7.7600    1.9060   32.2410 C.1   760  H4B760      0.2441
      6  O4         6.8180    1.6210   31.5060 O.2   760  H4B760     -0.2063
      7  C4A        7.6920    2.3510   33.5820 C.2   760  H4B760      0.2463
      8  C8A        8.8240    2.6370   34.3350 C.1   760  H4B760      0.1270
      9  N5         6.3490    2.5020   34.1680 N.2   760  H4B760     -0.2460
     10  N8         8.7660    3.0390   35.6140 N.2   760  H4B760     -0.2054
     11  C6         6.3240    3.4990   35.3310 C.3   760  H4B760      0.1627
     12  C7         7.4660    3.1920   36.2980 C.3   760  H4B760      0.1643
     13  C9         4.9030    3.4160   35.9550 C.3   760  H4B760      0.2063
     14  O9         4.5160    2.1110   36.3830 O.3   760  H4B760     -0.2183
     15  C10        4.7360    4.3830   37.1560 C.3   760  H4B760      0.1842
     16  C11        3.3000    4.4320   37.5930 C.3   760  H4B760      0.0383
     17  O10        5.1550    5.6780   36.6610 O.3   760  H4B760     -0.2204
@<TRIPOS>BOND
     1     6     5    2
     2     4     5    2
     3     4     2    2
     4     3     2    1
     5     5     7    1
     6     2     1    2
     7     7     9    2
     8     7     8    1
     9     1     8    2
    10     9    11    1
    11     8    10    2
    12    11    13    1
    13    11    12    1
    14    10    12    1
    15    13    14    1
    16    13    15    1
    17    17    15    1
    18    15    16    1
