@<TRIPOS>MOLECULE
1p6k_MTL_A_1.pdb
 12 11 0 0 0
SMALL
GASTEIGER

@<TRIPOS>ATOM
      1  O1         1.3320    3.3120   24.4550 O.3   870  MTL870     -0.2175
      2  C1         0.3080    4.3190   24.3130 C.3   870  MTL870      0.2175
      3  C2        -0.7760    3.9010   23.2600 C.3   870  MTL870      0.2175
      4  O2        -0.2670    4.1310   21.9320 O.3   870  MTL870     -0.2175
      5  C3        -1.1990    2.4060   23.3940 C.3   870  MTL870      0.2175
      6  O3        -1.6270    2.1310   24.7450 O.3   870  MTL870     -0.2175
      7  C4        -2.3770    2.1100   22.4230 C.3   870  MTL870      0.2175
      8  O4        -3.5470    2.8140   22.8790 O.3   870  MTL870     -0.2175
      9  C5        -2.6730    0.5850   22.3790 C.3   870  MTL870      0.2175
     10  O5        -1.4920   -0.1240   21.9660 O.3   870  MTL870     -0.2175
     11  C6        -3.8140    0.2880   21.3650 C.3   870  MTL870      0.2175
     12  O6        -4.2810   -1.0540   21.5490 O.3   870  MTL870     -0.2175
@<TRIPOS>BOND
     1    11    12    1
     2    11     9    1
     3     4     3    1
     4    10     9    1
     5     9     7    1
     6     7     8    1
     7     7     5    1
     8     3     5    1
     9     3     2    1
    10     5     6    1
    11     2     1    1
