@<TRIPOS>MOLECULE
1p6l_HEM_A_1.pdb
 43 50 0 0 0
SMALL
GASTEIGER

@<TRIPOS>ATOM
      1  CHA        9.3170    9.0420   35.0880 C.2   500  HEM500      0.0000
      2  CHB        4.6970    9.0380   33.6080 C.2   500  HEM500      0.0000
      3  CHC        6.1610    7.3220   29.3310 C.2   500  HEM500      0.0000
      4  CHD       10.6450    6.6780   31.1650 C.2   500  HEM500      0.0000
      5  C1A        7.9760    9.3430   34.9390 C.2   500  HEM500      0.0000
      6  C2A        7.2280   10.1370   35.8950 C.2   500  HEM500      0.0000
      7  C3A        5.8810   10.0620   35.5570 C.2   500  HEM500      0.0000
      8  C4A        5.8470    9.2470   34.3490 C.2   500  HEM500      0.0000
      9  CMA        4.6690   10.6900   36.2680 C.3   500  HEM500      0.0000
     10  CAA        7.8810   10.9460   37.0130 C.3   500  HEM500      0.0000
     11  CBA        8.1870   12.3400   36.4970 C.3   500  HEM500      0.0000
     12  CGA        8.9170   13.2100   37.5130 C.2   500  HEM500      0.0000
     13  O1A        8.4420   13.3070   38.6600 O.co2 500  HEM500      0.0000
     14  O2A        9.9630   13.8040   37.1540 O.co2 500  HEM500      0.0000
     15  C1B        4.6760    8.4420   32.3530 C.ar  500  HEM500      0.0000
     16  C2B        3.5040    8.3960   31.5370 C.ar  500  HEM500      0.0000
     17  C3B        3.8790    7.9000   30.3200 C.ar  500  HEM500      0.0000
     18  C4B        5.3120    7.6560   30.4160 C.ar  500  HEM500      0.0000
     19  CMB        2.1200    8.8560   31.9580 C.3   500  HEM500      0.0000
     20  CAB        3.0460    7.7920   29.2160 C.2   500  HEM500      0.0000
     21  CBB        3.0910    6.7790   28.2960 C.2   500  HEM500      0.0000
     22  C1C        7.5300    7.0960   29.4520 C.2   500  HEM500      0.0000
     23  C2C        8.3720    6.6450   28.3590 C.2   500  HEM500      0.0000
     24  C3C        9.6240    6.3830   28.8850 C.2   500  HEM500      0.0000
     25  C4C        9.5400    6.7340   30.2920 C.2   500  HEM500      0.0000
     26  CMC        7.9540    6.5330   26.9040 C.3   500  HEM500      0.0000
     27  CAC       10.7900    5.8790   28.2670 C.2   500  HEM500      0.0000
     28  CBC       10.9110    5.2120   27.0870 C.2   500  HEM500      0.0000
     29  C1D       10.6290    7.1290   32.4340 C.ar  500  HEM500      0.0000
     30  C2D       11.8010    7.2340   33.2850 C.ar  500  HEM500      0.0000
     31  C3D       11.4270    7.9390   34.3790 C.ar  500  HEM500      0.0000
     32  C4D       10.0270    8.2490   34.2050 C.ar  500  HEM500      0.0000
     33  CMD       13.2150    6.6810   33.1140 C.3   500  HEM500      0.0000
     34  CAD       12.3080    8.4070   35.5460 C.3   500  HEM500      0.0000
     35  CBD       13.2770    9.4960   35.1160 C.3   500  HEM500      0.0000
     36  CGD       13.9040   10.2000   36.2930 C.2   500  HEM500      0.0000
     37  O1D       14.4370    9.5000   37.1760 O.co2 500  HEM500      0.0000
     38  O2D       13.8670   11.4520   36.3290 O.co2 500  HEM500      0.0000
     39  NA         7.1370    8.7980   33.9640 N.2   500  HEM500      0.0000
     40  NB         5.7830    7.9390   31.6970 N.ar  500  HEM500      0.0000
     41  NC         8.2380    7.1420   30.6490 N.2   500  HEM500      0.0000
     42  ND         9.5160    7.6970   33.0200 N.ar  500  HEM500      0.0000
     43 FE          7.5990    7.6180   32.4470 Fe    500  HEM500      0.0000
@<TRIPOS>BOND
     1    26    23    1
     2    28    27    2
     3    27    24    1
     4    21    20    2
     5    23    24    2
     6    23    22    1
     7    24    25    1
     8    20    17    1
     9     3    22    2
    10     3    18    1
    11    22    41    1
    12    25    41    2
    13    25     4    1
    14    17    18   ar
    15    17    16   ar
    16    18    40   ar
    17    41    43    1
    18     4    29    2
    19    16    19    1
    20    16    15   ar
    21    40    15   ar
    22    40    43    1
    23    15     2    1
    24    29    42   ar
    25    29    30   ar
    26    43    42    1
    27    43    39    1
    28    42    32   ar
    29    33    30    1
    30    30    31   ar
    31     2     8    2
    32    39     8    1
    33    39     5    2
    34    32    31   ar
    35    32     1    2
    36     8     7    1
    37    31    34    1
    38     5     1    1
    39     5     6    1
    40    35    34    1
    41    35    36    1
    42     7     6    2
    43     7     9    1
    44     6    10    1
    45    36    38   ar
    46    36    37   ar
    47    11    10    1
    48    11    12    1
    49    14    12   ar
    50    12    13   ar
