@<TRIPOS>MOLECULE
1p6l_DP1_A_1.pdb
 22 21 0 0 0
SMALL
GASTEIGER

@<TRIPOS>ATOM
      1  NH2        5.6440   12.3030   31.5770 N.pl3 790  DP1790      0.1343
      2  CZ         6.9270   12.3020   31.5400 C.cat 790  DP1790      0.5245
      3  NH1        7.5820   11.5130   30.7740 N.pl3 790  DP1790      0.1075
      4  NO         7.1110   10.8670   29.6540 N.pl3 790  DP1790      0.2221
      5  O2         7.9050   10.4280   28.8550 O.2   790  DP1790     -0.0910
      6  O3         5.9180   10.7290   29.4680 O.2   790  DP1790     -0.0910
      7  NE         7.5530   13.1590   32.3350 N.pl3 790  DP1790     -0.0874
      8  CD         9.0200   13.3120   32.4390 C.3   790  DP1790      0.2204
      9  CG         9.3230   14.1170   33.6990 C.3   790  DP1790      0.0489
     10  CB        10.4870   15.0770   33.4730 C.3   790  DP1790      0.0321
     11  CA        10.7050   16.0460   34.6380 C.3   790  DP1790      0.1694
     12  N          9.8040   17.1850   34.4450 N.3   790  DP1790     -0.1231
     13  C         12.1820   16.4900   34.7480 C.2   790  DP1790      0.2592
     14  O         12.5110   17.6690   34.6400 O.2   790  DP1790     -0.2718
     15  N'        13.0650   15.5270   34.9740 N.am  790  DP1790     -0.1965
     16  CA'       14.5090   15.7590   35.1250 C.3   790  DP1790      0.1759
     17  C'        15.2510   15.8730   33.7750 C.2   790  DP1790      0.2806
     18  O'        14.6920   15.6610   32.6960 O.2   790  DP1790     -0.2698
     19  N1'       16.5360   16.2150   33.8470 N.am  790  DP1790     -0.0863
     20  CB'       15.0560   14.6180   35.9950 C.3   790  DP1790      0.0516
     21  C1        14.8330   14.8630   37.4980 C.3   790  DP1790      0.1116
     22  N1        15.3860   13.7270   38.2630 N.3   790  DP1790     -0.1313
@<TRIPOS>BOND
     1     5     4    2
     2     6     4    2
     3     4     3    1
     4     3     2    1
     5     2     1    2
     6     2     7    1
     7     7     8    1
     8     8     9    1
     9    18    17    2
    10    10     9    1
    11    10    11    1
    12    17    19   am
    13    17    16    1
    14    12    11    1
    15    11    13    1
    16    14    13    2
    17    13    15   am
    18    15    16    1
    19    16    20    1
    20    20    21    1
    21    21    22    1
