@<TRIPOS>MOLECULE
1p6l_H4B_A_1.pdb
 17 18 0 0 0
SMALL
GASTEIGER

@<TRIPOS>ATOM
      1  N1         8.3460   11.7250   42.8580 N.2   760  H4B760     -0.2683
      2  C2         8.2620   12.1000   41.5600 C.1   760  H4B760      0.2608
      3  N2         7.4480   11.5220   40.6930 N.pl3 760  H4B760     -0.0220
      4  N3         9.0510   13.1110   41.1470 N.2   760  H4B760     -0.2474
      5  C4         9.9640   13.8180   41.9500 C.1   760  H4B760      0.2441
      6  O4        10.6310   14.7270   41.4390 O.2   760  H4B760     -0.2063
      7  C4A       10.0030   13.3780   43.2850 C.2   760  H4B760      0.2463
      8  C8A        9.2050   12.3420   43.7480 C.1   760  H4B760      0.1270
      9  N5        10.9370   14.0600   44.1850 N.2   760  H4B760     -0.2460
     10  N8         9.2380   11.9210   45.0120 N.2   760  H4B760     -0.2054
     11  C6        11.3640   13.2050   45.3870 C.3   760  H4B760      0.1627
     12  C7        10.1340   12.5390   46.0050 C.3   760  H4B760      0.1643
     13  C9        12.1450   14.1430   46.3350 C.3   760  H4B760      0.2063
     14  O9        11.4190   15.3070   46.7180 O.3   760  H4B760     -0.2183
     15  C10       12.6220   13.4140   47.6210 C.3   760  H4B760      0.1842
     16  C11       13.5460   14.2550   48.4280 C.3   760  H4B760      0.0383
     17  O10       13.3110   12.2590   47.1490 O.3   760  H4B760     -0.2204
@<TRIPOS>BOND
     1     3     2    1
     2     4     2    2
     3     4     5    2
     4     6     5    2
     5     2     1    2
     6     5     7    1
     7     1     8    2
     8     7     8    1
     9     7     9    2
    10     8    10    2
    11     9    11    1
    12    10    12    1
    13    11    12    1
    14    11    13    1
    15    13    14    1
    16    13    15    1
    17    17    15    1
    18    15    16    1
