@<TRIPOS>MOLECULE
1p6m_HEM_A_1.pdb
 43 50 0 0 0
SMALL
GASTEIGER

@<TRIPOS>ATOM
      1  CHA        9.1750    8.9630   35.0550 C.2   500  HEM500      0.0000
      2  CHB        4.5260    8.9140   33.5270 C.2   500  HEM500      0.0000
      3  CHC        6.0810    7.3350   29.2880 C.2   500  HEM500      0.0000
      4  CHD       10.5210    6.5760   31.1210 C.2   500  HEM500      0.0000
      5  C1A        7.8030    9.2090   34.9050 C.2   500  HEM500      0.0000
      6  C2A        7.0180   10.0610   35.7990 C.2   500  HEM500      0.0000
      7  C3A        5.6870    9.9470   35.4610 C.2   500  HEM500      0.0000
      8  C4A        5.6830    9.1060   34.2800 C.2   500  HEM500      0.0000
      9  CMA        4.4440   10.4900   36.1870 C.3   500  HEM500      0.0000
     10  CAA        7.6470   10.9240   36.8740 C.3   500  HEM500      0.0000
     11  CBA        7.7390   12.3960   36.5280 C.3   500  HEM500      0.0000
     12  CGA        8.5070   13.1830   37.5750 C.2   500  HEM500      0.0000
     13  O1A        8.2490   12.9740   38.7780 O.co2 500  HEM500      0.0000
     14  O2A        9.3610   14.0150   37.1990 O.co2 500  HEM500      0.0000
     15  C1B        4.5110    8.3000   32.3000 C.ar  500  HEM500      0.0000
     16  C2B        3.3470    8.2360   31.4630 C.ar  500  HEM500      0.0000
     17  C3B        3.7500    7.7210   30.2840 C.ar  500  HEM500      0.0000
     18  C4B        5.2030    7.5660   30.3610 C.ar  500  HEM500      0.0000
     19  CMB        1.9630    8.7540   31.8030 C.3   500  HEM500      0.0000
     20  CAB        2.8990    7.4790   29.2260 C.2   500  HEM500      0.0000
     21  CBB        3.0930    6.5390   28.2560 C.2   500  HEM500      0.0000
     22  C1C        7.4390    7.1390   29.4070 C.2   500  HEM500      0.0000
     23  C2C        8.2840    6.6910   28.3140 C.2   500  HEM500      0.0000
     24  C3C        9.5070    6.3100   28.8490 C.2   500  HEM500      0.0000
     25  C4C        9.3910    6.5770   30.2710 C.2   500  HEM500      0.0000
     26  CMC        7.8690    6.5810   26.8630 C.3   500  HEM500      0.0000
     27  CAC       10.6720    5.8190   28.2190 C.2   500  HEM500      0.0000
     28  CBC       10.7390    5.1140   27.0550 C.2   500  HEM500      0.0000
     29  C1D       10.5420    7.1430   32.3630 C.ar  500  HEM500      0.0000
     30  C2D       11.7140    7.2530   33.1910 C.ar  500  HEM500      0.0000
     31  C3D       11.3040    7.9070   34.2890 C.ar  500  HEM500      0.0000
     32  C4D        9.9200    8.2410   34.1490 C.ar  500  HEM500      0.0000
     33  CMD       13.1660    6.8510   32.9080 C.3   500  HEM500      0.0000
     34  CAD       12.1810    8.3270   35.4300 C.3   500  HEM500      0.0000
     35  CBD       12.8820    9.5960   34.9950 C.3   500  HEM500      0.0000
     36  CGD       13.5260   10.3070   36.1480 C.2   500  HEM500      0.0000
     37  O1D       14.2310    9.6310   36.9270 O.co2 500  HEM500      0.0000
     38  O2D       13.3300   11.5340   36.2700 O.co2 500  HEM500      0.0000
     39  NA         6.9900    8.6550   33.9260 N.2   500  HEM500      0.0000
     40  NB         5.6490    7.8470   31.6360 N.ar  500  HEM500      0.0000
     41  NC         8.1110    7.0950   30.6060 N.2   500  HEM500      0.0000
     42  ND         9.4250    7.7190   32.9690 N.ar  500  HEM500      0.0000
     43 FE          7.5010    7.6430   32.3650 Fe    500  HEM500      0.0000
@<TRIPOS>BOND
     1    26    23    1
     2    28    27    2
     3    27    24    1
     4    21    20    2
     5    23    24    2
     6    23    22    1
     7    24    25    1
     8    20    17    1
     9     3    22    2
    10     3    18    1
    11    22    41    1
    12    25    41    2
    13    25     4    1
    14    17    18   ar
    15    17    16   ar
    16    18    40   ar
    17    41    43    1
    18     4    29    2
    19    16    19    1
    20    16    15   ar
    21    40    15   ar
    22    40    43    1
    23    15     2    1
    24    29    42   ar
    25    29    30   ar
    26    43    42    1
    27    43    39    1
    28    33    30    1
    29    42    32   ar
    30    30    31   ar
    31     2     8    2
    32    39     8    1
    33    39     5    2
    34    32    31   ar
    35    32     1    2
    36     8     7    1
    37    31    34    1
    38     5     1    1
    39     5     6    1
    40    35    34    1
    41    35    36    1
    42     7     6    2
    43     7     9    1
    44     6    10    1
    45    36    38   ar
    46    36    37   ar
    47    11    10    1
    48    11    12    1
    49    14    12   ar
    50    12    13   ar
