@<TRIPOS>MOLECULE
1p6m_H4B_A_1.pdb
 17 18 0 0 0
SMALL
GASTEIGER

@<TRIPOS>ATOM
      1  N1         8.3050   11.5540   42.9200 N.2   760  H4B760     -0.2683
      2  C2         8.2320   11.9210   41.6200 C.1   760  H4B760      0.2608
      3  N2         7.4710   11.2980   40.7420 N.pl3 760  H4B760     -0.0220
      4  N3         8.9760   12.9730   41.2200 N.2   760  H4B760     -0.2474
      5  C4         9.8300   13.7200   42.0540 C.1   760  H4B760      0.2441
      6  O4        10.4630   14.6660   41.5720 O.2   760  H4B760     -0.2063
      7  C4A        9.8530   13.2770   43.3850 C.2   760  H4B760      0.2463
      8  C8A        9.1050   12.2100   43.8270 C.1   760  H4B760      0.1270
      9  N5        10.7250   14.0010   44.2990 N.2   760  H4B760     -0.2460
     10  N8         9.1290   11.7940   45.0910 N.2   760  H4B760     -0.2054
     11  C6        11.1780   13.1700   45.4950 C.3   760  H4B760      0.1627
     12  C7         9.9710   12.4620   46.0990 C.3   760  H4B760      0.1643
     13  C9        11.8940   14.1490   46.4220 C.3   760  H4B760      0.2063
     14  O9        11.1010   15.2720   46.7830 O.3   760  H4B760     -0.2183
     15  C10       12.4170   13.4660   47.7120 C.3   760  H4B760      0.1842
     16  C11       13.3030   14.3670   48.4910 C.3   760  H4B760      0.0383
     17  O10       13.1660   12.3370   47.2560 O.3   760  H4B760     -0.2204
@<TRIPOS>BOND
     1     3     2    1
     2     4     2    2
     3     4     5    2
     4     6     5    2
     5     2     1    2
     6     5     7    1
     7     1     8    2
     8     7     8    1
     9     7     9    2
    10     8    10    2
    11     9    11    1
    12    10    12    1
    13    11    12    1
    14    11    13    1
    15    13    14    1
    16    13    15    1
    17    17    15    1
    18    15    16    1
