@<TRIPOS>MOLECULE
1p6m_DP3_A_1.pdb
 17 16 0 0 0
SMALL
GASTEIGER

@<TRIPOS>ATOM
      1  N2'       14.3970   15.1780   39.6400 N.3   793  DP3793     -0.1298
      2  C2'       14.4940   16.3910   38.7660 C.3   793  DP3793      0.1280
      3  C1'       13.2480   16.6130   37.8610 C.3   793  DP3793      0.1092
      4  N1'       12.5840   15.3600   37.3730 N.3   793  DP3793     -0.2150
      5  C         13.0160   14.8660   36.0250 C.3   793  DP3793      0.1077
      6  CA        11.9950   15.1310   34.8590 C.3   793  DP3793      0.1093
      7  N         12.7790   15.3430   33.6080 N.3   793  DP3793     -0.1314
      8  CB        11.0240   13.9390   34.5450 C.3   793  DP3793      0.0242
      9  CG         9.7190   14.3540   33.8310 C.3   793  DP3793      0.0485
     10  CD         9.3000   13.3830   32.7240 C.3   793  DP3793      0.2204
     11  NE         7.8260   13.0660   32.7620 N.pl3 793  DP3793     -0.0874
     12  CZ         7.1280   12.2980   31.9230 C.cat 793  DP3793      0.5245
     13  NH2        5.8100   12.1810   32.1820 N.pl3 793  DP3793      0.1343
     14  NH1        7.7440   11.6870   30.8690 N.pl3 793  DP3793      0.1075
     15  NO         7.0250   11.0430   29.8540 N.pl3 793  DP3793      0.2221
     16  O2         7.6840   10.5060   28.9050 O.2   793  DP3793     -0.0910
     17  O3         5.7400   10.9680   29.8330 O.2   793  DP3793     -0.0910
@<TRIPOS>BOND
     1    16    15    2
     2    17    15    2
     3    15    14    1
     4    14    12    1
     5    12    13    2
     6    12    11    1
     7    10    11    1
     8    10     9    1
     9     7     6    1
    10     9     8    1
    11     8     6    1
    12     6     5    1
    13     5     4    1
    14     4     3    1
    15     3     2    1
    16     2     1    1
