@<TRIPOS>MOLECULE
1p6n_H4B_A_1.pdb
 17 18 0 0 0
SMALL
GASTEIGER

@<TRIPOS>ATOM
      1  N1         8.2970   11.7210   42.9220 N.2   760  H4B760     -0.2683
      2  C2         8.2190   12.0420   41.6100 C.1   760  H4B760      0.2608
      3  N2         7.4240   11.4250   40.7630 N.pl3 760  H4B760     -0.0220
      4  N3         8.9930   13.0430   41.1590 N.2   760  H4B760     -0.2474
      5  C4         9.8960   13.7940   41.9360 C.1   760  H4B760      0.2441
      6  O4        10.5460   14.6900   41.3790 O.2   760  H4B760     -0.2063
      7  C4A        9.9320   13.4060   43.2970 C.2   760  H4B760      0.2463
      8  C8A        9.1440   12.3790   43.7920 C.1   760  H4B760      0.1270
      9  N5        10.8520   14.1260   44.1790 N.2   760  H4B760     -0.2460
     10  N8         9.1640   12.0040   45.0720 N.2   760  H4B760     -0.2054
     11  C6        11.2760   13.3080   45.4150 C.3   760  H4B760      0.1627
     12  C7        10.0410   12.6650   46.0460 C.3   760  H4B760      0.1643
     13  C9        12.0520   14.2750   46.3410 C.3   760  H4B760      0.2063
     14  O9        11.3130   15.4320   46.7080 O.3   760  H4B760     -0.2183
     15  C10       12.5460   13.5940   47.6410 C.3   760  H4B760      0.1842
     16  C11       13.4690   14.4720   48.4050 C.3   760  H4B760      0.0383
     17  O10       13.2460   12.4320   47.2060 O.3   760  H4B760     -0.2204
@<TRIPOS>BOND
     1     3     2    1
     2     4     2    2
     3     4     5    2
     4     6     5    2
     5     2     1    2
     6     5     7    1
     7     1     8    2
     8     7     8    1
     9     7     9    2
    10     8    10    2
    11     9    11    1
    12    10    12    1
    13    11    12    1
    14    11    13    1
    15    13    14    1
    16    13    15    1
    17    17    15    1
    18    15    16    1
