@<TRIPOS>MOLECULE
1p6n_DP9_A_1.pdb
 23 23 0 0 0
SMALL
GASTEIGER

@<TRIPOS>ATOM
      1  NH2        5.5580   11.9470   31.3140 N.pl3 799  DP9799      0.1343
      2  CZ         6.8780   12.0160   31.3840 C.cat 799  DP9799      0.5245
      3  NH1        7.6530   11.3650   30.5410 N.pl3 799  DP9799      0.1075
      4  NO         7.3710   10.8830   29.3350 N.pl3 799  DP9799      0.2221
      5  O2         8.3450   10.3960   28.6510 O.2   799  DP9799     -0.0910
      6  O3         6.1740   10.8980   28.8350 O.2   799  DP9799     -0.0910
      7  NE         7.3720   12.7680   32.3370 N.pl3 799  DP9799     -0.0874
      8  CD         8.7450   13.0790   32.7110 C.3   799  DP9799      0.2204
      9  CG         8.6730   14.1400   33.7900 C.3   799  DP9799      0.0489
     10  CB         9.8090   15.1460   33.7200 C.3   799  DP9799      0.0321
     11  CA         9.7730   16.1730   34.8630 C.3   799  DP9799      0.1694
     12  N          8.6490   17.1200   34.5690 N.3   799  DP9799     -0.1231
     13  C         11.1460   16.8750   35.0480 C.2   799  DP9799      0.2588
     14  O         11.2800   18.0960   34.8440 O.2   799  DP9799     -0.2718
     15  N2'       12.1610   16.0490   35.4140 N.am  799  DP9799     -0.2044
     16  CG'       13.5330   16.4380   35.9280 C.3   799  DP9799      0.1146
     17  CD'       13.5160   17.2200   37.2660 C.3   799  DP9799      0.1108
     18  N'        13.6080   16.1350   38.2720 N.3   799  DP9799     -0.2083
     19  CA'       14.1510   14.8680   37.7140 C.3   799  DP9799      0.1538
     20  C'        15.4590   14.6160   38.4990 C.2   799  DP9799      0.2766
     21  O'        16.1460   15.5410   38.9460 O.2   799  DP9799     -0.2701
     22  N1'       15.8960   13.3860   38.7170 N.am  799  DP9799     -0.0866
     23  CB'       14.4250   15.2260   36.2430 C.3   799  DP9799      0.0499
@<TRIPOS>BOND
     1     5     4    2
     2     6     4    2
     3     4     3    1
     4     3     2    1
     5     1     2    2
     6     2     7    1
     7     7     8    1
     8     8     9    1
     9    10     9    1
    10    10    11    1
    11    12    11    1
    12    14    13    2
    13    11    13    1
    14    13    15   am
    15    15    16    1
    16    16    23    1
    17    16    17    1
    18    23    19    1
    19    17    18    1
    20    19    18    1
    21    19    20    1
    22    20    22   am
    23    20    21    2
