@<TRIPOS>MOLECULE
1p6n_HEM_A_1.pdb
 43 50 0 0 0
SMALL
GASTEIGER

@<TRIPOS>ATOM
      1  CHA        9.2050    9.0530   35.0120 C.2   500  HEM500      0.0000
      2  CHB        4.5840    8.9980   33.4710 C.2   500  HEM500      0.0000
      3  CHC        6.0960    7.3320   29.2460 C.2   500  HEM500      0.0000
      4  CHD       10.5450    6.7450   31.0760 C.2   500  HEM500      0.0000
      5  C1A        7.8300    9.3090   34.8660 C.2   500  HEM500      0.0000
      6  C2A        7.0190   10.0940   35.7950 C.2   500  HEM500      0.0000
      7  C3A        5.6870   10.0270   35.4450 C.2   500  HEM500      0.0000
      8  C4A        5.7010    9.2300   34.2310 C.2   500  HEM500      0.0000
      9  CMA        4.4940   10.6420   36.1950 C.3   500  HEM500      0.0000
     10  CAA        7.6010   10.8710   36.9450 C.3   500  HEM500      0.0000
     11  CBA        7.8340   12.3140   36.5460 C.3   500  HEM500      0.0000
     12  CGA        8.5170   13.1140   37.6450 C.2   500  HEM500      0.0000
     13  O1A        8.0330   13.0270   38.7910 O.co2 500  HEM500      0.0000
     14  O2A        9.5180   13.8240   37.3650 O.co2 500  HEM500      0.0000
     15  C1B        4.5840    8.3910   32.2440 C.ar  500  HEM500      0.0000
     16  C2B        3.4020    8.3120   31.4210 C.ar  500  HEM500      0.0000
     17  C3B        3.7850    7.8020   30.2260 C.ar  500  HEM500      0.0000
     18  C4B        5.2390    7.6510   30.3170 C.ar  500  HEM500      0.0000
     19  CMB        2.0280    8.8520   31.7950 C.3   500  HEM500      0.0000
     20  CAB        2.9010    7.5590   29.2030 C.2   500  HEM500      0.0000
     21  CBB        3.1440    6.9770   27.9970 C.2   500  HEM500      0.0000
     22  C1C        7.4790    7.1520   29.3550 C.2   500  HEM500      0.0000
     23  C2C        8.3460    6.7010   28.2900 C.2   500  HEM500      0.0000
     24  C3C        9.5950    6.4630   28.7990 C.2   500  HEM500      0.0000
     25  C4C        9.4630    6.8000   30.1970 C.2   500  HEM500      0.0000
     26  CMC        7.9300    6.3790   26.9000 C.3   500  HEM500      0.0000
     27  CAC       10.8030    5.9930   28.2020 C.2   500  HEM500      0.0000
     28  CBC       10.9570    5.3570   27.0010 C.2   500  HEM500      0.0000
     29  C1D       10.5200    7.1720   32.3440 C.ar  500  HEM500      0.0000
     30  C2D       11.7210    7.3270   33.1130 C.ar  500  HEM500      0.0000
     31  C3D       11.3290    8.0230   34.2020 C.ar  500  HEM500      0.0000
     32  C4D        9.9300    8.3000   34.0970 C.ar  500  HEM500      0.0000
     33  CMD       13.1880    6.9450   32.7900 C.3   500  HEM500      0.0000
     34  CAD       12.2010    8.5080   35.3350 C.3   500  HEM500      0.0000
     35  CBD       13.1560    9.6300   34.9650 C.3   500  HEM500      0.0000
     36  CGD       13.8520   10.1870   36.1850 C.2   500  HEM500      0.0000
     37  O1D       14.3230    9.3720   37.0050 O.co2 500  HEM500      0.0000
     38  O2D       13.9290   11.4280   36.3220 O.co2 500  HEM500      0.0000
     39  NA         7.0050    8.7900   33.8710 N.2   500  HEM500      0.0000
     40  NB         5.6930    7.9670   31.5980 N.ar  500  HEM500      0.0000
     41  NC         8.1510    7.2170   30.5440 N.2   500  HEM500      0.0000
     42  ND         9.4210    7.7310   32.9390 N.ar  500  HEM500      0.0000
     43 FE          7.5020    7.7360   32.3410 Fe    500  HEM500      0.0000
@<TRIPOS>BOND
     1    26    23    1
     2    28    27    2
     3    21    20    2
     4    27    24    1
     5    23    24    2
     6    23    22    1
     7    24    25    1
     8    20    17    1
     9     3    22    2
    10     3    18    1
    11    22    41    1
    12    25    41    2
    13    25     4    1
    14    17    18   ar
    15    17    16   ar
    16    18    40   ar
    17    41    43    1
    18     4    29    2
    19    16    19    1
    20    16    15   ar
    21    40    15   ar
    22    40    43    1
    23    15     2    1
    24    43    42    1
    25    43    39    1
    26    29    42   ar
    27    29    30   ar
    28    33    30    1
    29    42    32   ar
    30    30    31   ar
    31     2     8    2
    32    39     8    1
    33    39     5    2
    34    32    31   ar
    35    32     1    2
    36    31    34    1
    37     8     7    1
    38     5     1    1
    39     5     6    1
    40    35    34    1
    41    35    36    1
    42     7     6    2
    43     7     9    1
    44     6    10    1
    45    36    38   ar
    46    36    37   ar
    47    11    10    1
    48    11    12    1
    49    14    12   ar
    50    12    13   ar
