@<TRIPOS>MOLECULE
1p6w_GTM_A_1.pdb
 13 13 0 0 0
SMALL
GASTEIGER

@<TRIPOS>ATOM
      1  C1        53.4860   26.3430   -6.9330 C.3   5003  GTM5003     0.2694
      2  C2        53.0490   25.6460   -5.6690 C.3   5003  GTM5003     0.2389
      3  C3        52.8310   24.2000   -6.1030 C.3   5003  GTM5003     0.2003
      4  C4        51.8160   24.0930   -7.2850 C.3   5003  GTM5003     0.1208
      5  C5        52.0870   25.1600   -8.3830 C.3   5003  GTM5003     0.1639
      6  C6        50.9410   25.3520   -9.3400 C.3   5003  GTM5003     0.2125
      7  C7        55.2520   27.7170   -7.3570 C.3   5003  GTM5003     0.1769
      8  O1        54.0200   27.5890   -6.6970 O.3   5003  GTM5003    -0.3259
      9  O2        54.0650   25.7360   -4.6780 O.3   5003  GTM5003    -0.2149
     10  O3        52.3910   23.4210   -5.0050 O.3   5003  GTM5003    -0.2192
     11  S4        51.8890   22.4720   -8.0310 S.3   5003  GTM5003    -0.0776
     12  O5        52.3670   26.4420   -7.8010 O.3   5003  GTM5003    -0.3274
     13  O6        49.7640   25.7020   -8.6330 O.3   5003  GTM5003    -0.2177
@<TRIPOS>BOND
     1     6    13    1
     2     6     5    1
     3     5    12    1
     4     5     4    1
     5    11     4    1
     6    12     1    1
     7     7     8    1
     8     4     3    1
     9     1     8    1
    10     1     2    1
    11     3     2    1
    12     3    10    1
    13     2     9    1
