@<TRIPOS>MOLECULE
1p6w_GLC_A_1.pdb
 11 11 0 0 0
SMALL
GASTEIGER

@<TRIPOS>ATOM
      1  C1        27.4130    1.6790   10.7940 C.3   6000  GLC6000     0.1777
      2  C2        26.1600    1.7060   11.6930 C.3   6000  GLC6000     0.2141
      3  C3        24.9070    1.2910   10.8920 C.3   6000  GLC6000     0.2173
      4  C4        24.7930    2.0710    9.5680 C.3   6000  GLC6000     0.2142
      5  C5        26.1250    2.0790    8.7950 C.3   6000  GLC6000     0.1810
      6  C6        26.0700    3.0320    7.6150 C.3   6000  GLC6000     0.2141
      7  O2        26.3390    0.8240   12.7990 O.3   6000  GLC6000    -0.2176
      8  O3        23.7430    1.5380   11.6730 O.3   6000  GLC6000    -0.2175
      9  O4        23.7740    1.4890    8.7560 O.3   6000  GLC6000    -0.2176
     10  O5        27.2120    2.5260    9.6440 O.3   6000  GLC6000    -0.3481
     11  O6        27.0320    2.6990    6.6270 O.3   6000  GLC6000    -0.2176
@<TRIPOS>BOND
     1    11     6    1
     2     6     5    1
     3     9     4    1
     4     5     4    1
     5     5    10    1
     6     4     3    1
     7    10     1    1
     8     1     2    1
     9     3     8    1
    10     3     2    1
    11     2     7    1
