@<TRIPOS>MOLECULE
1p6w_SGC_A_1.pdb
 11 11 0 0 0
SMALL
GASTEIGER

@<TRIPOS>ATOM
      1  C1        49.9350   17.8590  -11.7430 C.3   5001  SGC5001     0.1776
      2  C2        50.5410   16.5390  -12.2490 C.3   5001  SGC5001     0.2124
      3  O2        51.4000   16.0000  -11.2550 O.3   5001  SGC5001    -0.2177
      4  C3        51.3250   16.7860  -13.5490 C.3   5001  SGC5001     0.1977
      5  O3        51.8440   15.5620  -14.0540 O.3   5001  SGC5001    -0.2193
      6  C4        50.3540   17.3840  -14.5520 C.3   5001  SGC5001     0.1206
      7  C5        49.8560   18.7290  -14.0120 C.3   5001  SGC5001     0.1614
      8  O5        49.1440   18.5060  -12.7650 O.3   5001  SGC5001    -0.3498
      9  C6        48.8660   19.3780  -14.9660 C.3   5001  SGC5001     0.2124
     10  O6        47.7710   18.5060  -15.2340 O.3   5001  SGC5001    -0.2177
     11  S4        50.9220   17.3840  -16.2910 S.3   5001  SGC5001    -0.0777
@<TRIPOS>BOND
     1    11     6    1
     2    10     9    1
     3     9     7    1
     4     6     7    1
     5     6     4    1
     6     5     4    1
     7     7     8    1
     8     4     2    1
     9     8     1    1
    10     2     1    1
    11     2     3    1
