@<TRIPOS>MOLECULE
1p6x_THM_A_1.pdb
 17 18 0 0 0
SMALL
GASTEIGER

@<TRIPOS>ATOM
      1  O5'       24.3290   15.7950   43.5870 O.3   701  THM701     -0.2176
      2  C5'       22.9790   15.3520   43.5600 C.3   701  THM701      0.2141
      3  C4'       22.1480   16.1940   42.5880 C.3   701  THM701      0.1802
      4  O4'       21.9720   17.4950   43.1470 O.3   701  THM701     -0.3338
      5  C3'       22.7750   16.3990   41.2120 C.3   701  THM701      0.1858
      6  O3'       21.7370   16.4040   40.2330 O.3   701  THM701     -0.2203
      7  C2'       23.3710   17.7970   41.2760 C.3   701  THM701      0.0874
      8  C1'       22.4730   18.5090   42.2880 C.3   701  THM701      0.2090
      9  N1        23.1310   19.4900   43.1640 N.am  701  THM701     -0.1794
     10  C2        22.7950   20.8580   43.0000 C.1   701  THM701      0.2844
     11  O2        22.0070   21.2210   42.0780 O.2   701  THM701     -0.1918
     12  N3        23.3230   21.7910   43.8010 N.2   701  THM701     -0.2455
     13  C4        24.1800   21.4640   44.7860 C.1   701  THM701      0.2134
     14  O4        24.6300   22.3940   45.4810 O.2   701  THM701     -0.2088
     15  C5        24.5570   20.0370   45.0080 C.2   701  THM701      0.0891
     16  C5M       25.5260   19.5940   46.0920 C.3   701  THM701      0.0462
     17  C6        23.9680   19.0890   44.1550 C.2   701  THM701      0.0877
@<TRIPOS>BOND
     1     6     5    1
     2     5     7    1
     3     5     3    1
     4     7     8    1
     5    11    10    2
     6     8     4    1
     7     8     9    1
     8     3     4    1
     9     3     2    1
    10    10     9   am
    11    10    12    2
    12     9    17    1
    13     2     1    1
    14    12    13    2
    15    17    15    2
    16    13    15    1
    17    13    14    2
    18    15    16    1
