@<TRIPOS>MOLECULE
1p72_ADP_A_1.pdb
 27 29 0 0 0
SMALL
GASTEIGER

@<TRIPOS>ATOM
      1  PB        29.3500   10.8580   41.9150 P.3   501  ADP501      0.5373
      2  O1B       28.1350   11.6820   41.5540 O.3   501  ADP501     -0.1143
      3  O2B       29.2840   10.5540   43.3940 O.3   501  ADP501     -0.1143
      4  O3B       30.6100   11.5920   41.5070 O.2   501  ADP501     -0.2221
      5  PA        28.7730    8.1000   41.5670 P.3   501  ADP501      0.2231
      6  O1A       29.5990    7.3500   42.5630 O.3   501  ADP501     -0.4370
      7  O2A       27.3110    8.3930   41.8500 O.2   501  ADP501     -0.5169
      8  O3A       29.4370    9.4830   41.0920 O.3   501  ADP501     -0.2261
      9  O5'       28.9130    7.3330   40.1710 O.3   501  ADP501     -0.3111
     10  C5'       28.3650    7.8290   38.9490 C.3   501  ADP501      0.1813
     11  C4'       28.0950    6.6110   38.0800 C.3   501  ADP501      0.1821
     12  O4'       29.3140    6.0280   37.6260 O.3   501  ADP501     -0.3135
     13  C3'       27.3770    5.4990   38.8270 C.3   501  ADP501      0.2184
     14  O3'       26.4750    4.9270   37.8920 O.3   501  ADP501     -0.2174
     15  C2'       28.4780    4.5160   39.2350 C.3   501  ADP501      0.2570
     16  O2'       28.0670    3.1530   39.3540 O.3   501  ADP501     -0.2130
     17  C1'       29.4810    4.6950   38.1110 C.3   501  ADP501      0.3186
     18  N9        30.8560    4.5850   38.6110 N.pl3 501  ADP501     -0.1439
     19  C8        31.3180    5.0520   39.7850 C.3   501  ADP501      0.3377
     20  N7        32.6310    4.7640   39.8560 N.2   501  ADP501     -0.2095
     21  C5        32.9850    4.1340   38.7280 C.2   501  ADP501      0.2526
     22  C6        34.2830    3.5910   38.2470 C.2   501  ADP501      0.4393
     23  N6        35.3080    3.6880   38.9830 N.pl3 501  ADP501      0.2180
     24  N1        34.3490    2.9950   37.0510 N.2   501  ADP501      0.0021
     25  C2        33.1600    2.8710   36.2350 C.3   501  ADP501      0.5254
     26  N3        31.9100    3.4220   36.7270 N.2   501  ADP501     -0.0055
     27  C4        31.8570    4.0220   37.9370 C.2   501  ADP501      0.3518
@<TRIPOS>BOND
     1    25    26    1
     2    25    24    1
     3    26    27    2
     4    24    22    2
     5    12    11    1
     6    12    17    1
     7    14    13    1
     8    27    18    1
     9    27    21    1
    10    11    13    1
    11    11    10    1
    12    17    18    1
    13    17    15    1
    14    22    21    1
    15    22    23    1
    16    18    19    1
    17    21    20    2
    18    13    15    1
    19    10     9    1
    20    15    16    1
    21    19    20    1
    22     9     5    1
    23     8     5    1
    24     8     1    1
    25     4     1    2
    26     2     1    1
    27     5     7    2
    28     5     6    1
    29     1     3    1
