@<TRIPOS>MOLECULE
1p72_THM_A_1.pdb
 17 18 0 0 0
SMALL
GASTEIGER

@<TRIPOS>ATOM
      1  O5'       24.5060   15.7580   43.6410 O.3   701  THM701     -0.2176
      2  C5'       23.1890   15.2340   43.4880 C.3   701  THM701      0.2141
      3  C4'       22.3810   16.0630   42.4810 C.3   701  THM701      0.1802
      4  O4'       22.1590   17.3580   43.0240 O.3   701  THM701     -0.3338
      5  C3'       23.0460   16.2810   41.1240 C.3   701  THM701      0.1858
      6  O3'       22.0380   16.2210   40.1090 O.3   701  THM701     -0.2203
      7  C2'       23.6200   17.6950   41.1870 C.3   701  THM701      0.0874
      8  C1'       22.7170   18.3820   42.1990 C.3   701  THM701      0.2090
      9  N1        23.3180   19.3480   43.1180 N.am  701  THM701     -0.1794
     10  C2        22.9230   20.7090   42.9950 C.1   701  THM701      0.2844
     11  O2        22.1390   21.0910   42.0840 O.2   701  THM701     -0.1918
     12  N3        23.4030   21.6220   43.8410 N.2   701  THM701     -0.2455
     13  C4        24.2430   21.2720   44.8230 C.1   701  THM701      0.2134
     14  O4        24.6530   22.1650   45.5750 O.2   701  THM701     -0.2088
     15  C5        24.6840   19.8560   44.9900 C.2   701  THM701      0.0891
     16  C5M       25.6470   19.4200   46.0880 C.3   701  THM701      0.0462
     17  C6        24.1550   18.9330   44.0980 C.2   701  THM701      0.0877
@<TRIPOS>BOND
     1     6     5    1
     2     5     7    1
     3     5     3    1
     4     7     8    1
     5    11    10    2
     6     8     4    1
     7     8     9    1
     8     3     4    1
     9     3     2    1
    10    10     9   am
    11    10    12    2
    12     9    17    1
    13     2     1    1
    14    12    13    2
    15    17    15    2
    16    13    15    1
    17    13    14    2
    18    15    16    1
