@<TRIPOS>MOLECULE
1p7c_THM_B_1.pdb
 17 18 0 0 0
SMALL
GASTEIGER

@<TRIPOS>ATOM
      1  O5'       15.9480   95.9520   45.4720 O.3   501  THM501     -0.2176
      2  C5'       17.1280   96.2190   44.7430 C.3   501  THM501      0.2141
      3  C4'       17.8370   97.4600   45.3060 C.3   501  THM501      0.1802
      4  O4'       19.1130   96.9970   45.7060 O.3   501  THM501     -0.3338
      5  C3'       18.0660   98.3190   44.0880 C.3   501  THM501      0.1858
      6  O3'       18.1420   99.6230   44.6260 O.3   501  THM501     -0.2203
      7  C2'       19.4930   98.1770   43.6480 C.3   501  THM501      0.0874
      8  C1'       20.1280   97.3750   44.7810 C.3   501  THM501      0.2090
      9  N1        20.9730   96.2240   44.4650 N.am  501  THM501     -0.1794
     10  C2        22.3590   96.3850   44.6070 C.1   501  THM501      0.2844
     11  O2        22.8140   97.5100   44.9200 O.2   501  THM501     -0.1918
     12  N3        23.2030   95.3520   44.4030 N.2   501  THM501     -0.2455
     13  C4        22.7490   94.1500   44.0540 C.1   501  THM501      0.2134
     14  O4        23.5440   93.2140   43.8560 O.2   501  THM501     -0.2088
     15  C5        21.2940   93.9570   43.9070 C.2   501  THM501      0.0891
     16  C5M       20.7350   92.6110   43.5360 C.3   501  THM501      0.0462
     17  C6        20.4540   95.0360   44.1440 C.2   501  THM501      0.0877
@<TRIPOS>BOND
     1    16    15    1
     2     7     5    1
     3     7     8    1
     4    14    13    2
     5    15    13    1
     6    15    17    2
     7    13    12    2
     8     5     6    1
     9     5     3    1
    10    17     9    1
    11    12    10    2
    12     9    10   am
    13     9     8    1
    14    10    11    2
    15     2     3    1
    16     2     1    1
    17     8     4    1
    18     3     4    1
