@<TRIPOS>MOLECULE
1p7k_EPE_B_1.pdb
 15 15 0 0 0
SMALL
GASTEIGER

@<TRIPOS>ATOM
      1  N1        73.2470   27.7080   75.0030 N.3   902  EPE902     -0.2689
      2  C2        72.9480   29.0950   75.5160 C.3   902  EPE902      0.0897
      3  C3        73.9900   29.5950   76.4890 C.3   902  EPE902      0.0897
      4  N4        75.3060   29.5370   75.8020 N.3   902  EPE902     -0.2681
      5  C5        75.5770   28.1440   75.3490 C.3   902  EPE902      0.0897
      6  C6        74.5730   27.6780   74.3390 C.3   902  EPE902      0.0897
      7  C7        76.4330   30.0230   76.6850 C.3   902  EPE902      0.1081
      8  C8        77.6000   30.7270   75.9960 C.3   902  EPE902      0.1993
      9  O8        77.1020   31.9130   75.4070 O.3   902  EPE902     -0.2189
     10  C9        72.2240   27.2180   74.0610 C.3   902  EPE902      0.0939
     11  C10       71.0680   28.1450   73.7580 C.3   902  EPE902      0.1225
     12  S         69.7520   27.3310   72.9370 S.3   902  EPE902     -0.1946
     13  O1S       69.1820   28.2630   72.0150 O.3   902  EPE902     -0.3074
     14  O2S       68.9670   26.7150   73.9760 O.3   902  EPE902     -0.3074
     15  O3S       70.2780   26.1620   72.2030 O.3   902  EPE902     -0.3074
@<TRIPOS>BOND
     1    13    12    1
     2    15    12    1
     3    12    11    1
     4    12    14    1
     5    11    10    1
     6    10     1    1
     7     6     1    1
     8     6     5    1
     9     1     2    1
    10     5     4    1
    11     9     8    1
    12     2     3    1
    13     4     3    1
    14     4     7    1
    15     8     7    1
