@<TRIPOS>MOLECULE
1p7l_ANP_A_1.pdb
 31 33 0 0 0
SMALL
GASTEIGER

@<TRIPOS>ATOM
      1  PG         0.5800   13.0820   -7.6510 P.3   384  ANP384      0.4884
      2  O1G        1.8430   13.7330   -7.8950 O.2   384  ANP384     -0.2331
      3  O2G       -0.1690   13.9920   -6.8580 O.3   384  ANP384     -0.1240
      4  O3G        0.7560   11.7330   -6.9730 O.3   384  ANP384     -0.1240
      5  PB        -1.3810   12.6210   -9.8700 P.3   384  ANP384      0.4669
      6  O1B       -1.5750   11.3580  -10.6010 O.2   384  ANP384     -0.2351
      7  O2B       -2.4630   13.0670   -9.0670 O.3   384  ANP384     -0.1253
      8  N3B       -0.0650   12.5040   -9.0500 N.3   384  ANP384     -0.0163
      9  PA        -0.5880   15.2290  -10.5690 P.3   384  ANP384      0.2220
     10  O1A        0.8600   15.1590  -10.4530 O.2   384  ANP384     -0.5170
     11  O2A       -1.0700   15.6990   -9.2010 O.3   384  ANP384     -0.4370
     12  O3A       -1.2430   13.7920  -10.9220 O.3   384  ANP384     -0.2360
     13  O5'       -1.1800   16.4100  -11.5060 O.3   384  ANP384     -0.3111
     14  C5'       -1.6570   16.1290  -12.9070 C.3   384  ANP384      0.1813
     15  C4'       -2.0000   17.2520  -13.4240 C.3   384  ANP384      0.1821
     16  O4'       -2.0260   16.9310  -14.8630 O.3   384  ANP384     -0.3135
     17  C3'       -3.4390   17.7670  -13.2490 C.3   384  ANP384      0.2184
     18  O3'       -3.9310   18.1780  -12.0350 O.3   384  ANP384     -0.2174
     19  C2'       -3.3410   18.7890  -14.4930 C.3   384  ANP384      0.2570
     20  O2'       -2.6330   20.0210  -13.8820 O.3   384  ANP384     -0.2130
     21  C1'       -2.4200   18.1340  -15.5180 C.3   384  ANP384      0.3186
     22  N9        -3.0220   17.8880  -16.6900 N.pl3 384  ANP384     -0.1439
     23  C8        -4.3180   17.4480  -16.9520 C.3   384  ANP384      0.3377
     24  N7        -4.6590   17.2860  -18.1560 N.2   384  ANP384     -0.2095
     25  C5        -3.5410   17.6260  -18.8050 C.2   384  ANP384      0.2526
     26  C6        -3.3050   17.6470  -20.1870 C.2   384  ANP384      0.4393
     27  N6        -4.1340   17.3340  -21.2030 N.pl3 384  ANP384      0.2180
     28  N1        -2.0060   18.0520  -20.6310 N.2   384  ANP384      0.0021
     29  C2        -1.0240   18.4140  -19.6630 C.3   384  ANP384      0.5254
     30  N3        -1.1550   18.4250  -18.3000 N.2   384  ANP384     -0.0055
     31  C4        -2.4940   18.0030  -17.9340 C.2   384  ANP384      0.3518
@<TRIPOS>BOND
     1    27    26    1
     2    28    26    2
     3    28    29    1
     4    26    25    1
     5    29    30    1
     6    25    24    2
     7    25    31    1
     8    30    31    2
     9    24    23    1
    10    31    22    1
    11    23    22    1
    12    22    21    1
    13    21    16    1
    14    21    19    1
    15    16    15    1
    16    19    20    1
    17    19    17    1
    18    15    17    1
    19    15    14    1
    20    17    18    1
    21    14    13    1
    22    13     9    1
    23    12     9    1
    24    12     5    1
    25     6     5    2
    26     9    10    2
    27     9    11    1
    28     5     7    1
    29     5     8    1
    30     8     1    1
    31     2     1    2
    32     1     4    1
    33     1     3    1
