@<TRIPOS>MOLECULE
1p7l_SAM_C_1.pdb
 27 29 0 0 0
SMALL
GASTEIGER

@<TRIPOS>ATOM
      1  N        -36.0530   -0.8580    0.0220 N.3   685  SAM685     -0.1208
      2  CA       -36.6030   -2.1820    0.3880 C.3   685  SAM685      0.1952
      3  C        -36.2610   -3.1760   -0.6990 C.2   685  SAM685      0.3819
      4  O        -37.1550   -3.9150   -1.1080 O.co2 685  SAM685     -0.2441
      5  OXT      -35.0400   -3.1490   -1.1250 O.co2 685  SAM685     -0.2441
      6  CB       -38.1240   -2.0790    0.5690 C.3   685  SAM685      0.0414
      7  CG       -38.4860   -1.1200    1.6610 C.3   685  SAM685      0.0503
      8  SD       -38.7410   -1.7810    3.3470 S.3   685  SAM685     -0.1761
      9  CE       -39.9850   -3.0640    3.1620 C.3   685  SAM685      0.0590
     10  C5'      -39.5440   -0.4900    4.1840 C.3   685  SAM685      0.0806
     11  C4'      -39.6190   -0.5880    5.6740 C.3   685  SAM685      0.1622
     12  O4'      -39.9910   -1.9330    6.0680 O.3   685  SAM685     -0.3153
     13  C3'      -38.3080   -0.3460    6.3870 C.3   685  SAM685      0.2168
     14  O3'      -38.1930    1.0940    6.5360 O.3   685  SAM685     -0.2175
     15  C2'      -38.5440   -1.0180    7.7060 C.3   685  SAM685      0.2569
     16  O2'      -39.0900   -0.2670    8.7830 O.3   685  SAM685     -0.2130
     17  C1'      -39.3720   -2.2530    7.2860 C.3   685  SAM685      0.3185
     18  N9       -38.5910   -3.4810    7.1250 N.pl3 685  SAM685     -0.1439
     19  C8       -37.2780   -3.6800    6.7670 C.3   685  SAM685      0.3377
     20  N7       -36.9250   -4.9380    6.7290 N.2   685  SAM685     -0.2095
     21  C5       -38.0800   -5.6310    7.0840 C.2   685  SAM685      0.2526
     22  C6       -38.3830   -7.0350    7.2400 C.2   685  SAM685      0.4393
     23  N6       -37.4730   -8.0040    7.0380 N.pl3 685  SAM685      0.2180
     24  N1       -39.6590   -7.4110    7.6130 N.2   685  SAM685      0.0021
     25  C2       -40.5820   -6.4280    7.8230 C.3   685  SAM685      0.5254
     26  N3       -40.4120   -5.0850    7.7090 N.2   685  SAM685     -0.0055
     27  C4       -39.1200   -4.7470    7.3310 C.2   685  SAM685      0.3518
@<TRIPOS>BOND
     1     5     3   ar
     2     4     3   ar
     3     3     2    1
     4     1     2    1
     5     2     6    1
     6     6     7    1
     7     7     8    1
     8     9     8    1
     9     8    10    1
    10    10    11    1
    11    11    12    1
    12    11    13    1
    13    12    17    1
    14    13    14    1
    15    13    15    1
    16    20    19    1
    17    20    21    2
    18    19    18    1
    19    23    22    1
    20    21    22    1
    21    21    27    1
    22    18    17    1
    23    18    27    1
    24    22    24    2
    25    17    15    1
    26    27    26    2
    27    24    25    1
    28    15    16    1
    29    26    25    1
