@<TRIPOS>MOLECULE
1p7l_PPK_C_1.pdb
 13 12 0 0 0
SMALL
GASTEIGER

@<TRIPOS>ATOM
      1  O1G      -43.9580    4.4880    1.3720 O.3   684  PPK684     -0.1240
      2  PG       -42.6560    4.9670    0.8500 P.3   684  PPK684      0.4884
      3  O2G      -42.0990    5.8560    1.8430 O.3   684  PPK684     -0.1240
      4  O3G      -42.8000    5.5590   -0.5340 O.2   684  PPK684     -0.2331
      5  N3B      -41.6870    3.7460    0.3040 N.3   684  PPK684     -0.0162
      6  PB       -40.4960    2.9570    0.8870 P.3   684  PPK684      0.4700
      7  O1B      -39.9490    2.0600   -0.1630 O.2   684  PPK684     -0.2350
      8  O2B      -39.5990    3.9720    1.4800 O.3   684  PPK684     -0.1252
      9  O3A      -40.9000    2.1420    2.2180 O.3   684  PPK684     -0.1901
     10  PA       -41.4740    2.8090    3.5620 P.3   684  PPK684      0.5397
     11  O1A      -43.0230    2.9650    3.4810 O.2   684  PPK684     -0.2220
     12  O2A      -40.8970    4.1990    3.7730 O.3   684  PPK684     -0.1143
     13  O4A      -41.1710    1.8800    4.7520 O.3   684  PPK684     -0.1143
@<TRIPOS>BOND
     1     4     2    2
     2     7     6    2
     3     5     2    1
     4     5     6    1
     5     2     1    1
     6     2     3    1
     7     6     8    1
     8     6     9    1
     9     9    10    1
    10    11    10    2
    11    10    12    1
    12    10    13    1
