@<TRIPOS>MOLECULE
1p7m_ADK_A_1.pdb
 18 19 0 0 0
SMALL
GASTEIGER

@<TRIPOS>ATOM
      1  N9       139.8440   20.3960   -9.5280 N.2   189  ADK189     -0.3288
      2  C4       140.5400   20.9730   -8.4890 C.2   189  ADK189      0.2340
      3  N3       140.6500   22.2820   -8.2200 N.pl3 189  ADK189     -0.2561
      4  C2       141.3810   22.5290   -7.1540 C.2   189  ADK189      0.1441
      5  N1       141.9740   21.6310   -6.3690 N.2   189  ADK189     -0.3779
      6  C6       141.8610   20.3160   -6.6420 C.2   189  ADK189      0.2125
      7  N6       142.4400   19.4310   -5.8310 N.pl3 189  ADK189     -0.3307
      8  C5       141.0990   19.9480   -7.7640 C.2   189  ADK189      0.2311
      9  N7       140.7760   18.7150   -8.3270 N.2   189  ADK189     -0.3390
     10  C8       140.0520   19.0680   -9.3340 C.1   189  ADK189      0.0917
     11  C3A      140.0350   23.3470   -9.0280 C.3   189  ADK189      0.0099
     12  HC2      141.5030   23.5720   -6.8880 H     189  ADK189      0.1149
     13 HN61      142.3460   18.4430   -6.0130 H     189  ADK189      0.1448
     14 HN62      142.9550   19.7490   -5.0220 H     189  ADK189      0.1448
     15  H8       139.6140   18.3240   -9.9980 H     189  ADK189      0.1751
     16 H3A1      138.9630   23.4390   -8.8570 H     189  ADK189      0.0433
     17 H3A2      140.1590   23.1890  -10.0980 H     189  ADK189      0.0433
     18 H3A3      140.4600   24.3310   -8.8150 H     189  ADK189      0.0433
@<TRIPOS>BOND
     1    17    11    1
     2    15    10    1
     3     1    10    2
     4     1     2    2
     5    10     9    2
     6    11    16    1
     7    11    18    1
     8    11     3    1
     9     2     3    1
    10     2     8    1
    11     9     8    2
    12     3     4    1
    13     8     6    1
    14     4    12    1
    15     4     5    2
    16     6     5    2
    17     6     7    1
    18    13     7    1
    19     7    14    1
