@<TRIPOS>MOLECULE
1p7p_MPH_A_1.pdb
 10 9 0 0 0
SMALL
GASTEIGER

@<TRIPOS>ATOM
      1  N         14.6170    8.9610   19.3630 N.3   553  MPH553     -0.1250
      2  CA        14.2500   10.3280   19.7460 C.3   553  MPH553      0.1441
      3  CB        12.7530   10.4830   20.1520 C.3   553  MPH553      0.0381
      4  CG        11.7810    9.9760   19.0580 C.3   553  MPH553      0.0595
      5  SD        10.0920   10.2220   19.6530 S.3   553  MPH553     -0.1393
      6  CE         9.2050    9.6110   18.2080 C.3   553  MPH553      0.0692
      7  O1        16.7360   10.6840   20.4780 O.2   553  MPH553     -0.4587
      8  O2        14.9990   10.0520   22.3440 O.3   553  MPH553     -0.3562
      9  O3        15.1160   12.4630   21.2720 O.3   553  MPH553     -0.3562
     10  P         15.2820   10.9150   21.0520 P.3   553  MPH553      0.1345
@<TRIPOS>BOND
     1     6     5    1
     2     4     5    1
     3     4     3    1
     4     1     2    1
     5     2     3    1
     6     2    10    1
     7     7    10    2
     8    10     9    1
     9    10     8    1
