@<TRIPOS>MOLECULE
1p7r_NCT_A_1.pdb
 12 13 0 0 0
SMALL
GASTEIGER

@<TRIPOS>ATOM
      1  N1        19.9330   15.0550   39.8370 N.ar  440  NCT440     -0.2426
      2  C1        18.8510   14.4740   40.3780 C.ar  440  NCT440      0.0959
      3  C2        18.8940   13.7210   41.5470 C.ar  440  NCT440      0.0114
      4  C3        20.1410   13.5740   42.1540 C.ar  440  NCT440      0.0002
      5  C4        21.2670   14.1670   41.5990 C.ar  440  NCT440      0.0204
      6  C5        21.1220   14.8940   40.4250 C.ar  440  NCT440      0.0989
      7  N2        16.4170   13.7110   41.9710 N.3   440  NCT440     -0.2691
      8  C6        17.6670   12.9610   42.0410 C.3   440  NCT440      0.0817
      9  C7        17.3590   11.7340   41.1540 C.3   440  NCT440      0.0220
     10  C8        15.8460   11.4820   41.3410 C.3   440  NCT440      0.0191
     11  C9        15.3240   12.7500   42.0720 C.3   440  NCT440      0.0724
     12  C10       16.3180   14.8210   42.8860 C.3   440  NCT440      0.0899
@<TRIPOS>BOND
     1     1     2   ar
     2     1     6   ar
     3     2     3   ar
     4     6     5   ar
     5     9    10    1
     6     9     8    1
     7    10    11    1
     8     3     8    1
     9     3     4   ar
    10     5     4   ar
    11     7     8    1
    12     7    11    1
    13     7    12    1
