@<TRIPOS>MOLECULE
1p7r_HEM_A_1.pdb
 43 50 0 0 0
SMALL
GASTEIGER

@<TRIPOS>ATOM
      1 FE         12.8690    9.9140   39.0030 Fe    430  HEM430      0.0000
      2  CHA       11.9590   13.2370   39.0390 C.2   430  HEM430      0.0000
      3  CHB       12.3970    9.7870   42.3600 C.2   430  HEM430      0.0000
      4  CHC       13.6180    6.6700   38.9660 C.2   430  HEM430      0.0000
      5  CHD       13.4800   10.2030   35.6860 C.2   430  HEM430      0.0000
      6  NA        12.2320   11.1900   40.3880 N.2   430  HEM430      0.0000
      7  C1A       11.8790   12.5380   40.2310 C.2   430  HEM430      0.0000
      8  C2A       11.5210   13.1480   41.5140 C.2   430  HEM430      0.0000
      9  C3A       11.6600   12.1530   42.4370 C.2   430  HEM430      0.0000
     10  C4A       12.1180   10.9680   41.7480 C.2   430  HEM430      0.0000
     11  CMA       11.3500   12.2650   43.9190 C.3   430  HEM430      0.0000
     12  CAA       11.1250   14.5990   41.7720 C.3   430  HEM430      0.0000
     13  CBA       12.1640   15.4010   42.5300 C.3   430  HEM430      0.0000
     14  CGA       11.7830   16.8500   42.7030 C.2   430  HEM430      0.0000
     15  O1A       10.6460   17.1260   43.1280 O.co2 430  HEM430      0.0000
     16  O2A       12.6330   17.7130   42.4260 O.co2 430  HEM430      0.0000
     17  NB        12.8950    8.4890   40.3720 N.ar  430  HEM430      0.0000
     18  C1B       12.6700    8.5840   41.7350 C.ar  430  HEM430      0.0000
     19  C2B       12.8450    7.3060   42.4110 C.ar  430  HEM430      0.0000
     20  C3B       13.2020    6.4260   41.4450 C.ar  430  HEM430      0.0000
     21  C4B       13.1880    7.1700   40.1840 C.ar  430  HEM430      0.0000
     22  CMB       12.5130    7.0060   43.8530 C.3   430  HEM430      0.0000
     23  CAB       13.5170    5.0640   41.5180 C.3   430  HEM430      0.0000
     24  CBB       13.0050    4.0310   42.3860 C.3   430  HEM430      0.0000
     25  NC        13.4800    8.7000   37.6370 N.2   430  HEM430      0.0000
     26  C1C       13.7490    7.3590   37.7770 C.2   430  HEM430      0.0000
     27  C2C       14.2900    6.7710   36.5370 C.2   430  HEM430      0.0000
     28  C3C       14.2550    7.7970   35.5720 C.2   430  HEM430      0.0000
     29  C4C       13.7650    8.9860   36.3000 C.2   430  HEM430      0.0000
     30  CMC       14.7590    5.3280   36.3780 C.3   430  HEM430      0.0000
     31  CAC       14.5150    7.7820   34.1890 C.3   430  HEM430      0.0000
     32  CBC       15.4660    6.9510   33.5210 C.3   430  HEM430      0.0000
     33  ND        12.6400   11.3760   37.6390 N.ar  430  HEM430      0.0000
     34  C1D       12.9110   11.3100   36.2840 C.ar  430  HEM430      0.0000
     35  C2D       12.6900   12.5800   35.6070 C.ar  430  HEM430      0.0000
     36  C3D       12.2780   13.4290   36.5550 C.ar  430  HEM430      0.0000
     37  C4D       12.2690   12.6830   37.8230 C.ar  430  HEM430      0.0000
     38  CMD       12.8640   12.9230   34.1350 C.3   430  HEM430      0.0000
     39  CAD       11.9980   14.9270   36.3730 C.3   430  HEM430      0.0000
     40  CBD       10.5470   15.3560   36.2740 C.3   430  HEM430      0.0000
     41  CGD       10.3690   16.8500   36.4160 C.2   430  HEM430      0.0000
     42  O1D        9.2200   17.3330   36.3280 O.co2 430  HEM430      0.0000
     43  O2D       11.3800   17.5470   36.6360 O.co2 430  HEM430      0.0000
@<TRIPOS>BOND
     1    32    31    1
     2    38    35    1
     3    31    28    1
     4    28    29    1
     5    28    27    2
     6    35    34   ar
     7    35    36   ar
     8     5    34    2
     9     5    29    1
    10    40    39    1
    11    40    41    1
    12    34    33   ar
    13    29    25    2
    14    42    41   ar
    15    39    36    1
    16    30    27    1
    17    41    43   ar
    18    27    26    1
    19    36    37   ar
    20    25    26    1
    21    25     1    1
    22    33    37   ar
    23    33     1    1
    24    26     4    2
    25    37     2    2
    26     4    21    1
    27     1    17    1
    28     1     6    1
    29     2     7    1
    30    21    17   ar
    31    21    20   ar
    32     7     6    2
    33     7     8    1
    34    17    18   ar
    35     6    10    1
    36    20    23    1
    37    20    19   ar
    38     8    12    1
    39     8     9    2
    40    23    24    1
    41    18     3    1
    42    18    19   ar
    43    10     3    2
    44    10     9    1
    45    12    13    1
    46    19    22    1
    47    16    14   ar
    48     9    11    1
    49    13    14    1
    50    14    15   ar
