@<TRIPOS>MOLECULE
1p7y_HEM_A_1.pdb
 43 50 0 0 0
SMALL
GASTEIGER

@<TRIPOS>ATOM
      1 FE         24.7720   -1.5910   78.5110 Fe    760  HEM760      0.0000
      2  CHA       27.8100   -3.0750   78.1950 C.2   760  HEM760      0.0000
      3  CHB       23.9840   -3.7400   80.9780 C.2   760  HEM760      0.0000
      4  CHC       22.0260    0.3220   79.2570 C.2   760  HEM760      0.0000
      5  CHD       25.5840    0.5990   76.0080 C.2   760  HEM760      0.0000
      6  NA        25.7250   -3.1300   79.4110 N.2   760  HEM760      0.0000
      7  C1A       26.9810   -3.6140   79.1370 C.2   760  HEM760      0.0000
      8  C2A       27.2570   -4.7550   79.9930 C.2   760  HEM760      0.0000
      9  C3A       26.1870   -4.9390   80.7720 C.2   760  HEM760      0.0000
     10  C4A       25.2220   -3.9290   80.4180 C.2   760  HEM760      0.0000
     11  CMA       25.9690   -6.0070   81.8540 C.3   760  HEM760      0.0000
     12  CAA       28.5660   -5.5750   79.9620 C.3   760  HEM760      0.0000
     13  CBA       28.6200   -6.7160   78.9110 C.3   760  HEM760      0.0000
     14  CGA       29.8680   -7.5660   79.0390 C.2   760  HEM760      0.0000
     15  O1A       30.5600   -7.6660   78.0040 O.co2 760  HEM760      0.0000
     16  O2A       30.0850   -8.0730   80.1670 O.co2 760  HEM760      0.0000
     17  NB        23.3270   -1.6680   79.9050 N.ar  760  HEM760      0.0000
     18  C1B       23.0870   -2.7240   80.7330 C.ar  760  HEM760      0.0000
     19  C2B       21.7540   -2.6040   81.2850 C.ar  760  HEM760      0.0000
     20  C3B       21.2290   -1.4820   80.8100 C.ar  760  HEM760      0.0000
     21  C4B       22.1970   -0.8670   79.9410 C.ar  760  HEM760      0.0000
     22  CMB       21.1350   -3.6440   82.2610 C.3   760  HEM760      0.0000
     23  CAB       19.8550   -0.8540   81.0590 C.2   760  HEM760      0.0000
     24  CBB       18.8850   -1.4260   81.7370 C.2   760  HEM760      0.0000
     25  NC        24.0030    0.1520   77.8400 N.2   760  HEM760      0.0000
     26  C1C       22.7940    0.7120   78.1900 C.2   760  HEM760      0.0000
     27  C2C       22.4630    1.7330   77.2390 C.2   760  HEM760      0.0000
     28  C3C       23.4380    1.7910   76.3390 C.2   760  HEM760      0.0000
     29  C4C       24.4190    0.8000   76.7010 C.2   760  HEM760      0.0000
     30  CMC       21.1770    2.5860   77.2950 C.3   760  HEM760      0.0000
     31  CAC       23.6000    2.7170   75.1110 C.2   760  HEM760      0.0000
     32  CBC       22.4750    3.1410   74.4930 C.2   760  HEM760      0.0000
     33  ND        26.3970   -1.2550   77.3870 N.ar  760  HEM760      0.0000
     34  C1D       26.4970   -0.3640   76.3430 C.ar  760  HEM760      0.0000
     35  C2D       27.7270   -0.6210   75.6090 C.ar  760  HEM760      0.0000
     36  C3D       28.3360   -1.6270   76.2160 C.ar  760  HEM760      0.0000
     37  C4D       27.5220   -2.0440   77.3300 C.ar  760  HEM760      0.0000
     38  CMD       28.1710    0.1760   74.3690 C.3   760  HEM760      0.0000
     39  CAD       29.6770   -2.2920   75.8530 C.3   760  HEM760      0.0000
     40  CBD       29.5160   -3.5770   75.0630 C.3   760  HEM760      0.0000
     41  CGD       30.7340   -4.0460   74.3290 C.2   760  HEM760      0.0000
     42  O1D       31.7460   -3.3170   74.1970 O.co2 760  HEM760      0.0000
     43  O2D       30.6010   -5.2040   73.8740 O.co2 760  HEM760      0.0000
@<TRIPOS>BOND
     1    43    41   ar
     2    42    41   ar
     3    41    40    1
     4    38    35    1
     5    32    31    2
     6    40    39    1
     7    31    28    1
     8    35    36   ar
     9    35    34   ar
    10    39    36    1
    11     5    34    2
    12     5    29    1
    13    36    37   ar
    14    28    29    1
    15    28    27    2
    16    34    33   ar
    17    29    25    2
    18    27    30    1
    19    27    26    1
    20    37    33   ar
    21    37     2    2
    22    33     1    1
    23    25    26    1
    24    25     1    1
    25    15    14   ar
    26    26     4    2
    27     2     7    1
    28     1     6    1
    29     1    17    1
    30    13    14    1
    31    13    12    1
    32    14    16   ar
    33     7     6    2
    34     7     8    1
    35     4    21    1
    36     6    10    1
    37    17    21   ar
    38    17    18   ar
    39    21    20   ar
    40    12     8    1
    41     8     9    2
    42    10     9    1
    43    10     3    2
    44    18     3    1
    45    18    19   ar
    46     9    11    1
    47    20    23    1
    48    20    19   ar
    49    23    24    2
    50    19    22    1
