@<TRIPOS>MOLECULE
1p7z_HEM_A_1.pdb
 43 50 0 0 0
SMALL
GASTEIGER

@<TRIPOS>ATOM
      1 FE         -1.5590   -1.6870   21.1920 Fe    760  HEM760      0.0000
      2  CHA        1.5580   -3.0350   21.0040 C.2   760  HEM760      0.0000
      3  CHB       -2.3060   -3.7910   23.7730 C.2   760  HEM760      0.0000
      4  CHC       -4.2420    0.3260   22.0920 C.2   760  HEM760      0.0000
      5  CHD       -0.7310    0.5690   18.7620 C.2   760  HEM760      0.0000
      6  NA        -0.5520   -3.1170   22.2260 N.2   760  HEM760      0.0000
      7  C1A        0.6980   -3.5880   21.9390 C.2   760  HEM760      0.0000
      8  C2A        0.9670   -4.7620   22.7570 C.2   760  HEM760      0.0000
      9  C3A       -0.0930   -4.9600   23.5360 C.2   760  HEM760      0.0000
     10  C4A       -1.0610   -3.9380   23.2060 C.2   760  HEM760      0.0000
     11  CMA       -0.3350   -6.0680   24.5840 C.3   760  HEM760      0.0000
     12  CAA        2.2810   -5.5610   22.6690 C.3   760  HEM760      0.0000
     13  CBA        2.2410   -6.8580   21.8350 C.3   760  HEM760      0.0000
     14  CGA        3.5450   -7.6180   21.9350 C.2   760  HEM760      0.0000
     15  O1A        4.2640   -7.5700   20.9080 O.co2 760  HEM760      0.0000
     16  O2A        3.7750   -8.1710   23.0450 O.co2 760  HEM760      0.0000
     17  NB        -2.9160   -1.6810   22.7070 N.ar  760  HEM760      0.0000
     18  C1B       -3.1710   -2.7470   23.5240 C.ar  760  HEM760      0.0000
     19  C2B       -4.5010   -2.6370   24.0830 C.ar  760  HEM760      0.0000
     20  C3B       -5.0250   -1.4960   23.6340 C.ar  760  HEM760      0.0000
     21  C4B       -4.0460   -0.8840   22.7600 C.ar  760  HEM760      0.0000
     22  CMB       -5.1610   -3.6830   25.0200 C.3   760  HEM760      0.0000
     23  CAB       -6.4040   -0.8940   23.9070 C.2   760  HEM760      0.0000
     24  CBB       -7.4530   -1.4920   24.4050 C.2   760  HEM760      0.0000
     25  NC        -2.2790    0.1190   20.6270 N.2   760  HEM760      0.0000
     26  C1C       -3.4830    0.6810   21.0010 C.2   760  HEM760      0.0000
     27  C2C       -3.8180    1.7260   20.0610 C.2   760  HEM760      0.0000
     28  C3C       -2.8590    1.7800   19.1320 C.2   760  HEM760      0.0000
     29  C4C       -1.8850    0.7670   19.4770 C.2   760  HEM760      0.0000
     30  CMC       -5.0920    2.5860   20.1380 C.3   760  HEM760      0.0000
     31  CAC       -2.7050    2.7010   17.8960 C.2   760  HEM760      0.0000
     32  CBC       -3.8130    3.1060   17.2670 C.2   760  HEM760      0.0000
     33  ND         0.1180   -1.2550   20.1820 N.ar  760  HEM760      0.0000
     34  C1D        0.2050   -0.3720   19.1110 C.ar  760  HEM760      0.0000
     35  C2D        1.4200   -0.6140   18.3720 C.ar  760  HEM760      0.0000
     36  C3D        2.0570   -1.5910   18.9900 C.ar  760  HEM760      0.0000
     37  C4D        1.2540   -2.0230   20.1140 C.ar  760  HEM760      0.0000
     38  CMD        1.8350    0.1880   17.1100 C.3   760  HEM760      0.0000
     39  CAD        3.4010   -2.2460   18.6070 C.3   760  HEM760      0.0000
     40  CBD        3.1620   -3.4980   17.7500 C.3   760  HEM760      0.0000
     41  CGD        4.4250   -4.0410   17.1200 C.2   760  HEM760      0.0000
     42  O1D        5.4470   -3.3070   17.0700 O.co2 760  HEM760      0.0000
     43  O2D        4.3190   -5.2080   16.6670 O.co2 760  HEM760      0.0000
@<TRIPOS>BOND
     1    43    41   ar
     2    42    41   ar
     3    38    35    1
     4    41    40    1
     5    32    31    2
     6    40    39    1
     7    31    28    1
     8    35    36   ar
     9    35    34   ar
    10    39    36    1
    11     5    34    2
    12     5    29    1
    13    36    37   ar
    14    34    33   ar
    15    28    29    1
    16    28    27    2
    17    29    25    2
    18    27    30    1
    19    27    26    1
    20    37    33   ar
    21    37     2    2
    22    33     1    1
    23    25    26    1
    24    25     1    1
    25    15    14   ar
    26    26     4    2
    27     2     7    1
    28     1     6    1
    29     1    17    1
    30    13    14    1
    31    13    12    1
    32    14    16   ar
    33     7     6    2
    34     7     8    1
    35     4    21    1
    36     6    10    1
    37    12     8    1
    38    17    21   ar
    39    17    18   ar
    40     8     9    2
    41    21    20   ar
    42    10     9    1
    43    10     3    2
    44    18     3    1
    45    18    19   ar
    46     9    11    1
    47    20    23    1
    48    20    19   ar
    49    23    24    2
    50    19    22    1
