@<TRIPOS>MOLECULE
1p80_HEM_A_1.pdb
 43 50 0 0 0
SMALL
GASTEIGER

@<TRIPOS>ATOM
      1  CHA       28.1350   -3.0720   78.7530 C.2   760  HEM760      0.0000
      2  CHB       24.2450   -3.7840   81.5840 C.2   760  HEM760      0.0000
      3  CHC       22.2250    0.2580   79.8460 C.2   760  HEM760      0.0000
      4  CHD       25.7910    0.5960   76.5970 C.2   760  HEM760      0.0000
      5  C1A       27.2670   -3.5690   79.7130 C.2   760  HEM760      0.0000
      6  C2A       27.5390   -4.7160   80.5620 C.2   760  HEM760      0.0000
      7  C3A       26.4610   -4.9210   81.3390 C.2   760  HEM760      0.0000
      8  C4A       25.4950   -3.8890   81.0080 C.2   760  HEM760      0.0000
      9  CMA       26.2000   -5.9870   82.4210 C.3   760  HEM760      0.0000
     10  CAA       28.8290   -5.5590   80.5330 C.3   760  HEM760      0.0000
     11  CBA       28.7080   -6.8600   79.6750 C.3   760  HEM760      0.0000
     12  CGA       30.0360   -7.6060   79.7470 C.2   760  HEM760      0.0000
     13  O1A       30.7680   -7.5240   78.7450 O.co2 760  HEM760      0.0000
     14  O2A       30.2460   -8.1710   80.8460 O.co2 760  HEM760      0.0000
     15  C1B       23.3400   -2.7700   81.3300 C.ar  760  HEM760      0.0000
     16  C2B       22.0200   -2.6490   81.9170 C.ar  760  HEM760      0.0000
     17  C3B       21.4650   -1.5240   81.4480 C.ar  760  HEM760      0.0000
     18  C4B       22.4240   -0.9190   80.5450 C.ar  760  HEM760      0.0000
     19  CMB       21.4000   -3.6630   82.9070 C.3   760  HEM760      0.0000
     20  CAB       20.0830   -0.9190   81.7450 C.2   760  HEM760      0.0000
     21  CBB       19.0060   -1.5920   82.1080 C.2   760  HEM760      0.0000
     22  C1C       22.9920    0.6580   78.7720 C.2   760  HEM760      0.0000
     23  C2C       22.6340    1.7250   77.8510 C.2   760  HEM760      0.0000
     24  C3C       23.6070    1.8160   76.9420 C.2   760  HEM760      0.0000
     25  C4C       24.6090    0.8140   77.2800 C.2   760  HEM760      0.0000
     26  CMC       21.3350    2.5500   77.9630 C.3   760  HEM760      0.0000
     27  CAC       23.7690    2.7540   75.7340 C.2   760  HEM760      0.0000
     28  CBC       22.6680    3.1310   75.0610 C.2   760  HEM760      0.0000
     29  C1D       26.7330   -0.3650   76.9280 C.ar  760  HEM760      0.0000
     30  C2D       27.9720   -0.5510   76.2040 C.ar  760  HEM760      0.0000
     31  C3D       28.6120   -1.5600   76.7860 C.ar  760  HEM760      0.0000
     32  C4D       27.8180   -2.0370   77.8880 C.ar  760  HEM760      0.0000
     33  CMD       28.3470    0.3130   74.9720 C.3   760  HEM760      0.0000
     34  CAD       29.9820   -2.1750   76.3950 C.3   760  HEM760      0.0000
     35  CBD       29.8370   -3.5630   75.7640 C.3   760  HEM760      0.0000
     36  CGD       31.0390   -4.0660   75.0070 C.2   760  HEM760      0.0000
     37  O1D       30.9000   -5.2450   74.5750 O.co2 760  HEM760      0.0000
     38  O2D       32.0180   -3.3140   74.8580 O.co2 760  HEM760      0.0000
     39  NA        26.0070   -3.0900   80.0060 N.2   760  HEM760      0.0000
     40  NB        23.5700   -1.6990   80.4860 N.ar  760  HEM760      0.0000
     41  NC        24.2180    0.1180   78.4000 N.2   760  HEM760      0.0000
     42  ND        26.6490   -1.2820   77.9710 N.ar  760  HEM760      0.0000
     43 FE         24.9540   -1.6650   79.0150 Fe    760  HEM760      0.0000
@<TRIPOS>BOND
     1    37    36   ar
     2    38    36   ar
     3    33    30    1
     4    36    35    1
     5    28    27    2
     6    27    24    1
     7    35    34    1
     8    30    31   ar
     9    30    29   ar
    10    34    31    1
    11     4    29    2
    12     4    25    1
    13    31    32   ar
    14    29    42   ar
    15    24    25    1
    16    24    23    2
    17    25    41    2
    18    23    26    1
    19    23    22    1
    20    32    42   ar
    21    32     1    2
    22    42    43    1
    23    41    22    1
    24    41    43    1
    25    13    12   ar
    26     1     5    1
    27    22     3    2
    28    43    39    1
    29    43    40    1
    30    11    12    1
    31    11    10    1
    32     5    39    2
    33     5     6    1
    34    12    14   ar
    35     3    18    1
    36    39     8    1
    37    40    18   ar
    38    40    15   ar
    39    10     6    1
    40    18    17   ar
    41     6     7    2
    42     8     7    1
    43     8     2    2
    44    15     2    1
    45    15    16   ar
    46     7     9    1
    47    17    20    1
    48    17    16   ar
    49    20    21    2
    50    16    19    1
