@<TRIPOS>MOLECULE
1p81_HDD_A_1.pdb
 44 52 0 0 0
SMALL
GASTEIGER

@<TRIPOS>ATOM
      1 FE         51.2320   -1.6430  136.3260 Fe    760  HDD760      0.0000
      2  CHA       54.3670   -3.1760  135.9910 C.2   760  HDD760      0.0000
      3  CHB       50.4810   -3.9330  138.8740 C.2   760  HDD760      0.0000
      4  CHC       48.4150    0.2570  137.1570 C.2   760  HDD760      0.0000
      5  CHD       52.0290    0.4900  133.6930 C.2   760  HDD760      0.0000
      6  NA        52.3120   -3.1590  137.3090 N.2   760  HDD760      0.0000
      7  C1A       53.5350   -3.6860  136.9330 C.2   760  HDD760      0.0000
      8  C2A       53.7220   -4.8760  137.8110 C.2   760  HDD760      0.0000
      9  C3A       52.6460   -5.1410  138.5580 C.2   760  HDD760      0.0000
     10  C4A       51.7420   -3.9710  138.3140 C.2   760  HDD760      0.0000
     11  CMA       52.4030   -6.0990  139.7280 C.3   760  HDD760      0.0000
     12  CAA       55.0370   -5.6880  137.7450 C.3   760  HDD760      0.0000
     13  CBA       54.9490   -6.9850  136.8380 C.3   760  HDD760      0.0000
     14  CGA       56.3530   -7.6570  137.0040 C.2   760  HDD760      0.0000
     15  O1A       57.0280   -7.5420  135.9860 O.co2 760  HDD760      0.0000
     16  O2A       56.4770   -8.2430  138.0690 O.co2 760  HDD760      0.0000
     17  NB        49.7020   -1.8440  137.8320 N.ar  760  HDD760      0.0000
     18  C1B       49.6030   -2.8420  138.7160 C.ar  760  HDD760      0.0000
     19  C2B       48.2160   -2.8110  139.2310 C.ar  760  HDD760      0.0000
     20  C3B       47.7770   -1.6030  138.8000 C.ar  760  HDD760      0.0000
     21  C4B       48.6610   -0.9180  137.8820 C.ar  760  HDD760      0.0000
     22  CMB       47.5500   -3.7960  140.2350 C.3   760  HDD760      0.0000
     23  CAB       46.4530   -0.9250  139.1510 C.2   760  HDD760      0.0000
     24  CBB       45.3960   -1.4960  139.4960 C.2   760  HDD760      0.0000
     25  NC        50.4830    0.1630  135.6810 N.2   760  HDD760      0.0000
     26  C1C       49.2290    0.6350  136.1050 C.2   760  HDD760      0.0000
     27  C2C       48.8990    1.7190  135.1680 C.2   760  HDD760      0.0000
     28  C3C       49.8440    1.7170  134.2180 C.2   760  HDD760      0.0000
     29  C4C       50.7950    0.5810  134.4140 C.2   760  HDD760      0.0000
     30  CMC       47.6250    2.6280  135.1930 C.3   760  HDD760      0.0000
     31  CAC       50.0380    2.5290  132.9220 C.2   760  HDD760      0.0000
     32  CBC       48.9590    3.0130  132.4060 C.2   760  HDD760      0.0000
     33  ND        53.0230   -1.4240  135.1400 N.pl3 760  HDD760      0.0000
     34  C1D       52.8920   -0.5240  134.0710 C.2   760  HDD760      0.0000
     35  C2D       54.1120   -0.8280  133.1990 C.2   760  HDD760      0.0000
     36  C3D       54.7900   -1.8040  133.6880 C.2   760  HDD760      0.0000
     37  C4D       54.1190   -2.1900  134.9770 C.2   760  HDD760      0.0000
     38  CMD       54.8440    0.4840  132.8530 C.3   760  HDD760      0.0000
     39  CAD       56.3870   -1.7520  134.3040 C.3   760  HDD760      0.0000
     40  CBD       56.9560   -2.3070  133.0280 C.3   760  HDD760      0.0000
     41  CGD       56.2370   -3.5640  132.7980 C.2   760  HDD760      0.0000
     42  O1D       54.9920   -3.1970  132.9720 O.3   760  HDD760      0.0000
     43  O2D       56.5760   -4.5260  132.1740 O.2   760  HDD760      0.0000
     44  OND       53.7070   -1.3390  131.8120 O.2   760  HDD760      0.0000
@<TRIPOS>BOND
     1    44    35    1
     2    43    41    2
     3    32    31    2
     4    41    42    1
     5    41    40    1
     6    38    35    1
     7    31    28    1
     8    42    36    1
     9    40    39    1
    10    35    36    2
    11    35    34    1
    12    36    39    1
    13    36    37    1
    14     5    34    2
    15     5    29    1
    16    34    33    1
    17    28    29    1
    18    28    27    2
    19    29    25    2
    20    37    33    1
    21    37     2    2
    22    33     1    1
    23    27    30    1
    24    27    26    1
    25    25    26    1
    26    25     1    1
    27    15    14   ar
    28     2     7    1
    29    26     4    2
    30     1     6    1
    31     1    17    1
    32    13    14    1
    33    13    12    1
    34     7     6    2
    35     7     8    1
    36    14    16   ar
    37     4    21    1
    38     6    10    1
    39    12     8    1
    40     8     9    2
    41    17    21   ar
    42    17    18   ar
    43    21    20   ar
    44    10     9    1
    45    10     3    2
    46     9    11    1
    47    18     3    1
    48    18    19   ar
    49    20    23    1
    50    20    19   ar
    51    23    24    2
    52    19    22    1
