@<TRIPOS>MOLECULE
1p84_HEM_C_1.pdb
 43 50 0 0 0
SMALL
GASTEIGER

@<TRIPOS>ATOM
      1 FE        -10.5080   38.5850   -1.4580 Fe    701  HEM701      0.0000
      2  CHA      -11.7480   35.4800   -1.9310 C.2   701  HEM701      0.0000
      3  CHB      -13.0490   39.8990   -3.4230 C.2   701  HEM701      0.0000
      4  CHC       -9.2910   41.7230   -0.9910 C.2   701  HEM701      0.0000
      5  CHD       -7.9200   37.3090    0.3580 C.2   701  HEM701      0.0000
      6  NA       -12.0340   37.8430   -2.5380 N.ar  701  HEM701      0.0000
      7  C1A      -12.3970   36.5160   -2.5930 C.ar  701  HEM701      0.0000
      8  C2A      -13.6080   36.3610   -3.3670 C.ar  701  HEM701      0.0000
      9  C3A      -13.9310   37.5760   -3.8460 C.ar  701  HEM701      0.0000
     10  C4A      -12.9840   38.5160   -3.2820 C.ar  701  HEM701      0.0000
     11  CMA      -15.1170   37.8650   -4.7470 C.3   701  HEM701      0.0000
     12  CAA      -14.4250   35.1040   -3.4670 C.3   701  HEM701      0.0000
     13  CBA      -15.5750   35.0860   -2.4510 C.3   701  HEM701      0.0000
     14  CGA      -16.2210   33.7120   -2.3410 C.2   701  HEM701      0.0000
     15  O1A      -15.6650   32.8570   -1.6350 O.co2 701  HEM701      0.0000
     16  O2A      -17.2710   33.4780   -2.9670 O.co2 701  HEM701      0.0000
     17  NB       -11.0780   40.4380   -2.0520 N.2   701  HEM701      0.0000
     18  C1B      -12.1600   40.7960   -2.8420 C.2   701  HEM701      0.0000
     19  C2B      -12.2000   42.2190   -3.0190 C.2   701  HEM701      0.0000
     20  C3B      -11.1590   42.7280   -2.3020 C.2   701  HEM701      0.0000
     21  C4B      -10.4450   41.6110   -1.7370 C.2   701  HEM701      0.0000
     22  CMB      -13.2230   42.9240   -3.9410 C.3   701  HEM701      0.0000
     23  CAB      -10.6510   44.0150   -2.0490 C.3   701  HEM701      0.0000
     24  CBB      -11.2320   45.2320   -2.4790 C.3   701  HEM701      0.0000
     25  NC        -8.9330   39.3590   -0.4880 N.ar  701  HEM701      0.0000
     26  C1C       -8.5720   40.6880   -0.4210 C.ar  701  HEM701      0.0000
     27  C2C       -7.3020   40.8330    0.2570 C.ar  701  HEM701      0.0000
     28  C3C       -6.9410   39.5950    0.6660 C.ar  701  HEM701      0.0000
     29  C4C       -7.9430   38.6810    0.1820 C.ar  701  HEM701      0.0000
     30  CMC       -6.4140   42.1120    0.4870 C.3   701  HEM701      0.0000
     31  CAC       -5.8250   39.3420    1.4370 C.3   701  HEM701      0.0000
     32  CBC       -5.0050   38.2180    1.2060 C.3   701  HEM701      0.0000
     33  ND        -9.9830   36.7710   -0.8380 N.2   701  HEM701      0.0000
     34  C1D       -8.8720   36.4150   -0.1080 C.2   701  HEM701      0.0000
     35  C2D       -8.8720   34.9980    0.1550 C.2   701  HEM701      0.0000
     36  C3D       -9.9560   34.4860   -0.4780 C.2   701  HEM701      0.0000
     37  C4D      -10.6330   35.5930   -1.1170 C.2   701  HEM701      0.0000
     38  CMD       -7.8560   34.2770    1.0630 C.3   701  HEM701      0.0000
     39  CAD      -10.3950   33.0300   -0.4500 C.3   701  HEM701      0.0000
     40  CBD      -11.3600   32.7520    0.6870 C.3   701  HEM701      0.0000
     41  CGD      -12.7860   33.0760    0.3160 C.2   701  HEM701      0.0000
     42  O1D      -13.3170   32.4080   -0.5770 O.co2 701  HEM701      0.0000
     43  O2D      -13.3910   33.9970    0.8930 O.co2 701  HEM701      0.0000
@<TRIPOS>BOND
     1    11     9    1
     2    22    19    1
     3     9     8   ar
     4     9    10   ar
     5    12     8    1
     6    12    13    1
     7     3    10    2
     8     3    18    1
     9     8     7   ar
    10    10     6   ar
    11    19    18    1
    12    19    20    2
    13    16    14   ar
    14    18    17    2
    15     7     6   ar
    16     7     2    2
    17     6     1    1
    18    24    23    1
    19    13    14    1
    20    14    15   ar
    21    20    23    1
    22    20    21    1
    23    17    21    1
    24    17     1    1
    25     2    37    1
    26    21     4    2
    27     1    33    1
    28     1    25    1
    29    37    33    2
    30    37    36    1
    31     4    26    1
    32    33    34    1
    33    42    41   ar
    34    25    26   ar
    35    25    29   ar
    36    36    39    1
    37    36    35    2
    38    39    40    1
    39    26    27   ar
    40    34    35    1
    41    34     5    2
    42    35    38    1
    43    29     5    1
    44    29    28   ar
    45    27    30    1
    46    27    28   ar
    47    41    40    1
    48    41    43   ar
    49    28    31    1
    50    32    31    1
