@<TRIPOS>MOLECULE
1p84_DBT_C_1.pdb
 19 20 0 0 0
SMALL
GASTEIGER

@<TRIPOS>ATOM
      1  O6       -18.2540   34.6980  -19.9450 O.2   705  DBT705     -0.2837
      2  C6       -18.0920   34.1660  -18.6850 C.2   705  DBT705      0.2304
      3  C5       -17.9870   34.9380  -17.5840 C.2   705  DBT705      0.0597
      4  C4       -17.8070   34.3490  -16.2080 C.2   705  DBT705      0.2091
      5  O4       -17.7160   35.0650  -15.2400 O.2   705  DBT705     -0.2855
      6  C4A      -17.7600   32.8930  -16.1460 C.2   705  DBT705      0.1105
      7  C7A      -17.8620   32.1120  -17.2830 C.3   705  DBT705      0.1569
      8  S1       -17.7660   30.4180  -16.9300 S.3   705  DBT705     -0.1010
      9  C2       -17.5930   30.8590  -15.2700 C.3   705  DBT705      0.1835
     10  N3       -17.6010   32.1700  -14.9780 N.2   705  DBT705     -0.2582
     11  C7       -18.0340   32.6660  -18.5940 C.2   705  DBT705      0.2267
     12  O7       -18.1350   32.0450  -19.6280 O.2   705  DBT705     -0.2866
     13  C8       -18.0460   36.4350  -17.6000 C.3   705  DBT705      0.0330
     14  C9       -16.8500   37.0940  -18.2170 C.3   705  DBT705      0.0049
     15  C10      -17.1620   38.5810  -18.3500 C.3   705  DBT705      0.0003
     16  C11      -16.3730   39.3930  -17.3490 C.3   705  DBT705      0.0000
     17  C12      -16.6070   40.8590  -17.5760 C.3   705  DBT705      0.0000
     18  C13      -15.2850   41.6160  -17.4810 C.3   705  DBT705      0.0000
     19  C14      -15.5190   43.1330  -17.4370 C.3   705  DBT705      0.0000
@<TRIPOS>BOND
     1     1     2    1
     2    12    11    2
     3     2    11    1
     4     2     3    2
     5    11     7    1
     6    15    14    1
     7    15    16    1
     8    14    13    1
     9    13     3    1
    10     3     4    1
    11    17    18    1
    12    17    16    1
    13    18    19    1
    14     7     8    1
    15     7     6    1
    16     8     9    1
    17     4     6    1
    18     4     5    2
    19     6    10    2
    20     9    10    1
