@<TRIPOS>MOLECULE
1p84_UQ6_C_1.pdb
 43 43 0 0 0
SMALL
GASTEIGER

@<TRIPOS>ATOM
      1  C1       -14.5350   62.9470    2.2170 C.2   706  UQ6706      0.0198
      2  C1M      -13.0510   62.6530    2.5070 C.3   706  UQ6706      0.0343
      3  C2       -14.7610   64.0470    1.2500 C.2   706  UQ6706      0.2282
      4  O2       -13.7730   64.6480    0.7750 O.2   706  UQ6706     -0.2836
      5  C3       -16.1200   64.4570    0.8720 C.2   706  UQ6706      0.2140
      6  C4       -17.2130   63.7790    1.4230 C.2   706  UQ6706      0.2140
      7  C5       -17.0020   62.6590    2.4100 C.2   706  UQ6706      0.2285
      8  O5       -18.0040   62.0570    2.9080 O.2   706  UQ6706     -0.2835
      9  C6       -15.5970   62.2430    2.7910 C.2   706  UQ6706      0.0235
     10  O3       -16.2690   65.5550   -0.0890 O.2   706  UQ6706     -0.4652
     11  C3M      -15.4180   66.5940   -0.6150 C.3   706  UQ6706      0.2528
     12  O4       -18.5440   64.0940    1.1380 O.2   706  UQ6706     -0.4652
     13  C4M      -19.0770   65.3730    0.8120 C.3   706  UQ6706      0.2528
     14  C7       -15.3560   61.0370    3.8600 C.3   706  UQ6706      0.0548
     15  C8       -14.9370   59.7140    3.3070 C.2   706  UQ6706     -0.0298
     16  C9       -13.6560   59.1760    3.1830 C.2   706  UQ6706     -0.0475
     17  C10      -12.4030   59.9560    3.6480 C.3   706  UQ6706      0.0260
     18  C11      -13.3200   57.7820    2.5850 C.3   706  UQ6706      0.0264
     19  C12      -11.8240   57.5040    2.6050 C.3   706  UQ6706      0.0297
     20  C13      -11.3040   56.1620    2.5900 C.2   706  UQ6706     -0.0342
     21  C14       -9.9900   55.7130    2.6270 C.2   706  UQ6706     -0.0478
     22  C15       -8.7570   56.6700    2.7080 C.3   706  UQ6706      0.0260
     23  C16       -9.5550   54.2540    2.6160 C.3   706  UQ6706      0.0263
     24  C17       -8.0930   53.9250    2.4680 C.3   706  UQ6706      0.0297
     25  C18       -7.9890   52.5170    2.5000 C.2   706  UQ6706     -0.0342
     26  C19       -7.2630   51.5220    3.1020 C.2   706  UQ6706     -0.0478
     27  C20       -7.6140   50.0730    2.7460 C.3   706  UQ6706      0.0260
     28  C21       -6.1180   51.6360    4.1190 C.3   706  UQ6706      0.0263
     29  C22       -5.1870   50.4090    4.1960 C.3   706  UQ6706      0.0297
     30  C23       -5.1900   49.6120    5.4500 C.2   706  UQ6706     -0.0342
     31  C24       -4.1860   48.8150    5.9880 C.2   706  UQ6706     -0.0478
     32  C25       -2.7950   48.6120    5.3040 C.3   706  UQ6706      0.0260
     33  C26       -4.2990   48.0770    7.3310 C.3   706  UQ6706      0.0264
     34  C27       -5.3750   47.0520    7.5040 C.3   706  UQ6706      0.0300
     35  C28       -4.7800   45.8340    8.0490 C.2   706  UQ6706     -0.0300
     36  C29       -4.4670   45.4600    9.3590 C.2   706  UQ6706     -0.0261
     37  C30       -4.7160   46.3850   10.5650 C.3   706  UQ6706      0.0307
     38  C31       -3.8430   44.0790    9.7790 C.2   706  UQ6706     -0.0046
     39  C32       -3.5800   43.8620   11.2950 C.2   706  UQ6706     -0.0010
     40  C33       -2.9300   42.5580   11.6750 C.2   706  UQ6706     -0.0085
     41  C34       -2.8300   41.8350   12.8960 C.2   706  UQ6706     -0.0436
     42  C35       -3.4400   42.2820   14.2210 C.3   706  UQ6706      0.0264
     43  C36       -2.1190   40.4890   13.0880 C.3   706  UQ6706      0.0264
@<TRIPOS>BOND
     1    11    10    1
     2    10     5    1
     3     4     3    2
     4    13    12    1
     5     5     3    1
     6     5     6    2
     7    12     6    1
     8     3     1    1
     9     6     7    1
    10     1     2    1
    11     1     9    2
    12     7     9    1
    13     7     8    2
    14    24    25    1
    15    24    23    1
    16    25    26    2
    17    18    19    1
    18    18    16    1
    19    20    19    1
    20    20    21    2
    21    23    21    1
    22    21    22    1
    23    27    26    1
    24     9    14    1
    25    26    28    1
    26    16    15    2
    27    16    17    1
    28    15    14    1
    29    28    29    1
    30    29    30    1
    31    32    31    1
    32    30    31    2
    33    31    33    1
    34    33    34    1
    35    34    35    1
    36    35    36    2
    37    36    38    1
    38    36    37    1
    39    38    39    2
    40    39    40    1
    41    40    41    2
    42    41    43    1
    43    41    42    1
