@<TRIPOS>MOLECULE
1p8d_CO1_A_1.pdb
 29 33 0 0 0
SMALL
GASTEIGER

@<TRIPOS>ATOM
      1  O24       60.1020    7.8200   94.8010 O.3   108  CO1108     -0.2228
      2  C22       60.4030    6.4010   94.7780 C.3   108  CO1108      0.1560
      3  C18       61.8440    6.1980   94.1590 C.3   108  CO1108      0.0545
      4  C14       62.1140    4.7990   93.4690 C.2   108  CO1108     -0.0466
      5  C9        63.3820    4.2670   93.5160 C.2   108  CO1108     -0.0345
      6  C4        63.7710    2.8940   92.9400 C.3   108  CO1108      0.0254
      7  C1        62.6980    2.0850   92.0830 C.3   108  CO1108      0.0046
      8  C3        61.2390    2.3860   92.6450 C.3   108  CO1108      0.0038
      9  C8        60.1500    1.5490   91.8530 C.3   108  CO1108      0.0003
     10  C11       60.5170    0.0380   91.7900 C.3   108  CO1108      0.0000
     11  C5        61.9480   -0.2620   91.1500 C.3   108  CO1108      0.0000
     12  C12       61.9050    0.2150   89.6400 C.3   108  CO1108      0.0000
     13  C10       62.5370   -1.7270   91.3400 C.3   108  CO1108      0.0000
     14  C13       64.0440   -1.4710   91.0800 C.3   108  CO1108      0.0000
     15  C6        64.3480   -0.0400   91.6110 C.3   108  CO1108      0.0000
     16  C2        62.9570    0.5180   92.0690 C.3   108  CO1108      0.0003
     17  C17       61.9100   -2.9430   90.4660 C.3   108  CO1108      0.0001
     18  C21       60.3510   -3.0230   90.4180 C.3   108  CO1108      0.0000
     19  C20       62.4220   -4.3720   90.8090 C.3   108  CO1108      0.0026
     20  C23       62.0080   -4.9850   92.1670 C.3   108  CO1108      0.0320
     21  C25       62.5880   -6.4070   92.2890 C.3   108  CO1108      0.1397
     22  O27       62.7680   -7.0940   93.4940 O.3   108  CO1108     -0.3563
     23  C26       63.9830   -6.5910   92.8220 C.3   108  CO1108      0.1176
     24  C28       64.7430   -5.3400   93.3700 C.3   108  CO1108      0.0321
     25  C29       64.8090   -7.7010   92.1870 C.3   108  CO1108      0.0321
     26  C7        60.9080    3.9810   92.7510 C.3   108  CO1108      0.0150
     27  C16       60.6210    4.5570   91.3090 C.3   108  CO1108      0.0040
     28  C15       59.6600    4.1710   93.6770 C.3   108  CO1108      0.0063
     29  C19       59.2660    5.6260   94.0160 C.3   108  CO1108      0.0335
@<TRIPOS>BOND
     1    12    11    1
     2    18    17    1
     3    17    19    1
     4    17    13    1
     5    19    20    1
     6    14    13    1
     7    14    15    1
     8    11    13    1
     9    11    10    1
    10    11    16    1
    11    27    26    1
    12    15    16    1
    13    10     9    1
    14     9     8    1
    15    16     7    1
    16     7     8    1
    17     7     6    1
    18    20    21    1
    19    25    23    1
    20    21    23    1
    21    21    22    1
    22     8    26    1
    23    26     4    1
    24    26    28    1
    25    23    24    1
    26    23    22    1
    27     6     5    1
    28     4     5    2
    29     4     3    1
    30    28    29    1
    31    29     2    1
    32     3     2    1
    33     2     1    1
