@<TRIPOS>MOLECULE
1p8h_RET_A_1.pdb
 20 20 0 0 0
SMALL
GASTEIGER

@<TRIPOS>ATOM
      1  C1        15.0380   45.3800    0.3340 C.3   301  RET301      0.0000
      2  C2        14.8270   46.2680   -0.8790 C.3   301  RET301      0.0000
      3  C3        14.2760   47.6080   -0.5920 C.3   301  RET301      0.0000
      4  C4        15.0900   48.3040    0.4800 C.3   301  RET301      0.0000
      5  C5        15.1490   47.4520    1.7330 C.3   301  RET301      0.0000
      6  C6        15.3720   46.1300    1.6330 C.3   301  RET301      0.0000
      7  C7        15.5110   45.6610    3.0200 C.3   301  RET301      0.0000
      8  C8        15.6500   44.3240    3.1960 C.3   301  RET301      0.0000
      9  C9        16.3070   43.4890    4.2180 C.3   301  RET301      0.0000
     10  C10       16.6410   42.1720    4.1430 C.3   301  RET301      0.0000
     11  C11       16.8930   41.2880    5.2860 C.3   301  RET301      0.0000
     12  C12       17.1910   39.9890    4.9100 C.3   301  RET301      0.0000
     13  C13       17.6110   39.3430    6.1540 C.3   301  RET301      0.0000
     14  C14       17.3190   38.0470    6.3520 C.3   301  RET301      0.0000
     15  C15       17.4460   36.9550    5.3780 C.3   301  RET301      0.0000
     16  C16       13.7070   44.5930    0.5120 C.3   301  RET301      0.0000
     17  C17       16.1890   44.3910   -0.0510 C.3   301  RET301      0.0000
     18  C18       15.2360   48.2770    2.9840 C.3   301  RET301      0.0000
     19  C19       16.4130   44.0010    5.6140 C.3   301  RET301      0.0000
     20  C20       17.8430   39.4340    7.6320 C.3   301  RET301      0.0000
@<TRIPOS>BOND
     1     2     3    1
     2     2     1    1
     3     3     4    1
     4    17     1    1
     5     1    16    1
     6     1     6    1
     7     4     5    1
     8     6     5    1
     9     6     7    1
    10     5    18    1
    11     7     8    1
    12     8     9    1
    13    10     9    1
    14    10    11    1
    15     9    19    1
    16    12    11    1
    17    12    13    1
    18    15    14    1
    19    13    14    1
    20    13    20    1
