@<TRIPOS>MOLECULE
1p8i_RET_A_1.pdb
 20 20 0 0 0
SMALL
GASTEIGER

@<TRIPOS>ATOM
      1  C1        14.9190   45.5400    0.2930 C.3   301  RET301      0.0183
      2  C2        14.7450   46.4980   -0.8870 C.3   301  RET301      0.0044
      3  C3        14.1120   47.7850   -0.5900 C.3   301  RET301      0.0047
      4  C4        14.7820   48.4840    0.5810 C.3   301  RET301      0.0217
      5  C5        15.0140   47.5730    1.7660 C.2   301  RET301     -0.0479
      6  C6        15.1760   46.2470    1.6360 C.2   301  RET301     -0.0307
      7  C7        15.5200   45.5410    2.8780 C.2   301  RET301     -0.0052
      8  C8        15.8110   44.2170    3.0290 C.2   301  RET301     -0.0049
      9  C9        16.1910   43.5630    4.2830 C.2   301  RET301     -0.0261
     10  C10       16.3720   42.2210    4.0880 C.2   301  RET301     -0.0304
     11  C11       16.8050   41.4610    5.2870 C.3   301  RET301      0.0257
     12  C12       17.0440   40.1410    5.0210 C.3   301  RET301      0.0047
     13  C13       17.3610   39.1300    6.0340 C.3   301  RET301      0.0003
     14  C14       17.5310   37.9020    5.4790 C.3   301  RET301      0.0000
     15  C15       17.3990   36.6130    6.1630 C.3   301  RET301      0.0000
     16  C16       13.6310   44.6690    0.3700 C.3   301  RET301      0.0043
     17  C17       16.1170   44.6230   -0.1520 C.3   301  RET301      0.0043
     18  C18       15.2240   48.3830    3.0270 C.3   301  RET301      0.0260
     19  C19       16.4790   44.3540    5.5240 C.3   301  RET301      0.0307
     20  C20       17.7930   39.5440    7.4250 C.3   301  RET301      0.0000
@<TRIPOS>BOND
     1     2     3    1
     2     2     1    1
     3     3     4    1
     4    17     1    1
     5     1    16    1
     6     1     6    1
     7     4     5    1
     8     6     5    2
     9     6     7    1
    10     5    18    1
    11     7     8    2
    12     8     9    1
    13    10     9    2
    14    10    11    1
    15     9    19    1
    16    12    11    1
    17    12    13    1
    18    14    13    1
    19    14    15    1
    20    13    20    1
