@<TRIPOS>MOLECULE
1p8j_III_J_1.pdb
 50 49 0 0 0
SMALL
GASTEIGER

@<TRIPOS>ATOM
      1  C1        40.0490   -4.8130  117.5770 C.2   801  DKA801      0.2418
      2  O1        39.9310   -3.6720  117.1190 O.2   801  DKA801     -0.2733
      3  C2        39.2190   -5.9590  117.0420 C.3   801  DKA801      0.0868
      4  C3        38.2720   -5.4970  115.9820 C.3   801  DKA801      0.0096
      5  C4        36.9340   -6.2220  115.9400 C.3   801  DKA801      0.0005
      6  C5        37.0170   -7.7060  115.7270 C.3   801  DKA801      0.0000
      7  C6        35.6480   -8.2420  115.2970 C.3   801  DKA801      0.0000
      8  C7        35.5880   -9.7640  115.3710 C.3   801  DKA801      0.0000
      9  C8        34.1880  -10.2480  115.0870 C.3   801  DKA801      0.0000
     10  C9        34.0800  -11.7660  114.9850 C.3   801  DKA801      0.0000
     11  C10       34.6840  -12.5180  116.1030 C.3   801  DKA801      0.0000
     12  N         40.8820   -5.0990  118.5670 N.am  802  ARG802     -0.1978
     13  CA        41.7190   -4.0640  119.1520 C.3   802  ARG802      0.1728
     14  C         43.1510   -4.5630  119.1860 C.2   802  ARG802      0.2616
     15  O         43.4140   -5.6800  119.6120 O.2   802  ARG802     -0.2715
     16  CB        41.2080   -3.7250  120.5520 C.3   802  ARG802      0.0348
     17  CG        39.7760   -3.1530  120.5610 C.3   802  ARG802      0.0492
     18  CD        39.7460   -1.7360  119.9830 C.3   802  ARG802      0.2205
     19  NE        38.4030   -1.1480  119.8890 N.pl3 802  ARG802     -0.0865
     20  CZ        37.6620   -1.1330  118.7810 C.cat 802  ARG802      0.5346
     21  NH1       36.4590   -0.5700  118.7890 N.pl3 802  ARG802      0.1354
     22  NH2       38.1280   -1.6800  117.6600 N.pl3 802  ARG802      0.1354
     23  N         44.0770   -3.7450  118.7130 N.am  803  VAL803     -0.1963
     24  CA        45.4740   -4.1470  118.7010 C.3   803  VAL803      0.1727
     25  C         46.3220   -3.2870  119.6310 C.2   803  VAL803      0.2616
     26  O         46.1040   -2.0820  119.7540 O.2   803  VAL803     -0.2715
     27  CB        46.0830   -4.0670  117.2760 C.3   803  VAL803      0.0290
     28  CG1       45.2590   -4.8730  116.3130 C.3   803  VAL803      0.0023
     29  CG2       46.1610   -2.6200  116.8110 C.3   803  VAL803      0.0023
     30  N         47.2890   -3.9200  120.2830 N.am  804  LYS804     -0.1963
     31  CA        48.1940   -3.2380  121.1950 C.3   804  LYS804      0.1728
     32  C         49.1320   -2.3660  120.3880 C.2   804  LYS804      0.2612
     33  O         49.4730   -2.6990  119.2550 O.2   804  LYS804     -0.2715
     34  CB        49.0390   -4.2500  121.9580 C.3   804  LYS804      0.0311
     35  CG        48.2570   -5.2560  122.7470 C.3   804  LYS804      0.0038
     36  CD        49.1580   -6.4080  123.1510 C.3   804  LYS804      0.0206
     37  CE        48.3930   -7.4280  123.9380 C.3   804  LYS804      0.1093
     38  NZ        49.2760   -8.5660  124.2900 N.3   804  LYS804     -0.1314
     39  N         49.5490   -1.2480  120.9720 N.am  805  ARG805     -0.2031
     40  CA        50.4970   -0.3520  120.3210 C.3   805  ARG805      0.1257
     41  C         51.7620   -0.2090  121.1640 C.3   805  ARG805      0.1718
     42  O         52.7990    0.2200  120.3480 O.3   805  ARG805     -0.2213
     43  CB        49.8580    1.0190  120.0730 C.3   805  ARG805      0.0280
     44  CG        48.7370    0.9720  119.0450 C.3   805  ARG805      0.0488
     45  CD        47.8980    2.2530  118.9750 C.3   805  ARG805      0.2205
     46  NE        46.8170    2.1000  118.0050 N.pl3 805  ARG805     -0.0865
     47  CZ        45.7500    2.8900  117.9040 C.cat 805  ARG805      0.5346
     48  NH1       44.8350    2.6380  116.9780 N.pl3 805  ARG805      0.1354
     49  NH2       45.5830    3.9140  118.7220 N.pl3 805  ARG805      0.1354
     50  C1        52.1250   -1.5720  121.7940 C.3   806  0QE806      0.0373
@<TRIPOS>BOND
     1    10     9    1
     2    10    11    1
     3     9     8    1
     4     7     8    1
     5     7     6    1
     6     6     5    1
     7     5     4    1
     8     4     3    1
     9    28    27    1
    10    29    27    1
    11    48    47    1
    12     3     1    1
    13     2     1    2
    14    27    24    1
    15     1    12   am
    16    22    20    1
    17    47    46    2
    18    47    49    1
    19    46    45    1
    20    12    13    1
    21    24    23    1
    22    24    25    1
    23    23    14   am
    24    20    21    1
    25    20    19    2
    26    45    44    1
    27    44    43    1
    28    13    14    1
    29    13    16    1
    30    14    15    2
    31    33    32    2
    32    25    26    2
    33    25    30   am
    34    19    18    1
    35    18    17    1
    36    43    40    1
    37    30    31    1
    38    40    39    1
    39    40    41    1
    40    42    41    1
    41    32    39   am
    42    32    31    1
    43    16    17    1
    44    41    50    1
    45    31    34    1
    46    34    35    1
    47    35    36    1
    48    36    37    1
    49    37    38    1
