@<TRIPOS>MOLECULE
1p8j_FUC_G_1.pdb
 10 10 0 0 0
SMALL
GASTEIGER

@<TRIPOS>ATOM
      1  C1        -4.2010  -41.7150  -13.2910 C.3   953  FUC953      0.1776
      2  C2        -3.7410  -40.2780  -13.0950 C.3   953  FUC953      0.2141
      3  C3        -2.2290  -40.3210  -13.2850 C.3   953  FUC953      0.2172
      4  C4        -1.9150  -40.7800  -14.7220 C.3   953  FUC953      0.2116
      5  C5        -2.5780  -42.1410  -15.0080 C.3   953  FUC953      0.1483
      6  C6        -2.5090  -42.5140  -16.4820 C.3   953  FUC953      0.0349
      7  O2        -4.0830  -39.8110  -11.7960 O.3   953  FUC953     -0.2176
      8  O3        -1.6540  -39.0530  -13.0230 O.3   953  FUC953     -0.2175
      9  O4        -2.3870  -39.8240  -15.6610 O.3   953  FUC953     -0.2177
     10  O5        -3.9790  -42.1060  -14.6380 O.3   953  FUC953     -0.3508
@<TRIPOS>BOND
     1     6     5    1
     2     9     4    1
     3     5     4    1
     4     5    10    1
     5     4     3    1
     6    10     1    1
     7     1     2    1
     8     3     2    1
     9     3     8    1
    10     2     7    1
