@<TRIPOS>MOLECULE
1p8l_AMP_A_1.pdb
 22 24 0 0 0
SMALL
GASTEIGER

@<TRIPOS>ATOM
      1  P         32.1700   26.6490   24.8280 P.3   301  AMP301      0.3942
      2  O1P       32.5990   27.3380   26.0690 O.3   301  AMP301     -0.1425
      3  O3P       32.9920   27.1460   23.6300 O.3   301  AMP301     -0.1425
      4  O5'       30.5950   26.9340   24.5890 O.3   301  AMP301     -0.2926
      5  C5'       30.0080   26.7570   23.3110 C.3   301  AMP301      0.1831
      6  C4'       28.5280   27.0860   23.3970 C.3   301  AMP301      0.1822
      7  O4'       27.9290   27.1540   22.1160 O.3   301  AMP301     -0.3135
      8  C3'       27.8030   25.9830   24.1290 C.3   301  AMP301      0.2184
      9  O3'       27.7420   26.2510   25.5050 O.3   301  AMP301     -0.2174
     10  C2'       26.4460   25.9560   23.4770 C.3   301  AMP301      0.2570
     11  O2'       25.5990   26.8180   24.1750 O.3   301  AMP301     -0.2130
     12  C1'       26.7190   26.4200   22.0540 C.3   301  AMP301      0.3186
     13  N9        26.9120   25.1440   21.3440 N.pl3 301  AMP301     -0.1439
     14  C8        28.0890   24.6280   20.8440 C.3   301  AMP301      0.3377
     15  N7        27.8570   23.4000   20.3170 N.2   301  AMP301     -0.2095
     16  C5        26.5500   23.1130   20.4960 C.2   301  AMP301      0.2526
     17  C6        25.7830   22.0050   20.1420 C.2   301  AMP301      0.4393
     18  N6        26.3880   20.9940   19.5200 N.pl3 301  AMP301      0.2180
     19  N1        24.4190   21.9750   20.4300 N.2   301  AMP301      0.0021
     20  C2        23.8540   23.0530   21.0780 C.3   301  AMP301      0.5254
     21  N3        24.6110   24.1620   21.4320 N.2   301  AMP301     -0.0055
     22  C4        25.9390   24.1950   21.1400 C.2   301  AMP301      0.3518
@<TRIPOS>BOND
     1    18    17    1
     2    17    19    2
     3    17    16    1
     4    15    16    2
     5    15    14    1
     6    19    20    1
     7    16    22    1
     8    14    13    1
     9    20    21    1
    10    22    13    1
    11    22    21    2
    12    13    12    1
    13    12     7    1
    14    12    10    1
    15     7     6    1
    16     5     6    1
    17     5     4    1
    18     6     8    1
    19    10     8    1
    20    10    11    1
    21     3     1    1
    22     8     9    1
    23     4     1    1
    24     1     2    1
