@<TRIPOS>MOLECULE
1p8r_S2C_A_1.pdb
 13 12 0 0 0
SMALL
GASTEIGER

@<TRIPOS>ATOM
      1  OXT       -0.3430   27.8380    5.4020 O.co2 551  S2C551      0.0000
      2  N         -2.1810   25.2250    3.5860 N.3   551  S2C551      0.0000
      3  CA        -1.2300   25.7490    4.5750 C.3   551  S2C551      0.0000
      4  C         -1.4050   27.2850    4.7810 C.2   551  S2C551      0.0000
      5  O         -2.3620   27.9370    4.4610 O.co2 551  S2C551      0.0000
      6  CB         0.1510   25.3480    4.0870 C.3   551  S2C551      0.0000
      7  SG         0.8250   24.1840    5.2390 S.3   551  S2C551      0.0000
      8  CD         2.3960   23.9280    4.4540 C.3   551  S2C551      0.0000
      9  CE         3.2070   22.9390    5.2840 C.3   551  S2C551      0.0000
     10  B          4.5070   22.4790    4.5970 B     551  S2C551      0.0000
     11  O1         4.2200   21.8240    3.3340 O.3   551  S2C551      0.0000
     12  O2         5.4180   23.5720    4.3190 O.3   551  S2C551      0.0000
     13  O3         5.2110   21.5410    5.4460 O.3   551  S2C551      0.0000
@<TRIPOS>BOND
     1    11    10    1
     2     2     3    1
     3     6     3    1
     4     6     7    1
     5    12    10    1
     6     8     7    1
     7     8     9    1
     8     5     4   ar
     9     3     4    1
    10    10     9    1
    11    10    13    1
    12     4     1   ar
