@<TRIPOS>MOLECULE
1p8u_RET_A_1.pdb
 20 20 0 0 0
SMALL
GASTEIGER

@<TRIPOS>ATOM
      1  C1        14.7900   44.9560    0.7730 C.3   301  RET301      0.0186
      2  C2        14.3260   45.8030   -0.3840 C.2   301  RET301     -0.0313
      3  C3        14.2630   47.2630   -0.2900 C.2   301  RET301     -0.0307
      4  C4        14.9260   47.8890    0.8940 C.3   301  RET301      0.0257
      5  C5        14.8510   47.0410    2.1520 C.3   301  RET301      0.0050
      6  C6        15.0050   45.7150    2.0910 C.3   301  RET301      0.0084
      7  C7        15.3170   45.5200    3.5150 C.3   301  RET301      0.0257
      8  C8        15.5810   44.1980    3.6010 C.2   301  RET301     -0.0346
      9  C9        16.2350   43.3260    4.5930 C.2   301  RET301     -0.0482
     10  C10       16.5700   42.0340    4.8120 C.3   301  RET301      0.0220
     11  C11       16.9560   41.3480    6.0470 C.3   301  RET301      0.0087
     12  C12       17.0520   40.0030    5.8260 C.3   301  RET301      0.0220
     13  C13       17.6920   39.2820    6.9380 C.2   301  RET301     -0.0482
     14  C14       17.5570   37.9530    7.0370 C.2   301  RET301     -0.0342
     15  C15       17.1010   36.8900    6.1300 C.3   301  RET301      0.0300
     16  C16       13.6710   43.8790    0.9310 C.3   301  RET301      0.0044
     17  C17       16.1030   44.2210    0.3450 C.3   301  RET301      0.0044
     18  C18       15.1680   47.8870    3.3600 C.3   301  RET301      0.0004
     19  C19       16.4500   43.9090    5.9520 C.3   301  RET301      0.0260
     20  C20       17.9360   40.1740    8.1290 C.3   301  RET301      0.0260
@<TRIPOS>BOND
     1     2     3    2
     2     2     1    1
     3     3     4    1
     4    17     1    1
     5     1    16    1
     6     1     6    1
     7     4     5    1
     8     6     5    1
     9     6     7    1
    10     5    18    1
    11     7     8    1
    12     8     9    2
    13     9    10    1
    14     9    19    1
    15    10    11    1
    16    12    11    1
    17    12    13    1
    18    15    14    1
    19    13    14    2
    20    13    20    1
