@<TRIPOS>MOLECULE
1p8v_DFP_C_1.pdb
 10 9 0 0 0
SMALL
GASTEIGER

@<TRIPOS>ATOM
      1  C1        35.3160   38.5710   37.7170 C.3   500  DFP500      0.1236
      2  C2        36.6220   39.0040   37.0270 C.3   500  DFP500      0.0325
      3  C3        34.0050   38.7840   36.8630 C.3   500  DFP500      0.0325
      4  C1'       36.4880   39.3600   42.3910 C.3   500  DFP500      0.1236
      5  C2'       37.3790   40.5350   41.9870 C.3   500  DFP500      0.0325
      6  C3'       37.1410   38.5110   43.4770 C.3   500  DFP500      0.0325
      7  P         34.9200   38.6630   40.2940 P.3   500  DFP500      0.3659
      8  O1P       35.2660   39.3350   38.9120 O.3   500  DFP500     -0.2993
      9  O2P       36.2580   38.5920   41.2050 O.3   500  DFP500     -0.2993
     10  O3P       34.3210   37.2770   40.0630 O.3   500  DFP500     -0.1446
@<TRIPOS>BOND
     1     3     1    1
     2     2     1    1
     3     1     8    1
     4     8     7    1
     5    10     7    1
     6     7     9    1
     7     9     4    1
     8     5     4    1
     9     4     6    1
