@<TRIPOS>MOLECULE
1p8z_ATP_A_1.pdb
 31 33 0 0 0
SMALL
GASTEIGER

@<TRIPOS>ATOM
      1  PG        15.7240   35.8420    1.7610 P.3   380  ATP380      0.5373
      2  O1G       14.8360   36.5150    0.7510 O.2   380  ATP380     -0.2221
      3  O2G       16.0330   34.4120    1.4770 O.3   380  ATP380     -0.1143
      4  O3G       16.9090   36.6460    1.9180 O.3   380  ATP380     -0.1143
      5  PB        14.7060   36.7910    4.3630 P.3   380  ATP380      0.2277
      6  O1B       13.6250   36.4530    5.2160 O.3   380  ATP380     -0.4368
      7  O2B       15.1890   38.1170    4.3460 O.2   380  ATP380     -0.5168
      8  O3B       14.9910   35.7640    3.2060 O.3   380  ATP380     -0.2258
      9  PA        16.4360   36.9710    6.6750 P.3   380  ATP380      0.2189
     10  O1A       17.8520   37.1990    6.5390 O.2   380  ATP380     -0.5170
     11  O2A       15.6770   37.6120    7.7210 O.3   380  ATP380     -0.4371
     12  O3A       15.6480   36.1640    5.5650 O.3   380  ATP380     -0.2700
     13  O5'       16.8100   35.6910    7.3700 O.3   380  ATP380     -0.3112
     14  C5'       16.5330   34.5470    7.9730 C.3   380  ATP380      0.1813
     15  C4'       17.0530   33.2050    8.3800 C.3   380  ATP380      0.1821
     16  O4'       18.1760   33.2880    9.2850 O.3   380  ATP380     -0.3135
     17  C3'       15.8730   32.5130    8.9930 C.3   380  ATP380      0.2184
     18  O3'       15.5440   31.3260    8.2520 O.3   380  ATP380     -0.2174
     19  C2'       16.3250   32.2860   10.4560 C.3   380  ATP380      0.2570
     20  O2'       16.0590   30.9810   10.9230 O.3   380  ATP380     -0.2130
     21  C1'       17.8160   32.5930   10.4910 C.3   380  ATP380      0.3186
     22  N9        18.3410   33.2160   11.6710 N.pl3 380  ATP380     -0.1439
     23  C8        17.9790   34.3520   12.3730 C.3   380  ATP380      0.3377
     24  N7        18.7070   34.5690   13.4270 N.2   380  ATP380     -0.2095
     25  C5        19.5930   33.4970   13.3970 C.2   380  ATP380      0.2526
     26  C6        20.6750   33.0770   14.2540 C.2   380  ATP380      0.4393
     27  N6        21.0220   33.7450   15.3400 N.pl3 380  ATP380      0.2180
     28  N1        21.3720   31.9320   13.9230 N.2   380  ATP380      0.0021
     29  C2        21.0490   31.2240   12.8300 C.3   380  ATP380      0.5254
     30  N3        20.0650   31.5090   11.9650 N.2   380  ATP380     -0.0055
     31  C4        19.3700   32.6870   12.3270 C.2   380  ATP380      0.3518
@<TRIPOS>BOND
     1     2     1    2
     2     3     1    1
     3     1     4    1
     4     1     8    1
     5     8     5    1
     6     7     5    2
     7     5     6    1
     8     5    12    1
     9    12     9    1
    10    10     9    2
    11     9    13    1
    12     9    11    1
    13    13    14    1
    14    14    15    1
    15    18    17    1
    16    15    17    1
    17    15    16    1
    18    17    19    1
    19    16    21    1
    20    19    21    1
    21    19    20    1
    22    21    22    1
    23    22    31    1
    24    22    23    1
    25    30    31    2
    26    30    29    1
    27    31    25    1
    28    23    24    1
    29    29    28    1
    30    25    24    2
    31    25    26    1
    32    28    26    2
    33    26    27    1
