@<TRIPOS>MOLECULE
1p91_SAM_A_1.pdb
 27 29 0 0 0
SMALL
GASTEIGER

@<TRIPOS>ATOM
      1  N         24.6500   28.6250   42.8880 N.3   1401  SAM1401    -0.1208
      2  CA        23.5890   28.0780   42.0600 C.3   1401  SAM1401     0.1952
      3  C         24.1110   27.6990   40.6340 C.2   1401  SAM1401     0.3819
      4  O         25.3100   27.7670   40.3570 O.co2 1401  SAM1401    -0.2441
      5  OXT       23.3380   27.2980   39.7570 O.co2 1401  SAM1401    -0.2441
      6  CB        22.4410   29.1400   42.1220 C.3   1401  SAM1401     0.0414
      7  CG        22.1620   30.0010   40.8370 C.3   1401  SAM1401     0.0503
      8  SD        21.1170   31.4610   41.2850 S.3   1401  SAM1401    -0.1761
      9  CE        20.8850   32.4880   39.8150 C.3   1401  SAM1401     0.0590
     10  C5'       19.3930   30.9250   41.7280 C.3   1401  SAM1401     0.0806
     11  C4'       19.1590   29.3900   41.9080 C.3   1401  SAM1401     0.1622
     12  O4'       18.2130   29.1510   42.9780 O.3   1401  SAM1401    -0.3153
     13  C3'       18.5530   28.6810   40.6710 C.3   1401  SAM1401     0.2168
     14  O3'       19.6050   28.2680   39.7680 O.3   1401  SAM1401    -0.2175
     15  C2'       17.7450   27.4890   41.2530 C.3   1401  SAM1401     0.2569
     16  O2'       18.4520   26.2200   41.1880 O.3   1401  SAM1401    -0.2130
     17  C1'       17.3630   27.9640   42.7020 C.3   1401  SAM1401     0.3185
     18  N9        15.9200   28.2910   42.8350 N.pl3 1401  SAM1401    -0.1439
     19  C8        15.0590   29.2770   42.1840 C.3   1401  SAM1401     0.3377
     20  N7        13.9000   29.0390   42.8000 N.2   1401  SAM1401    -0.2095
     21  C5        13.9000   28.0860   43.6990 C.2   1401  SAM1401     0.2526
     22  C6        12.8230   27.5720   44.5820 C.2   1401  SAM1401     0.4393
     23  N6        11.4990   28.1460   44.5410 N.pl3 1401  SAM1401     0.2180
     24  N1        13.1470   26.5880   45.3830 N.2   1401  SAM1401     0.0021
     25  C2        14.5060   26.0200   45.4250 C.3   1401  SAM1401     0.5254
     26  N3        15.4670   26.5310   44.6160 N.2   1401  SAM1401    -0.0055
     27  C4        15.1270   27.5390   43.7940 C.2   1401  SAM1401     0.3518
@<TRIPOS>BOND
     1     5     3   ar
     2    14    13    1
     3     9     8    1
     4     4     3   ar
     5     3     2    1
     6    13    15    1
     7    13    11    1
     8     7     8    1
     9     7     6    1
    10    16    15    1
    11    15    17    1
    12     8    10    1
    13    10    11    1
    14    11    12    1
    15     2     6    1
    16     2     1    1
    17    19    20    1
    18    19    18    1
    19    17    18    1
    20    17    12    1
    21    20    21    2
    22    18    27    1
    23    21    27    1
    24    21    22    1
    25    27    26    2
    26    23    22    1
    27    22    24    2
    28    26    25    1
    29    24    25    1
