@<TRIPOS>MOLECULE
1p93_III_E_1.pdb
 45 44 0 0 0
SMALL
GASTEIGER

@<TRIPOS>ATOM
      1  N         60.6230   -0.8340   -0.4470 N.3   942  ALA942     -0.1231
      2  CA        61.9190   -0.7890    0.3080 C.3   942  ALA942      0.1694
      3  C         61.6790   -0.6200    1.8170 C.2   942  ALA942      0.2592
      4  O         61.7170   -1.5980    2.5610 O.2   942  ALA942     -0.2718
      5  CB        62.7910    0.3430   -0.2220 C.3   942  ALA942      0.0304
      6  N         61.4550    0.6100    2.2780 N.am  943  LEU943     -0.1966
      7  CA        61.1630    0.8210    3.6940 C.3   943  LEU943      0.1728
      8  C         59.8760    0.0310    3.9250 C.2   943  LEU943      0.2616
      9  O         59.6940   -0.6050    4.9600 O.2   943  LEU943     -0.2715
     10  CB        60.9340    2.2970    3.9830 C.3   943  LEU943      0.0334
     11  N         58.9920    0.0740    2.9310 N.am  944  LEU944     -0.1963
     12  CA        57.7310   -0.6410    2.9740 C.3   944  LEU944      0.1728
     13  C         57.9700   -2.0580    3.4840 C.2   944  LEU944      0.2616
     14  O         57.1260   -2.6220    4.1610 O.2   944  LEU944     -0.2715
     15  CB        57.1310   -0.6820    1.5870 C.3   944  LEU944      0.0334
     16  N         59.1270   -2.6300    3.1590 N.am  945  ARG945     -0.1963
     17  CA        59.4650   -3.9780    3.5990 C.3   945  ARG945      0.1728
     18  C         59.9450   -3.9770    5.0420 C.2   945  ARG945      0.2616
     19  O         59.6050   -4.8760    5.8050 O.2   945  ARG945     -0.2715
     20  CB        60.5300   -4.5760    2.7020 C.3   945  ARG945      0.0334
     21  N         60.7410   -2.9750    5.4140 N.am  946  TYR946     -0.1963
     22  CA        61.2500   -2.8740    6.7830 C.3   946  TYR946      0.1728
     23  C         60.0680   -2.6660    7.7010 C.2   946  TYR946      0.2616
     24  O         59.9760   -3.2760    8.7550 O.2   946  TYR946     -0.2715
     25  CB        62.2030   -1.7150    6.9170 C.3   946  TYR946      0.0334
     26  N         59.1570   -1.7920    7.2910 N.am  947  LEU947     -0.1963
     27  CA        57.9670   -1.5300    8.0830 C.3   947  LEU947      0.1728
     28  C         57.1830   -2.8320    8.1170 C.2   947  LEU947      0.2616
     29  O         56.7450   -3.2700    9.1780 O.2   947  LEU947     -0.2715
     30  CB        57.1240   -0.4070    7.4540 C.3   947  LEU947      0.0334
     31  N         57.0270   -3.4640    6.9570 N.am  948  LEU948     -0.1963
     32  CA        56.2900   -4.7240    6.8770 C.3   948  LEU948      0.1728
     33  C         56.9360   -5.8000    7.7540 C.2   948  LEU948      0.2616
     34  O         56.2510   -6.4610    8.5450 O.2   948  LEU948     -0.2715
     35  CB        56.2120   -5.1980    5.4320 C.3   948  LEU948      0.0334
     36  N         58.2510   -5.9750    7.6150 N.am  949  ASP949     -0.1963
     37  CA        58.9750   -6.9660    8.4110 C.3   949  ASP949      0.1728
     38  C         59.9050   -6.3150    9.4420 C.2   949  ASP949      0.2616
     39  O         61.1300   -6.3360    9.2900 O.2   949  ASP949     -0.2715
     40  CB        59.7720   -7.8990    7.5020 C.3   949  ASP949      0.0334
     41  N         59.3050   -5.7280   10.4800 N.am  950  LYS950     -0.1977
     42  CA        60.0320   -5.0890   11.5840 C.3   950  LYS950      0.1597
     43  C         59.2370   -5.2900   12.8820 C.2   950  LYS950      0.2287
     44  O         58.3310   -6.1620   12.9130 O.2   950  LYS950     -0.2864
     45  CB        60.2300   -3.5890   11.3210 C.3   950  LYS950      0.0319
@<TRIPOS>BOND
     1     1     2    1
     2     5     2    1
     3     2     3    1
     4    15    12    1
     5     3     6   am
     6     3     4    2
     7     6     7    1
     8    20    17    1
     9    11    12    1
    10    11     8   am
    11    12    13    1
    12    16    13   am
    13    16    17    1
    14    13    14    2
    15    17    18    1
    16     7     8    1
    17     7    10    1
    18     8     9    2
    19    18    21   am
    20    18    19    2
    21    21    22    1
    22    35    32    1
    23    22    25    1
    24    22    23    1
    25    32    31    1
    26    32    33    1
    27    31    28   am
    28    26    23   am
    29    26    27    1
    30    30    27    1
    31    40    37    1
    32    36    33   am
    33    36    37    1
    34    23    24    2
    35    33    34    2
    36    27    28    1
    37    28    29    2
    38    37    38    1
    39    39    38    2
    40    38    41   am
    41    41    42    1
    42    45    42    1
    43    42    43    1
    44    43    44    2
