@<TRIPOS>MOLECULE
1p93_DEX_A_1.pdb
 28 31 0 0 0
SMALL
GASTEIGER

@<TRIPOS>ATOM
      1  C1        45.3620   11.6490    1.4280 C.2   1999  DEX1999    -0.0171
      2  C2        44.5080   11.6060    2.5580 C.2   1999  DEX1999     0.0378
      3  C3        43.2750   10.7160    2.5210 C.2   1999  DEX1999     0.1948
      4  C4        43.0340    9.8980    1.2260 C.2   1999  DEX1999     0.0339
      5  C5        43.8680    9.9340    0.1110 C.2   1999  DEX1999    -0.0354
      6  C6        43.5710    9.0470   -1.2390 C.3   1999  DEX1999     0.0226
      7  C7        43.6360    9.9620   -2.5010 C.3   1999  DEX1999     0.0071
      8  C8        44.9910   10.8500   -2.6160 C.3   1999  DEX1999     0.0336
      9  C9        45.2330   11.7580   -1.3120 C.3   1999  DEX1999     0.1679
     10  C10       45.1930   10.8430    0.0490 C.3   1999  DEX1999     0.0639
     11  C11       46.5450   12.6900   -1.4270 C.3   1999  DEX1999     0.1823
     12  C12       46.5410   13.5010   -2.7560 C.3   1999  DEX1999     0.0385
     13  C13       46.2500   12.7010   -4.1270 C.3   1999  DEX1999     0.0350
     14  C14       44.9760   11.7950   -3.9210 C.3   1999  DEX1999     0.0055
     15  C15       44.8000   11.1280   -5.3530 C.3   1999  DEX1999     0.0031
     16  C16       44.8440   12.3550   -6.2390 C.3   1999  DEX1999     0.0349
     17  C17       45.7500   13.4130   -5.4670 C.3   1999  DEX1999     0.1795
     18  C18       47.6290   11.8760   -4.4420 C.3   1999  DEX1999     0.0030
     19  C19       46.4090    9.8030    0.0310 C.3   1999  DEX1999     0.0112
     20  C20       46.7980   14.1950   -6.3250 C.2   1999  DEX1999     0.2109
     21  C21       47.6820   15.2200   -5.6550 C.3   1999  DEX1999     0.2484
     22  C22       43.3910   12.8960   -6.5150 C.3   1999  DEX1999     0.0030
     23  F1        44.1630   12.5830   -1.1720 F     1999  DEX1999    -0.2368
     24  O1        42.4370   10.6010    3.4880 O.2   1999  DEX1999    -0.2866
     25  O2        47.7590   12.0980   -1.3080 O.3   1999  DEX1999    -0.2203
     26  O3        45.0280   14.5770   -5.2180 O.3   1999  DEX1999    -0.2181
     27  O4        46.8780   13.9440   -7.5680 O.2   1999  DEX1999    -0.2907
     28  O5        48.5160   15.7820   -6.5820 O.3   1999  DEX1999    -0.2118
@<TRIPOS>BOND
     1    27    20    2
     2    28    21    1
     3    22    16    1
     4    20    21    1
     5    20    17    1
     6    16    17    1
     7    16    15    1
     8    17    26    1
     9    17    13    1
    10    15    14    1
    11    18    13    1
    12    13    14    1
    13    13    12    1
    14    14     8    1
    15    12    11    1
    16     8     7    1
    17     8     9    1
    18     7     6    1
    19    11     9    1
    20    11    25    1
    21     9    23    1
    22     9    10    1
    23     6     5    1
    24    19    10    1
    25    10     5    1
    26    10     1    1
    27     5     4    2
    28     4     3    1
    29     1     2    2
    30     3     2    1
    31     3    24    2
