@<TRIPOS>MOLECULE
1p9b_IMO_A_1.pdb
 27 29 0 0 0
SMALL
GASTEIGER

@<TRIPOS>ATOM
      1  P         30.3700   81.3550   28.8180 P.3   1601  IMO1601     0.5898
      2  O1        29.5860   81.8710   29.9960 O.3   1601  IMO1601    -0.1039
      3  C2        27.8470   83.6560   26.1160 C.3   1601  IMO1601     0.3944
      4  C1'       29.8800   86.8580   23.8370 C.3   1601  IMO1601     0.3186
      5  C2'       29.5280   88.2930   24.2060 C.3   1601  IMO1601     0.2570
      6  C3'       29.7500   88.9570   22.8390 C.3   1601  IMO1601     0.2184
      7  C4'       31.0050   88.2540   22.3330 C.3   1601  IMO1601     0.1823
      8  C5'       32.3010   88.9940   22.6240 C.3   1601  IMO1601     0.1860
      9  O2        31.7010   80.8030   29.2930 O.3   1601  IMO1601    -0.1039
     10  O3        29.5730   80.3450   27.9900 O.2   1601  IMO1601    -0.2114
     11  PA        33.6190   89.5110   24.9160 P.3   1601  IMO1601     0.5327
     12  O1A       33.2400   90.1210   26.2420 O.3   1601  IMO1601    -0.1145
     13  O2A       34.6440   90.3220   24.1310 O.2   1601  IMO1601    -0.2224
     14  O3A       34.0790   88.0810   25.1120 O.3   1601  IMO1601    -0.1145
     15  O5'       32.2910   89.5050   23.9850 O.3   1601  IMO1601    -0.2675
     16  O4'       31.0100   86.9610   22.9770 O.3   1601  IMO1601    -0.3135
     17  N9        30.3130   85.9690   24.9180 N.pl3 1601  IMO1601    -0.1440
     18  C4        29.5650   85.0040   25.5420 C.2   1601  IMO1601     0.3462
     19  N3        28.2460   84.6680   25.3110 N.2   1601  IMO1601    -0.0347
     20  N1        28.5810   82.9860   27.0490 N.2   1601  IMO1601    -0.1827
     21  C6        29.9000   83.3420   27.2350 C.2   1601  IMO1601     0.2580
     22  O6        30.7140   82.6460   27.8650 O.2   1601  IMO1601    -0.3807
     23  C5        30.4350   84.4130   26.4700 C.2   1601  IMO1601     0.2152
     24  N7        31.6870   85.0080   26.4340 N.2   1601  IMO1601    -0.2121
     25  C8        31.5690   85.9190   25.5060 C.3   1601  IMO1601     0.3376
     26  O2'       28.1780   88.3840   24.6110 O.3   1601  IMO1601    -0.2130
     27  O3'       28.6940   88.6970   21.9060 O.3   1601  IMO1601    -0.2174
@<TRIPOS>BOND
     1    27     6    1
     2     7     8    1
     3     7     6    1
     4     7    16    1
     5     8    15    1
     6     6     5    1
     7    16     4    1
     8     4     5    1
     9     4    17    1
    10    15    11    1
    11    13    11    2
    12     5    26    1
    13    11    14    1
    14    11    12    1
    15    17    25    1
    16    17    18    1
    17    19    18    2
    18    19     3    1
    19    25    24    1
    20    18    23    1
    21     3    20    1
    22    24    23    2
    23    23    21    1
    24    20    21    2
    25    21    22    1
    26    22     1    1
    27    10     1    2
    28     1     9    1
    29     1     2    1
