@<TRIPOS>MOLECULE
1p9b_GDP_A_1.pdb
 28 30 0 0 0
SMALL
GASTEIGER

@<TRIPOS>ATOM
      1  PB        27.5990   77.9200   30.9940 P.3   1603  GDP1603     0.5373
      2  O1B       27.9590   77.4150   32.3760 O.3   1603  GDP1603    -0.1143
      3  O2B       28.3680   79.1320   30.5450 O.3   1603  GDP1603    -0.1143
      4  O3B       27.7270   76.8220   29.9470 O.2   1603  GDP1603    -0.2221
      5  O3A       26.0120   78.2960   31.0080 O.3   1603  GDP1603    -0.2261
      6  PA        25.2010   79.2910   32.0210 P.3   1603  GDP1603     0.2231
      7  O1A       25.3970   78.7520   33.3920 O.3   1603  GDP1603    -0.4370
      8  O2A       25.7230   80.6530   31.7400 O.2   1603  GDP1603    -0.5169
      9  O5'       23.6530   79.3330   31.6610 O.3   1603  GDP1603    -0.3111
     10  C5'       22.8750   78.1600   31.5310 C.3   1603  GDP1603     0.1813
     11  C4'       21.7140   78.2080   32.5020 C.3   1603  GDP1603     0.1799
     12  O4'       20.9180   77.0160   32.3540 O.3   1603  GDP1603    -0.3326
     13  C3'       22.0970   78.2690   33.9800 C.3   1603  GDP1603     0.2158
     14  O3'       21.2620   79.2190   34.6330 O.3   1603  GDP1603    -0.2175
     15  C2'       21.9310   76.8290   34.4580 C.3   1603  GDP1603     0.2310
     16  O2'       21.6840   76.7040   35.8410 O.3   1603  GDP1603    -0.2158
     17  C1'       20.7810   76.3360   33.5880 C.3   1603  GDP1603     0.2293
     18  N9        20.7790   74.9210   33.2010 N.pl3 1603  GDP1603    -0.2354
     19  C8        21.8570   74.0820   32.9790 C.3   1603  GDP1603     0.2246
     20  N7        21.5010   72.8730   32.6300 N.2   1603  GDP1603    -0.2322
     21  C5        20.1130   72.9120   32.6170 C.2   1603  GDP1603     0.2182
     22  C6        19.1390   71.8990   32.3100 C.1   1603  GDP1603     0.2372
     23  O6        19.3350   70.7330   31.9700 O.2   1603  GDP1603    -0.2069
     24  N1        17.8070   72.3730   32.4260 N.2   1603  GDP1603    -0.2485
     25  C2        17.4520   73.6640   32.7960 C.1   1603  GDP1603     0.2531
     26  N2        16.1410   73.9370   32.8580 N.pl3 1603  GDP1603    -0.0226
     27  N3        18.3540   74.6160   33.0820 N.2   1603  GDP1603    -0.3074
     28  C4        19.6520   74.1720   32.9770 C.2   1603  GDP1603     0.2300
@<TRIPOS>BOND
     1     4     1    2
     2     3     1    1
     3     1     5    1
     4     1     2    1
     5     5     6    1
     6    10     9    1
     7    10    11    1
     8     9     6    1
     9     8     6    2
    10    23    22    2
    11     6     7    1
    12    22    24    2
    13    22    21    1
    14    12    11    1
    15    12    17    1
    16    24    25    2
    17    11    13    1
    18    21    20    2
    19    21    28    1
    20    20    19    1
    21    25    26    1
    22    25    27    2
    23    28    27    2
    24    28    18    1
    25    19    18    1
    26    18    17    1
    27    17    15    1
    28    13    15    1
    29    13    14    1
    30    15    16    1
