@<TRIPOS>MOLECULE
1p9l_NAD_A_1.pdb
 44 48 0 0 0
SMALL
GASTEIGER

@<TRIPOS>ATOM
      1  PA       139.5520   16.2090   24.4030 P.3   301  NAD301      0.2189
      2  O1A      140.6090   15.9710   23.4320 O.2   301  NAD301     -0.5170
      3  O2A      138.3800   15.3610   24.3160 O.3   301  NAD301     -0.4371
      4  O5B      140.1450   16.2710   25.8520 O.3   301  NAD301     -0.3112
      5  C5B      141.6390   16.7300   25.9050 C.3   301  NAD301      0.1813
      6  C4B      142.7920   15.7740   25.6160 C.3   301  NAD301      0.1821
      7  O4B      144.0820   16.1940   26.1470 O.3   301  NAD301     -0.3135
      8  C3B      142.6540   14.3060   26.0790 C.3   301  NAD301      0.2184
      9  O3B      143.4650   13.5420   25.1920 O.3   301  NAD301     -0.2174
     10  C2B      143.3740   14.3570   27.4450 C.3   301  NAD301      0.2570
     11  O2B      143.8380   13.0520   27.7650 O.3   301  NAD301     -0.2130
     12  C1B      144.5650   15.1690   27.0560 C.3   301  NAD301      0.3186
     13  N9A      145.3590   15.7330   28.2030 N.pl3 301  NAD301     -0.1439
     14  C8A      144.6640   15.9140   29.3640 C.3   301  NAD301      0.3377
     15  N7A      145.4150   16.3870   30.3940 N.2   301  NAD301     -0.2095
     16  C5A      146.5960   16.4990   29.7910 C.2   301  NAD301      0.2526
     17  C6A      147.7620   16.9470   30.3580 C.2   301  NAD301      0.4393
     18  N6A      147.8280   17.3340   31.6330 N.pl3 301  NAD301      0.2180
     19  N1A      148.9090   17.0110   29.5960 N.2   301  NAD301      0.0021
     20  C2A      148.8010   16.5990   28.2990 C.3   301  NAD301      0.5254
     21  N3A      147.6630   16.1500   27.7080 N.2   301  NAD301     -0.0055
     22  C4A      146.5660   16.1240   28.5120 C.2   301  NAD301      0.3518
     23  O3       139.1010   17.7390   24.2250 O.3   301  NAD301     -0.2703
     24  PN       138.9640   18.5820   22.8680 P.3   301  NAD301      0.2189
     25  O1N      137.5760   18.4140   22.3710 O.3   301  NAD301     -0.4371
     26  O2N      140.1140   18.2180   21.9700 O.2   301  NAD301     -0.5170
     27  O5D      139.0840   20.0170   23.3880 O.3   301  NAD301     -0.3112
     28  C5D      140.4170   20.4990   23.8420 C.3   301  NAD301      0.1813
     29  C4D      140.4090   21.8300   24.5270 C.3   301  NAD301      0.1799
     30  O4D      140.5940   22.8720   23.5560 O.3   301  NAD301     -0.3327
     31  C3D      139.1130   22.2020   25.2650 C.3   301  NAD301      0.2158
     32  O3D      139.3300   23.1110   26.3350 O.3   301  NAD301     -0.2175
     33  C2D      138.2830   22.8240   24.0770 C.3   301  NAD301      0.2309
     34  O2D      137.1790   23.5930   24.5060 O.3   301  NAD301     -0.2158
     35  C1D      139.3860   23.6710   23.4280 C.3   301  NAD301      0.2263
     36  N1N      139.2760   23.9900   21.9870 N.pl3 301  NAD301     -0.2787
     37  C2N      139.7330   25.2500   21.6050 C.3   301  NAD301      0.1244
     38  C3N      139.7190   25.6450   20.2390 C.2   301  NAD301      0.0544
     39  C7N      140.2400   26.8890   19.8200 C.2   301  NAD301      0.2818
     40  O7N      140.1540   27.2170   18.6600 O.2   301  NAD301     -0.2670
     41  N7N      140.8420   27.6280   20.7560 N.am  301  NAD301     -0.0839
     42  C4N      139.2090   24.6940   19.2800 C.2   301  NAD301      0.0033
     43  C5N      138.7330   23.4030   19.6850 C.2   301  NAD301      0.0157
     44  C6N      138.7710   23.0580   21.0510 C.2   301  NAD301      0.0633
@<TRIPOS>BOND
     1    40    39    2
     2    42    43    1
     3    42    38    2
     4    43    44    2
     5    39    38    1
     6    39    41   am
     7    38    37    1
     8    44    36    1
     9    37    36    1
    10    26    24    2
    11    36    35    1
    12    25    24    1
    13    24    27    1
    14    24    23    1
    15    27    28    1
    16    35    30    1
    17    35    33    1
    18     2     1    2
    19    30    29    1
    20    28    29    1
    21    33    34    1
    22    33    31    1
    23    23     1    1
    24     3     1    1
    25     1     4    1
    26    29    31    1
    27     9     8    1
    28    31    32    1
    29     6     5    1
    30     6     8    1
    31     6     7    1
    32     4     5    1
    33     8    10    1
    34     7    12    1
    35    12    10    1
    36    12    13    1
    37    10    11    1
    38    21    20    1
    39    21    22    2
    40    13    22    1
    41    13    14    1
    42    20    19    1
    43    22    16    1
    44    14    15    1
    45    19    17    2
    46    16    17    1
    47    16    15    2
    48    17    18    1
