@<TRIPOS>MOLECULE
1p9l_PDC_A_1.pdb
 12 12 0 0 0
SMALL
GASTEIGER

@<TRIPOS>ATOM
      1  N1       135.2060   25.0750   22.3550 N.2   302  PDC302     -0.3925
      2  C2       135.2810   26.4400   21.9660 C.2   302  PDC302      0.2102
      3  C3       135.4020   26.7840   20.5990 C.2   302  PDC302      0.0347
      4  C4       135.4360   25.7590   19.6260 C.2   302  PDC302     -0.0156
      5  C5       135.3440   24.4000   20.0110 C.3   302  PDC302      0.0920
      6  C6       135.2370   24.0540   21.3780 C.2   302  PDC302      0.1927
      7  C7       135.2160   27.3730   22.9520 C.2   302  PDC302      0.4168
      8  O1       135.0370   26.9790   24.2310 O.co2 302  PDC302     -0.2377
      9  O2       135.3500   28.6920   22.6500 O.co2 302  PDC302     -0.2377
     10  C8       135.1770   22.7360   21.8230 C.2   302  PDC302      0.4130
     11  O3       135.1300   22.4830   23.1580 O.co2 302  PDC302     -0.2380
     12  O4       135.1700   21.6970   20.9320 O.co2 302  PDC302     -0.2380
@<TRIPOS>BOND
     1     4     5    1
     2     4     3    2
     3     5     6    1
     4     3     2    1
     5    12    10   ar
     6     6    10    1
     7     6     1    2
     8    10    11   ar
     9     2     1    2
    10     2     7    1
    11     9     7   ar
    12     7     8   ar
