@<TRIPOS>MOLECULE
1p9p_SAH_A_1.pdb
 26 28 0 0 0
SMALL
GASTEIGER

@<TRIPOS>ATOM
      1  N         36.4710   37.3270   41.2710 N.3   300  SAH300     -0.1245
      2  CA        36.1630   38.6800   41.6370 C.3   300  SAH300      0.1844
      3  CB        35.9130   39.4070   40.3480 C.3   300  SAH300      0.0388
      4  CG        36.2350   40.8260   40.4690 C.3   300  SAH300      0.0594
      5  SD        36.6240   41.8020   39.0370 S.3   300  SAH300     -0.1376
      6  C         34.8950   38.7300   42.4090 C.3   300  SAH300      0.4429
      7  O         34.9380   37.9690   43.3750 O.2   300  SAH300     -0.2654
      8  OXT       34.6590   39.9220   42.8080 O.2   300  SAH300     -0.2654
      9  C5'       36.7600   43.3330   39.6590 C.3   300  SAH300      0.0899
     10  C4'       35.6900   44.1910   40.2780 C.3   300  SAH300      0.1630
     11  O4'       34.9620   44.9950   39.2450 O.3   300  SAH300     -0.3153
     12  C3'       34.6170   43.6340   41.3250 C.3   300  SAH300      0.2168
     13  O3'       35.0480   44.0160   42.5870 O.3   300  SAH300     -0.2175
     14  C2'       33.2780   44.2790   40.7540 C.3   300  SAH300      0.2569
     15  O2'       32.8120   45.3520   41.6690 O.3   300  SAH300     -0.2130
     16  C1'       33.5370   44.8540   39.3470 C.3   300  SAH300      0.3185
     17  N9        32.9220   43.8530   38.3480 N.pl3 300  SAH300     -0.1439
     18  C8        33.5190   43.0150   37.4420 C.3   300  SAH300      0.3377
     19  N7        32.8040   42.3540   36.7050 N.2   300  SAH300     -0.2095
     20  C5        31.5070   42.7550   37.0860 C.2   300  SAH300      0.2526
     21  C6        30.0780   42.4530   36.6420 C.2   300  SAH300      0.4393
     22  N6        29.7390   41.6310   35.7020 N.pl3 300  SAH300      0.2180
     23  N1        29.0600   43.1010   37.3130 N.2   300  SAH300      0.0021
     24  C2        29.2960   43.9730   38.3530 C.3   300  SAH300      0.5254
     25  N3        30.5170   44.2910   38.8060 N.2   300  SAH300     -0.0055
     26  C4        31.5930   43.6740   38.1280 C.2   300  SAH300      0.3518
@<TRIPOS>BOND
     1    22    21    1
     2    21    20    1
     3    21    23    2
     4    19    20    2
     5    19    18    1
     6    20    26    1
     7    23    24    1
     8    18    17    1
     9    26    17    1
    10    26    25    2
    11    17    16    1
    12    24    25    1
    13     5     9    1
    14     5     4    1
    15    11    16    1
    16    11    10    1
    17    16    14    1
    18     9    10    1
    19    10    12    1
    20     3     4    1
    21     3     2    1
    22    14    12    1
    23    14    15    1
    24     1     2    1
    25    12    13    1
    26     2     6    1
    27     6     8    1
    28     6     7    1
