@<TRIPOS>MOLECULE
1p9u_III_G_1.pdb
 46 45 0 0 0
SMALL
GASTEIGER

@<TRIPOS>ATOM
      1  N         51.7800   64.7420   86.0640 N.3   1441  VAL1441    -0.1231
      2  CA        52.2510   63.3660   85.9520 C.3   1441  VAL1441     0.1692
      3  C         53.2920   63.2580   84.8460 C.2   1441  VAL1441     0.2592
      4  O         53.2050   63.9560   83.8320 O.2   1441  VAL1441    -0.2718
      5  CB        51.0880   62.3980   85.6300 C.3   1441  VAL1441     0.0266
      6  CG1       51.5960   60.9580   85.6080 C.3   1441  VAL1441     0.0020
      7  CG2       49.9730   62.5570   86.6610 C.3   1441  VAL1441     0.0020
      8  N         54.2530   62.3560   85.0290 N.am  1442  ASN1442    -0.1960
      9  CA        54.9550   61.7620   83.8960 C.3   1442  ASN1442     0.1819
     10  C         55.8050   60.5630   84.3440 C.2   1442  ASN1442     0.2622
     11  O         55.2880   59.6630   85.0060 O.2   1442  ASN1442    -0.2715
     12  CB        55.8240   62.8320   83.2220 C.3   1442  ASN1442     0.1195
     13  CG        56.2950   62.4240   81.8360 C.2   1442  ASN1442     0.2630
     14  OD1       55.4930   62.0940   80.9650 O.2   1442  ASN1442    -0.2716
     15  ND2       57.6020   62.4580   81.6260 N.am  1442  ASN1442    -0.0877
     16  N         56.9930   60.4250   83.7580 N.am  1443  SER1443    -0.1936
     17  CA        57.3510   59.2230   83.0020 C.3   1443  SER1443     0.2055
     18  C         57.5430   58.0050   83.8940 C.2   1443  SER1443     0.2644
     19  O         58.1990   58.0940   84.9350 O.2   1443  SER1443    -0.2714
     20  CB        58.6320   59.4570   82.1970 C.3   1443  SER1443     0.2130
     21  OG        58.3850   60.2350   81.0420 O.3   1443  SER1443    -0.2179
     22  N         57.2380   56.8410   83.3320 N.am  1444  THR1444    -0.1936
     23  CA        57.6950   55.5720   83.8850 C.3   1444  THR1444     0.2028
     24  C         58.6500   54.8920   82.9090 C.2   1444  THR1444     0.2642
     25  O         58.2290   54.4560   81.8350 O.2   1444  THR1444    -0.2714
     26  CB        56.5160   54.6140   84.1330 C.3   1444  THR1444     0.1808
     27  OG1       55.4750   55.3030   84.8350 O.3   1444  THR1444    -0.2208
     28  CG2       56.9730   53.4150   84.9610 C.3   1444  THR1444     0.0379
     29  N         59.8870   54.6670   83.3510 N.am  1445  LEU1445    -0.1963
     30  CA        60.7960   53.7560   82.6590 C.3   1445  LEU1445     0.1728
     31  C         60.3680   52.3150   82.8600 C.2   1445  LEU1445     0.2616
     32  O         60.5680   51.7430   83.9300 O.2   1445  LEU1445    -0.2715
     33  CB        62.2300   53.9260   83.1610 C.3   1445  LEU1445     0.0311
     34  CG        62.8970   55.2880   82.9780 C.3   1445  LEU1445     0.0022
     35  CD1       64.3410   55.1770   83.4490 C.3   1445  LEU1445     0.0001
     36  CD2       62.8450   55.7210   81.5140 C.3   1445  LEU1445     0.0001
     37  N         59.5060   51.8610   81.9680 N.am  1446  GLN1446    -0.1982
     38  CA        59.3240   50.4390   81.7600 C.3   1446  GLN1446     0.1528
     39  C         60.6130   49.8900   81.1740 C.2   1446  GLN1446     0.1707
     40  O         61.3950   50.6170   80.5730 O.2   1446  GLN1446    -0.2943
     41  CB        58.1580   50.1960   80.7960 C.3   1446  GLN1446     0.0389
     42  CG        56.8570   50.8500   81.2340 C.3   1446  GLN1446     0.0907
     43  CD        55.7500   50.6610   80.2230 C.2   1446  GLN1446     0.2608
     44  OE1       55.8210   51.1710   79.1050 O.2   1446  GLN1446    -0.2717
     45  NE2       54.7200   49.9200   80.6100 N.am  1446  GLN1446    -0.0878
     46  C1        61.0760   48.6190   81.8400 C.3   1447  0QE1447     0.0741
@<TRIPOS>BOND
     1    44    43    2
     2    43    45   am
     3    43    42    1
     4    40    39    2
     5    41    42    1
     6    41    38    1
     7    14    13    2
     8    21    20    1
     9    39    38    1
    10    39    46    1
    11    36    34    1
    12    15    13   am
    13    38    37    1
    14    25    24    2
    15    13    12    1
    16    37    31   am
    17    20    17    1
    18    30    31    1
    19    30    33    1
    20    30    29    1
    21    31    32    2
    22    24    29   am
    23    24    23    1
    24    34    33    1
    25    34    35    1
    26    17    16    1
    27    17    18    1
    28    12     9    1
    29    22    23    1
    30    22    18   am
    31    16    10   am
    32     4     3    2
    33    23    26    1
    34    18    19    2
    35     9    10    1
    36     9     8    1
    37    26    27    1
    38    26    28    1
    39    10    11    2
    40     3     8   am
    41     3     2    1
    42     6     5    1
    43     5     2    1
    44     5     7    1
    45     2     1    1
