@<TRIPOS>MOLECULE
1p9w_ANP_A_1.pdb
 31 33 0 0 0
SMALL
GASTEIGER

@<TRIPOS>ATOM
      1  PG        24.4030  -16.4000 -142.4210 P.3   701  ANP701      0.4884
      2  O1G       24.5190  -15.6050 -141.1890 O.3   701  ANP701     -0.1240
      3  O2G       24.7950  -15.5510 -143.6240 O.2   701  ANP701     -0.2331
      4  O3G       23.0100  -17.0220 -142.5690 O.3   701  ANP701     -0.1240
      5  PB        25.4050  -19.2640 -141.8040 P.3   701  ANP701      0.4669
      6  O1B       24.6550  -19.4660 -140.5540 O.3   701  ANP701     -0.1253
      7  O2B       25.0040  -20.0980 -142.9280 O.2   701  ANP701     -0.2351
      8  N3B       25.5180  -17.6910 -142.2630 N.3   701  ANP701     -0.0163
      9  PA        28.1280  -19.9350 -142.6030 P.3   701  ANP701      0.2220
     10  O1A       28.2610  -21.3310 -143.1220 O.3   701  ANP701     -0.4370
     11  O2A       28.4580  -18.7770 -143.5070 O.2   701  ANP701     -0.5170
     12  O3A       26.8900  -19.6570 -141.6430 O.3   701  ANP701     -0.2360
     13  O5'       29.1660  -20.0140 -141.4310 O.3   701  ANP701     -0.3111
     14  C5'       29.5030  -18.9430 -140.5480 C.3   701  ANP701      0.1813
     15  C4'       31.0010  -19.0300 -140.4040 C.3   701  ANP701      0.1821
     16  O4'       31.3680  -20.1130 -139.5450 O.3   701  ANP701     -0.3135
     17  C3'       31.7460  -19.3990 -141.6610 C.3   701  ANP701      0.2184
     18  O3'       32.8580  -18.5060 -141.6570 O.3   701  ANP701     -0.2174
     19  C2'       32.0990  -20.8900 -141.5080 C.3   701  ANP701      0.2570
     20  O2'       33.4380  -21.1690 -141.7910 O.3   701  ANP701     -0.2130
     21  C1'       32.1430  -21.2030 -140.0620 C.3   701  ANP701      0.3186
     22  N9        31.6530  -22.5400 -139.5450 N.pl3 701  ANP701     -0.1439
     23  C8        30.4650  -23.1400 -139.7670 C.3   701  ANP701      0.3377
     24  N7        30.3370  -24.3040 -139.1570 N.2   701  ANP701     -0.2095
     25  C5        31.5000  -24.4810 -138.4900 C.2   701  ANP701      0.2526
     26  C6        31.9790  -25.5410 -137.6410 C.2   701  ANP701      0.4393
     27  N6        31.2840  -26.6340 -137.3400 N.pl3 701  ANP701      0.2180
     28  N1        33.2360  -25.3940 -137.1180 N.2   701  ANP701      0.0021
     29  C2        33.9590  -24.2830 -137.4160 C.3   701  ANP701      0.5254
     30  N3        33.5780  -23.2680 -138.1900 N.2   701  ANP701     -0.0055
     31  C4        32.3360  -23.3960 -138.7170 C.2   701  ANP701      0.3518
@<TRIPOS>BOND
     1     3     1    2
     2    11     9    2
     3    10     9    1
     4     7     5    2
     5     9    12    1
     6     9    13    1
     7     4     1    1
     8     1     8    1
     9     1     2    1
    10     8     5    1
    11     5    12    1
    12     5     6    1
    13    20    19    1
    14    17    18    1
    15    17    19    1
    16    17    15    1
    17    19    21    1
    18    13    14    1
    19    14    15    1
    20    15    16    1
    21    21    16    1
    22    21    22    1
    23    23    22    1
    24    23    24    1
    25    22    31    1
    26    24    25    2
    27    31    25    1
    28    31    30    2
    29    25    26    1
    30    30    29    1
    31    26    27    1
    32    26    28    2
    33    29    28    1
