@<TRIPOS>MOLECULE
1pa2_HEM_A_1.pdb
 43 50 0 0 0
SMALL
GASTEIGER

@<TRIPOS>ATOM
      1  CHA        0.4660   37.5910   34.1750 C.2   306  HEM306      0.0000
      2  CHB        1.6110   33.8880   31.4600 C.2   306  HEM306      0.0000
      3  CHC        2.2650   31.1070   35.3390 C.2   306  HEM306      0.0000
      4  CHD        1.5880   35.0090   38.1560 C.2   306  HEM306      0.0000
      5  C1A        0.6890   36.7820   33.0970 C.ar  306  HEM306      0.0000
      6  C2A        0.6690   37.2860   31.6950 C.ar  306  HEM306      0.0000
      7  C3A        1.0500   36.2970   30.9440 C.ar  306  HEM306      0.0000
      8  C4A        1.3390   35.1850   31.8060 C.ar  306  HEM306      0.0000
      9  CMA        1.0710   36.0960   29.4060 C.3   306  HEM306      0.0000
     10  CAA        0.2380   38.6130   31.1310 C.3   306  HEM306      0.0000
     11  CBA        1.5130   39.5760   31.0150 C.3   306  HEM306      0.0000
     12  CGA        1.0200   40.9060   30.6490 C.2   306  HEM306      0.0000
     13  O1A        1.6620   41.9580   30.9280 O.co2 306  HEM306      0.0000
     14  O2A        0.3250   40.9270   29.6020 O.co2 306  HEM306      0.0000
     15  C1B        1.7840   32.7710   32.2220 C.2   306  HEM306      0.0000
     16  C2B        1.9590   31.4130   31.7870 C.2   306  HEM306      0.0000
     17  C3B        2.0810   30.6280   32.8880 C.2   306  HEM306      0.0000
     18  C4B        2.0980   31.5190   34.0490 C.2   306  HEM306      0.0000
     19  CMB        1.9820   30.8780   30.3220 C.3   306  HEM306      0.0000
     20  CAB        2.2510   29.0960   32.9140 C.2   306  HEM306      0.0000
     21  CBB        1.5540   28.3060   33.7250 C.2   306  HEM306      0.0000
     22  C1C        2.2730   31.9790   36.3950 C.ar  306  HEM306      0.0000
     23  C2C        2.7750   31.6530   37.7060 C.ar  306  HEM306      0.0000
     24  C3C        2.6000   32.7340   38.5070 C.ar  306  HEM306      0.0000
     25  C4C        2.0450   33.8100   37.6880 C.ar  306  HEM306      0.0000
     26  CMC        3.4030   30.2990   38.1120 C.3   306  HEM306      0.0000
     27  CAC        2.9500   32.9610   40.0010 C.2   306  HEM306      0.0000
     28  CBC        2.7620   31.9960   40.9040 C.2   306  HEM306      0.0000
     29  C1D        1.0280   35.9560   37.3470 C.2   306  HEM306      0.0000
     30  C2D        0.3910   37.1650   37.7610 C.2   306  HEM306      0.0000
     31  C3D        0.2320   37.9380   36.6720 C.2   306  HEM306      0.0000
     32  C4D        0.6430   37.1590   35.4660 C.2   306  HEM306      0.0000
     33  CMD       -0.0050   37.4060   39.2370 C.3   306  HEM306      0.0000
     34  CAD       -0.3220   39.3330   36.6850 C.3   306  HEM306      0.0000
     35  CBD        0.8960   40.3680   36.7440 C.3   306  HEM306      0.0000
     36  CGD        0.4950   41.7670   36.7920 C.2   306  HEM306      0.0000
     37  O1D        1.4090   42.6410   36.9190 O.co2 306  HEM306      0.0000
     38  O2D       -0.7010   42.1840   36.7220 O.co2 306  HEM306      0.0000
     39  NA         1.1370   35.4980   33.1230 N.ar  306  HEM306      0.0000
     40  NB         1.8000   32.7660   33.5910 N.2   306  HEM306      0.0000
     41  NC         1.9180   33.2920   36.4260 N.ar  306  HEM306      0.0000
     42  ND         1.0460   35.9610   35.9730 N.2   306  HEM306      0.0000
     43 FE          1.3360   34.3530   34.7700 Fe    306  HEM306      0.0000
@<TRIPOS>BOND
     1     9     7    1
     2    14    12   ar
     3    19    16    1
     4    12    13   ar
     5    12    11    1
     6     7     6   ar
     7     7     8   ar
     8    11    10    1
     9    10     6    1
    10     2     8    2
    11     2    15    1
    12     6     5   ar
    13    16    15    1
    14    16    17    2
    15     8    39   ar
    16    15    40    2
    17    17    20    1
    18    17    18    1
    19    20    21    2
    20     5    39   ar
    21     5     1    2
    22    39    43    1
    23    40    18    1
    24    40    43    1
    25    18     3    2
    26     1    32    1
    27    43    42    1
    28    43    41    1
    29     3    22    1
    30    32    42    2
    31    32    31    1
    32    42    29    1
    33    22    41   ar
    34    22    23   ar
    35    41    25   ar
    36    31    34    1
    37    31    30    2
    38    34    35    1
    39    38    36   ar
    40    35    36    1
    41    36    37   ar
    42    29    30    1
    43    29     4    2
    44    25     4    1
    45    25    24   ar
    46    23    26    1
    47    23    24   ar
    48    30    33    1
    49    24    27    1
    50    27    28    2
