@<TRIPOS>MOLECULE
1pa9_CSN_A_1.pdb
 15 15 0 0 0
SMALL
GASTEIGER

@<TRIPOS>ATOM
      1  S1         5.8190   -8.5760   73.6040 S.3   737  CSN737      0.0426
      2  O4         4.3710   -8.8450   72.7660 O.3   737  CSN737     -0.3559
      3  O3         5.4890   -8.1310   74.9110 O.3   737  CSN737     -0.2589
      4  O2         6.5190   -7.5680   72.8330 O.2   737  CSN737     -0.3360
      5  O1         6.5660   -9.8050   73.6820 O.2   737  CSN737     -0.3360
      6  O7         2.4450   -8.3330   74.7440 O.3   737  CSN737     -0.2832
      7  O6         2.2260  -14.4920   72.6860 O.2   737  CSN737     -0.1261
      8  O5         3.8230  -13.6900   71.5050 O.2   737  CSN737     -0.1261
      9  C6         3.6980  -11.0680   72.5860 C.ar  737  CSN737      0.0672
     10  N1         2.9630  -13.5210   72.3650 N.pl3 737  CSN737      0.0578
     11  C3         1.6220  -10.6910   74.6550 C.ar  737  CSN737      0.0470
     12  C1         3.5100   -9.7340   73.2490 C.ar  737  CSN737      0.2117
     13  C4         1.7890  -11.9930   74.0240 C.ar  737  CSN737      0.0276
     14  C2         2.4610   -9.5690   74.2840 C.ar  737  CSN737      0.2322
     15  C5         2.8270  -12.2100   72.9780 C.ar  737  CSN737      0.1462
@<TRIPOS>BOND
     1     8    10    2
     2    10     7    2
     3    10    15    1
     4     9    15   ar
     5     9    12   ar
     6     2    12    1
     7     2     1    1
     8     4     1    2
     9    15    13   ar
    10    12    14   ar
    11     1     5    2
    12     1     3    1
    13    13    11   ar
    14    14    11   ar
    15    14     6    1
