@<TRIPOS>MOLECULE
1pad_III_I_1.pdb
 30 30 0 0 0
SMALL
GASTEIGER

@<TRIPOS>ATOM
      1  C          2.3990   31.7390   18.3550 C.2     1  ACE1        0.2423
      2  O          2.1810   30.4980   18.6780 O.2     1  ACE1       -0.2733
      3  CH3        1.7770   32.9150   19.2410 C.3     1  ACE1        0.0964
      4  N          3.0970   32.1610   17.3910 N.am    2  ALA2       -0.1978
      5  CA         3.7240   31.2340   16.4510 C.3     2  ALA2        0.1728
      6  C          4.9690   30.5750   17.1510 C.2     2  ALA2        0.2616
      7  O          5.2350   30.8900   18.2930 O.2     2  ALA2       -0.2715
      8  CB         4.2270   32.1050   15.2310 C.3     2  ALA2        0.0334
      9  N          5.5960   29.6020   16.4610 N.am    3  ALA3       -0.1963
     10  CA         6.7360   28.6430   17.0670 C.3     3  ALA3        0.1728
     11  C          8.1930   29.3590   16.4910 C.2     3  ALA3        0.2616
     12  O          8.2900   29.7870   15.2830 O.2     3  ALA3       -0.2715
     13  CB         6.5610   27.4380   16.5890 C.3     3  ALA3        0.0334
     14  N          9.1490   29.2570   17.2840 N.am    4  PHE4       -0.1960
     15  CA        10.5060   29.7810   17.0630 C.3     4  PHE4        0.1771
     16  C         11.2300   28.7030   16.1740 C.2     4  PHE4        0.2616
     17  O         11.0140   27.5140   16.6470 O.2     4  PHE4       -0.2715
     18  CB        11.1220   30.0430   18.4030 C.3     4  PHE4        0.0574
     19  CG        10.4990   31.2660   19.0880 C.ar    4  PHE4       -0.0200
     20  CD1       10.8160   32.5510   18.5130 C.ar    4  PHE4       -0.0042
     21  CD2        9.4550   31.1490   20.0000 C.ar    4  PHE4       -0.0042
     22  CE1       10.1900   33.6720   19.1000 C.ar    4  PHE4       -0.0003
     23  CE2        8.8290   32.2690   20.5370 C.ar    4  PHE4       -0.0003
     24  CZ         9.1470   33.6060   20.0610 C.ar    4  PHE4       -0.0000
     25  N         11.9240   28.9710   15.0130 N.am    5  ALA5       -0.2031
     26  CA        12.6000   27.9470   14.2740 C.3     5  ALA5        0.1256
     27  C         14.1040   28.0260   14.5090 C.3     5  ALA5        0.1718
     28  O         14.7330   27.0070   14.0200 O.3     5  ALA5       -0.2213
     29  CB        12.3920   28.2260   12.8210 C.3     5  ALA5        0.0261
     30  C1        14.9270   28.9750   15.2350 C.3     6  0QE6        0.0373
@<TRIPOS>BOND
     1    29    26    1
     2    28    27    1
     3    26    27    1
     4    26    25    1
     5    27    30    1
     6    25    16   am
     7     8     5    1
     8    12    11    2
     9    16    17    2
    10    16    15    1
    11     5     6    1
    12     5     4    1
    13     9    10    1
    14     9     6   am
    15    11    10    1
    16    11    14   am
    17    13    10    1
    18    15    14    1
    19    15    18    1
    20     6     7    2
    21     4     1   am
    22     1     2    2
    23     1     3    1
    24    18    19    1
    25    20    19   ar
    26    20    22   ar
    27    19    21   ar
    28    22    24   ar
    29    21    23   ar
    30    24    23   ar
