@<TRIPOS>MOLECULE
1pag_FMP_A_1.pdb
 23 25 0 0 0
SMALL
GASTEIGER

@<TRIPOS>ATOM
      1  P          5.9040   24.0920   28.7650 P.3   263  FMP263      0.5327
      2  O1P        5.3600   22.8360   29.3050 O.3   263  FMP263     -0.1145
      3  O2P        5.0060   25.3030   28.6450 O.2   263  FMP263     -0.2224
      4  O3P        7.1260   24.6280   29.7840 O.3   263  FMP263     -0.1145
      5  O5'        6.5240   23.6930   27.3270 O.3   263  FMP263     -0.2675
      6  C5'        5.6180   23.0670   26.3680 C.3   263  FMP263      0.1858
      7  C4'        5.9320   22.9370   24.8700 C.3   263  FMP263      0.1786
      8  O4'        6.5940   24.1040   24.3900 O.3   263  FMP263     -0.3447
      9  C3'        6.5400   21.6820   24.4500 C.3   263  FMP263      0.2143
     10  O3'        5.8640   21.1470   23.3120 O.3   263  FMP263     -0.2176
     11  C2'        7.7910   22.2670   23.8510 C.3   263  FMP263      0.2173
     12  O2'        8.3300   21.4170   22.8920 O.3   263  FMP263     -0.2173
     13  C1'        7.3750   23.6130   23.3720 C.3   263  FMP263      0.1910
     14  C9         8.6830   24.4660   23.1320 C.2   263  FMP263      0.1291
     15  N8         8.9060   25.6300   23.7910 N.2   263  FMP263     -0.1480
     16  N7        10.0470   26.0340   23.3120 N.2   263  FMP263     -0.1387
     17  C6        11.8520   25.0970   21.6940 C.2   263  FMP263      0.4334
     18  N6        12.7860   25.9930   21.8140 N.pl3 263  FMP263      0.2178
     19  C5        10.6100   25.1850   22.4130 C.2   263  FMP263      0.2111
     20  C4         9.7170   24.1540   22.3530 C.2   263  FMP263      0.1251
     21  N3         9.9740   23.1250   21.4540 N.2   263  FMP263     -0.2155
     22  C2        11.1240   23.1710   20.7950 C.3   263  FMP263      0.3922
     23  N1        12.0830   24.0680   20.8550 N.2   263  FMP263     -0.0278
@<TRIPOS>BOND
     1    22    23    1
     2    22    21    1
     3    23    17    2
     4    21    20    2
     5    17    18    1
     6    17    19    1
     7    20    19    1
     8    20    14    1
     9    19    16    2
    10    12    11    1
    11    14    13    1
    12    14    15    2
    13    10     9    1
    14    16    15    1
    15    13    11    1
    16    13     8    1
    17    11     9    1
    18     8     7    1
    19     9     7    1
    20     7     6    1
    21     6     5    1
    22     5     1    1
    23     3     1    2
    24     1     2    1
    25     1     4    1
