@<TRIPOS>MOLECULE
1pau_III_C_1.pdb
 35 34 0 0 0
SMALL
GASTEIGER

@<TRIPOS>ATOM
      1  C         41.7980   98.3890   26.8380 C.2   501  ACE501      0.2423
      2  O         40.5880   98.4010   26.6070 O.2   501  ACE501     -0.2733
      3  CH3       42.3080   98.5960   28.2510 C.3   501  ACE501      0.0964
      4  N         42.7160   98.1890   25.9010 N.am  502  ASP502     -0.1972
      5  CA        42.3630   97.9900   24.5040 C.3   502  ASP502      0.1839
      6  C         41.8710   96.5740   24.2070 C.2   502  ASP502      0.2622
      7  O         42.4600   95.5900   24.6730 O.2   502  ASP502     -0.2715
      8  CB        43.5540   98.3380   23.6060 C.3   502  ASP502      0.1450
      9  CG        43.9000   99.8220   23.6320 C.2   502  ASP502      0.3671
     10  OD1       43.0170  100.6550   23.9260 O.co2 502  ASP502     -0.2456
     11  OD2       45.0610  100.1610   23.3410 O.co2 502  ASP502     -0.2456
     12  N         40.8040   96.4900   23.4150 N.am  503  GLU503     -0.1963
     13  CA        40.1920   95.2280   23.0130 C.3   503  GLU503      0.1733
     14  C         39.7660   95.3490   21.5530 C.2   503  GLU503      0.2616
     15  O         39.6060   96.4590   21.0530 O.2   503  GLU503     -0.2715
     16  CB        38.9780   94.9250   23.8920 C.3   503  GLU503      0.0429
     17  CG        39.3260   94.6850   25.3530 C.3   503  GLU503      0.1163
     18  CD        38.1240   94.3360   26.2100 C.2   503  GLU503      0.3649
     19  OE1       37.2110   93.6300   25.7320 O.co2 503  GLU503     -0.2457
     20  OE2       38.1000   94.7580   27.3810 O.co2 503  GLU503     -0.2457
     21  N         39.5800   94.2180   20.8750 N.am  504  VAL504     -0.1963
     22  CA        39.1860   94.2150   19.4640 C.3   504  VAL504      0.1727
     23  C         37.7060   93.8930   19.2350 C.2   504  VAL504      0.2613
     24  O         37.0550   93.3210   20.1050 O.2   504  VAL504     -0.2715
     25  CB        40.0460   93.2320   18.6560 C.3   504  VAL504      0.0290
     26  CG1       41.4810   93.7320   18.5650 C.3   504  VAL504      0.0023
     27  CG2       40.0030   91.8520   19.2950 C.3   504  VAL504      0.0023
     28  C         35.6730   93.2430   16.3870 C.3   505  ASJ505      0.2041
     29  N         37.1930   94.2630   18.0610 N.am  505  ASJ505     -0.2025
     30  O         35.3140   91.8900   16.7020 O.3   505  ASJ505     -0.2185
     31  CA        35.7910   94.0450   17.6710 C.3   505  ASJ505      0.1395
     32  CB        35.0860   95.3760   17.4430 C.3   505  ASJ505      0.1383
     33  CG        34.3850   95.8750   18.6600 C.2   505  ASJ505      0.3667
     34  OD1       34.0670   95.0600   19.5500 O.co2 505  ASJ505     -0.2456
     35  OD2       34.1280   97.0890   18.7140 O.co2 505  ASJ505     -0.2456
@<TRIPOS>BOND
     1    28    30    1
     2    28    31    1
     3    32    31    1
     4    32    33    1
     5    31    29    1
     6    29    23   am
     7    26    25    1
     8    25    27    1
     9    25    22    1
    10    33    35   ar
    11    33    34   ar
    12    23    22    1
    13    23    24    2
    14    22    21    1
    15    21    14   am
    16    15    14    2
    17    14    13    1
    18    13    12    1
    19    13    16    1
    20    11     9   ar
    21    12     6   am
    22     8     9    1
    23     8     5    1
    24     9    10   ar
    25    16    17    1
    26     6     5    1
    27     6     7    2
    28     5     4    1
    29    17    18    1
    30    19    18   ar
    31     4     1   am
    32    18    20   ar
    33     2     1    2
    34     1     3    1
