@<TRIPOS>MOLECULE
1pax_DHQ_A_1.pdb
 12 13 0 0 0
SMALL
GASTEIGER

@<TRIPOS>ATOM
      1  C1        43.0130   23.7140   20.8480 C.1   200  DHQ200      0.1497
      2  O         44.2270   23.6770   21.0700 O.2   200  DHQ200     -0.2223
      3  N2        42.4910   24.2970   19.7320 N.2   200  DHQ200     -0.2022
      4  C3        41.0510   24.3170   19.5210 C.3   200  DHQ200      0.1425
      5  C4        40.3950   22.9950   20.0040 C.3   200  DHQ200      0.0539
      6  C4A       40.7870   22.7390   21.4680 C.ar  200  DHQ200     -0.0132
      7  C5        39.9100   22.1450   22.4020 C.ar  200  DHQ200     -0.0250
      8  C6        40.3550   21.9470   23.7140 C.ar  200  DHQ200     -0.0045
      9  C7        41.6460   22.3340   24.1080 C.ar  200  DHQ200      0.0004
     10  C8        42.5210   22.9030   23.1890 C.ar  200  DHQ200      0.0113
     11  C8A       42.0940   23.1090   21.8680 C.ar  200  DHQ200      0.0786
     12  C9        38.4800   21.7130   22.0140 C.3   200  DHQ200      0.0307
@<TRIPOS>BOND
     1     4     3    1
     2     4     5    1
     3     3     1    2
     4     5     6    1
     5     1     2    2
     6     1    11    1
     7     6    11   ar
     8     6     7   ar
     9    11    10   ar
    10    12     7    1
    11     7     8   ar
    12    10     9   ar
    13     8     9   ar
