@<TRIPOS>MOLECULE
1pbb_DOB_A_1.pdb
 11 11 0 0 0
SMALL
GASTEIGER

@<TRIPOS>ATOM
      1  C1'       17.3580   96.7240   46.1940 C.2   396  DOB396      0.3909
      2  O1'       18.2640   97.3860   46.7300 O.co2 396  DOB396     -0.2404
      3  O2'       16.3600   97.3010   45.7070 O.co2 396  DOB396     -0.2404
      4  C1        17.4060   95.2870   46.1870 C.ar  396  DOB396      0.1188
      5  C2        18.5550   94.6060   46.6400 C.ar  396  DOB396      0.2052
      6  C3        18.6700   93.2130   46.5670 C.ar  396  DOB396      0.0842
      7  C4        17.5990   92.5020   46.0410 C.ar  396  DOB396      0.1989
      8  C5        16.4410   93.1060   45.5950 C.ar  396  DOB396      0.0425
      9  C6        16.3650   94.4890   45.6650 C.ar  396  DOB396      0.0131
     10  O2        19.5660   95.1510   47.2500 O.3   396  DOB396     -0.2862
     11  O4        17.6600   91.2140   45.9540 O.3   396  DOB396     -0.2865
@<TRIPOS>BOND
     1     8     9   ar
     2     8     7   ar
     3     9     4   ar
     4     3     1   ar
     5    11     7    1
     6     7     6   ar
     7     4     1    1
     8     4     5   ar
     9     1     2   ar
    10     6     5   ar
    11     5    10    1
