@<TRIPOS>MOLECULE
1pbc_BHA_A_1.pdb
 11 11 0 0 0
SMALL
GASTEIGER

@<TRIPOS>ATOM
      1  C1'       17.2060   96.7690   45.9980 C.2   396  BHA396      0.3909
      2  O1'       18.1600   97.4110   46.4860 O.co2 396  BHA396     -0.2404
      3  O2'       16.1640   97.3510   45.5980 O.co2 396  BHA396     -0.2404
      4  C1        17.3030   95.3450   45.9130 C.ar  396  BHA396      0.1186
      5  C2        18.4600   94.7010   46.4260 C.ar  396  BHA396      0.2034
      6  C3        18.5590   93.3060   46.3770 C.ar  396  BHA396      0.0603
      7  C4        17.5330   92.5300   45.8510 C.ar  396  BHA396      0.0923
      8  C5        16.3840   93.1470   45.3510 C.ar  396  BHA396      0.0185
      9  C6        16.2770   94.5330   45.3830 C.ar  396  BHA396      0.0112
     10  O2        19.4700   95.2730   47.0200 O.3   396  BHA396     -0.2863
     11  N4        17.6970   91.2050   45.8160 N.pl3 396  BHA396     -0.1280
@<TRIPOS>BOND
     1     8     9   ar
     2     8     7   ar
     3     9     4   ar
     4     3     1   ar
     5    11     7    1
     6     7     6   ar
     7     4     1    1
     8     4     5   ar
     9     1     2   ar
    10     6     5   ar
    11     5    10    1
