@<TRIPOS>MOLECULE
1pbd_PAB_A_1.pdb
 10 10 0 0 0
SMALL
GASTEIGER

@<TRIPOS>ATOM
      1  C1'       17.2730   96.9780   45.8640 C.2   396  PAB396      0.3878
      2  O1'       16.2470   97.5450   45.4360 O.co2 396  PAB396     -0.2406
      3  O2'       18.2340   97.6270   46.3230 O.co2 396  PAB396     -0.2406
      4  C1        17.3480   95.5470   45.8730 C.ar  396  PAB396      0.0799
      5  C2        16.2880   94.7650   45.3770 C.ar  396  PAB396      0.0080
      6  C3        16.3730   93.3820   45.3620 C.ar  396  PAB396      0.0183
      7  C4        17.5280   92.7200   45.8230 C.ar  396  PAB396      0.0891
      8  C5        18.5910   93.4850   46.3230 C.ar  396  PAB396      0.0183
      9  C6        18.4950   94.8660   46.3340 C.ar  396  PAB396      0.0080
     10  N4        17.6100   91.3790   45.7680 N.pl3 396  PAB396     -0.1281
@<TRIPOS>BOND
     1     6     5   ar
     2     6     7   ar
     3     5     4   ar
     4     2     1   ar
     5    10     7    1
     6     7     8   ar
     7     1     4    1
     8     1     3   ar
     9     4     9   ar
    10     8     9   ar
