@<TRIPOS>MOLECULE
1pbf_BHA_A_1.pdb
 11 11 0 0 0
SMALL
GASTEIGER

@<TRIPOS>ATOM
      1  C1'       17.1070   97.0080   45.8130 C.2   396  BHA396      0.3909
      2  O1'       18.0170   97.7250   46.2740 O.co2 396  BHA396     -0.2404
      3  O2'       16.0920   97.5130   45.3030 O.co2 396  BHA396     -0.2404
      4  C1        17.1610   95.6010   45.8590 C.ar  396  BHA396      0.1186
      5  C2        18.3730   95.0040   46.2490 C.ar  396  BHA396      0.2034
      6  C3        18.5650   93.6420   46.1640 C.ar  396  BHA396      0.0603
      7  C4        17.5430   92.8130   45.6900 C.ar  396  BHA396      0.0923
      8  C5        16.3020   93.3840   45.3000 C.ar  396  BHA396      0.0185
      9  C6        16.1270   94.7630   45.3830 C.ar  396  BHA396      0.0112
     10  O2        19.3830   95.6130   46.7910 O.3   396  BHA396     -0.2863
     11  N4        17.8080   91.4970   45.5990 N.pl3 396  BHA396     -0.1280
@<TRIPOS>BOND
     1     8     9   ar
     2     8     7   ar
     3     3     1   ar
     4     9     4   ar
     5    11     7    1
     6     7     6   ar
     7     1     4    1
     8     1     2   ar
     9     4     5   ar
    10     6     5   ar
    11     5    10    1
