@<TRIPOS>MOLECULE
1pbo_SES_A_1.pdb
 13 13 0 0 0
SMALL
GASTEIGER

@<TRIPOS>ATOM
      1  C1        14.6070   14.2930   28.9410 C.3   160  SES160      0.0000
      2  C2        14.6500   15.7510   29.0420 C.3   160  SES160      0.0000
      3  C3        16.1090   16.0920   29.0690 C.3   160  SES160      0.0000
      4  C4        16.8200   15.6250   27.8090 C.3   160  SES160      0.0000
      5  C11       18.0530   16.4980   24.0120 C.3   160  SES160      0.0000
      6  C12       18.3770   17.8900   24.4870 C.3   160  SES160      0.0000
      7  C13       17.8400   18.1080   25.9330 C.3   160  SES160      0.0000
      8  N21       19.2200   15.7010   28.4790 N.2   160  SES160      0.0000
      9  C22       20.3990   16.3140   28.3280 C.2   160  SES160      0.0000
     10  N22       21.5020   15.8670   28.8880 N.pl3 160  SES160      0.0000
     11 SE1        20.4350   17.7870   27.2300 Se    160  SES160      0.0000
     12  C24       18.6370   17.3610   27.0080 C.3   160  SES160      0.0000
     13  C25       18.2140   16.2170   27.7410 C.2   160  SES160      0.0000
@<TRIPOS>BOND
     1     5     6    1
     2     6     7    1
     3     7    12    1
     4    12    11    1
     5    12    13    1
     6    11     9    1
     7    13     4    1
     8    13     8    2
     9     4     3    1
    10     9     8    2
    11     9    10    1
    12     1     2    1
    13     2     3    1
