@<TRIPOS>MOLECULE
1pbq_DK1_A_1.pdb
 16 17 0 0 0
SMALL
GASTEIGER

@<TRIPOS>ATOM
      1  O1         6.3810   34.7180  -19.5990 O.co2 1001  DK11001    -0.2380
      2  C2         6.9650   34.9610  -18.5750 C.2   1001  DK11001     0.4131
      3  O2         7.9540   34.2680  -18.0960 O.co2 1001  DK11001    -0.2380
      4  C1         6.5880   36.1440  -17.7170 C.2   1001  DK11001     0.1951
      5  N1         5.5390   36.8930  -18.2050 N.2   1001  DK11001    -0.4026
      6  C10        5.0630   38.0240  -17.5460 C.2   1001  DK11001     0.1213
      7  C9         3.9620   38.7370  -18.1320 C.2   1001  DK11001     0.0397
      8  C8         3.5000   39.8680  -17.4640 C.2   1001  DK11001     0.0604
      9 CL2         2.1810   40.7420  -18.1170 Cl    1001  DK11001    -0.0822
     10  C7         4.0750   40.3260  -16.2660 C.2   1001  DK11001     0.0193
     11  C6         5.1330   39.6350  -15.7070 C.2   1001  DK11001     0.0496
     12 CL1         5.7330   40.3200  -14.2550 Cl    1001  DK11001    -0.0860
     13  C5         5.6880   38.4370  -16.3070 C.3   1001  DK11001     0.1429
     14  C4         6.8160   37.6290  -15.7600 C.2   1001  DK11001     0.1691
     15  O3         7.4080   37.8950  -14.6970 O.2   1001  DK11001    -0.2948
     16  C3         7.2160   36.4730  -16.5420 C.3   1001  DK11001     0.1310
@<TRIPOS>BOND
     1     1     2   ar
     2     2     3   ar
     3     2     4    1
     4     5     4    2
     5     5     6    2
     6     7     6    1
     7     7     8    2
     8     9     8    1
     9     4    16    1
    10     6    13    1
    11     8    10    1
    12    16    14    1
    13    13    14    1
    14    13    11    1
    15    10    11    2
    16    14    15    2
    17    11    12    1
