@<TRIPOS>MOLECULE
1pbx_HEM_A_1.pdb
 43 50 0 0 0
SMALL
GASTEIGER

@<TRIPOS>ATOM
      1 FE         10.2900   -7.5920   15.1820 Fe    144  HEM144      0.0000
      2  CHA       10.7310   -8.7490   18.3790 C.2   144  HEM144      0.0000
      3  CHB       11.9020  -10.4570   13.9670 C.2   144  HEM144      0.0000
      4  CHC        9.7050   -6.6150   11.9940 C.2   144  HEM144      0.0000
      5  CHD        8.8050   -4.7550   16.4260 C.2   144  HEM144      0.0000
      6  NA        11.1000   -9.2720   16.0030 N.ar  144  HEM144      0.0000
      7  C1A       11.2340   -9.5710   17.3550 C.ar  144  HEM144      0.0000
      8  C2A       11.9960  -10.7980   17.5090 C.ar  144  HEM144      0.0000
      9  C3A       12.3490  -11.2270   16.2860 C.ar  144  HEM144      0.0000
     10  C4A       11.7940  -10.3050   15.3410 C.ar  144  HEM144      0.0000
     11  CMA       13.1680  -12.5280   15.9960 C.3   144  HEM144      0.0000
     12  CAA       12.3800  -11.5350   18.7570 C.3   144  HEM144      0.0000
     13  CBA       12.4670  -11.2480   20.1910 C.3   144  HEM144      0.0000
     14  CGA       11.6750  -12.3340   20.9690 C.2   144  HEM144      0.0000
     15  O1A       11.0360  -11.7390   21.9240 O.co2 144  HEM144      0.0000
     16  O2A       11.7750  -13.5010   20.4850 O.co2 144  HEM144      0.0000
     17  NB        10.6090   -8.3740   13.3420 N.2   144  HEM144      0.0000
     18  C1B       11.3240   -9.5650   13.0900 C.2   144  HEM144      0.0000
     19  C2B       11.4800   -9.7520   11.6450 C.2   144  HEM144      0.0000
     20  C3B       10.9010   -8.6660   11.0950 C.2   144  HEM144      0.0000
     21  C4B       10.3440   -7.8080   12.0910 C.2   144  HEM144      0.0000
     22  CMB       12.1940  -10.9460   10.9890 C.3   144  HEM144      0.0000
     23  CAB       10.8490   -8.5380    9.5730 C.3   144  HEM144      0.0000
     24  CBB       10.6110   -7.3190    9.1240 C.3   144  HEM144      0.0000
     25  NC         9.3470   -6.0140   14.3510 N.ar  144  HEM144      0.0000
     26  C1C        9.2820   -5.7350   13.0010 C.ar  144  HEM144      0.0000
     27  C2C        8.8560   -4.3630   12.8630 C.ar  144  HEM144      0.0000
     28  C3C        8.6910   -3.8360   14.0710 C.ar  144  HEM144      0.0000
     29  C4C        8.9680   -4.8790   15.0480 C.ar  144  HEM144      0.0000
     30  CMC        8.7620   -3.6920   11.4750 C.3   144  HEM144      0.0000
     31  CAC        8.2960   -2.4390   14.5570 C.2   144  HEM144      0.0000
     32  CBC        8.0960   -1.3910   13.7440 C.2   144  HEM144      0.0000
     33  ND         9.7910   -6.9360   17.0330 N.2   144  HEM144      0.0000
     34  C1D        9.2240   -5.6890   17.3430 C.2   144  HEM144      0.0000
     35  C2D        9.2640   -5.5000   18.7710 C.2   144  HEM144      0.0000
     36  C3D        9.7940   -6.5980   19.3060 C.2   144  HEM144      0.0000
     37  C4D       10.1680   -7.4930   18.2350 C.2   144  HEM144      0.0000
     38  CMD        8.7460   -4.2170   19.5030 C.3   144  HEM144      0.0000
     39  CAD       10.0360   -6.8960   20.8150 C.3   144  HEM144      0.0000
     40  CBD       11.4230   -6.5230   21.3320 C.3   144  HEM144      0.0000
     41  CGD       11.3960   -6.3270   22.8140 C.2   144  HEM144      0.0000
     42  O1D       10.3990   -6.4730   23.5270 O.co2 144  HEM144      0.0000
     43  O2D       12.4390   -5.9770   23.4450 O.co2 144  HEM144      0.0000
@<TRIPOS>BOND
     1    24    23    1
     2    23    20    1
     3    22    19    1
     4    20    19    2
     5    20    21    1
     6    30    27    1
     7    19    18    1
     8     4    21    2
     9     4    26    1
    10    21    17    1
    11    27    26   ar
    12    27    28   ar
    13    26    25   ar
    14    18    17    2
    15    18     3    1
    16    17     1    1
    17    32    31    2
    18     3    10    2
    19    28    31    1
    20    28    29   ar
    21    25    29   ar
    22    25     1    1
    23    29     5    1
    24     1     6    1
    25     1    33    1
    26    10     6   ar
    27    10     9   ar
    28    11     9    1
    29     6     7   ar
    30     9     8   ar
    31     5    34    2
    32    33    34    1
    33    33    37    2
    34    34    35    1
    35     7     8   ar
    36     7     2    2
    37     8    12    1
    38    37     2    1
    39    37    36    1
    40    12    13    1
    41    35    36    2
    42    35    38    1
    43    36    39    1
    44    13    14    1
    45    16    14   ar
    46    39    40    1
    47    14    15   ar
    48    40    41    1
    49    41    43   ar
    50    41    42   ar
