@<TRIPOS>MOLECULE
1pby_HEM_A_1.pdb
 43 50 0 0 0
SMALL
GASTEIGER

@<TRIPOS>ATOM
      1 FE         37.5260   51.3930   17.3310 Fe    991  HEM991      0.0000
      2  CHA       37.9820   52.0570   20.6010 C.2   991  HEM991      0.0000
      3  CHB       40.7420   50.2990   17.0850 C.2   991  HEM991      0.0000
      4  CHC       37.0650   50.6860   14.0180 C.2   991  HEM991      0.0000
      5  CHD       34.3350   52.5420   17.5140 C.2   991  HEM991      0.0000
      6  NA        39.0880   51.2350   18.6080 N.ar  991  HEM991      0.0000
      7  C1A       39.0790   51.5770   19.9270 C.ar  991  HEM991      0.0000
      8  C2A       40.4070   51.3440   20.4800 C.ar  991  HEM991      0.0000
      9  C3A       41.1740   50.8580   19.5010 C.ar  991  HEM991      0.0000
     10  C4A       40.3590   50.7650   18.3100 C.ar  991  HEM991      0.0000
     11  CMA       42.6520   50.4540   19.5810 C.3   991  HEM991      0.0000
     12  CAA       40.8050   51.6180   21.9300 C.3   991  HEM991      0.0000
     13  CBA       40.2710   50.5320   22.8520 C.3   991  HEM991      0.0000
     14  CGA       40.9280   50.5240   24.1990 C.2   991  HEM991      0.0000
     15  O1A       41.7690   49.5790   24.3710 O.co2 991  HEM991      0.0000
     16  O2A       40.6260   51.4020   25.0110 O.co2 991  HEM991      0.0000
     17  NB        38.6570   50.6220   15.8470 N.2   991  HEM991      0.0000
     18  C1B       39.9800   50.2180   15.9590 C.2   991  HEM991      0.0000
     19  C2B       40.4430   49.6920   14.6870 C.2   991  HEM991      0.0000
     20  C3B       39.4010   49.7940   13.8270 C.2   991  HEM991      0.0000
     21  C4B       38.3040   50.3850   14.5390 C.2   991  HEM991      0.0000
     22  CMB       41.8510   49.1390   14.4170 C.3   991  HEM991      0.0000
     23  CAB       39.3260   49.3840   12.3590 C.3   991  HEM991      0.0000
     24  CBB       39.2340   47.8520   12.1700 C.3   991  HEM991      0.0000
     25  NC        36.0100   51.5970   16.0360 N.ar  991  HEM991      0.0000
     26  C1C       36.0190   51.2600   14.6950 C.ar  991  HEM991      0.0000
     27  C2C       34.7540   51.6360   14.0620 C.ar  991  HEM991      0.0000
     28  C3C       33.9910   52.1740   15.0200 C.ar  991  HEM991      0.0000
     29  C4C       34.7580   52.1340   16.2650 C.ar  991  HEM991      0.0000
     30  CMC       34.4450   51.4360   12.5490 C.3   991  HEM991      0.0000
     31  CAC       32.5840   52.7850   14.8900 C.3   991  HEM991      0.0000
     32  CBC       31.4560   51.8170   14.4830 C.3   991  HEM991      0.0000
     33  ND        36.3800   52.1100   18.7720 N.2   991  HEM991      0.0000
     34  C1D       35.0530   52.5290   18.6860 C.2   991  HEM991      0.0000
     35  C2D       34.5780   52.9440   19.9960 C.2   991  HEM991      0.0000
     36  C3D       35.6110   52.7980   20.8620 C.2   991  HEM991      0.0000
     37  C4D       36.7290   52.3050   20.0930 C.2   991  HEM991      0.0000
     38  CMD       33.1520   53.4530   20.2980 C.3   991  HEM991      0.0000
     39  CAD       35.6190   53.0970   22.3770 C.3   991  HEM991      0.0000
     40  CBD       34.9570   51.9180   23.2040 C.3   991  HEM991      0.0000
     41  CGD       35.7080   50.5770   23.1580 C.2   991  HEM991      0.0000
     42  O1D       35.1340   49.5580   22.7270 O.co2 991  HEM991      0.0000
     43  O2D       36.8800   50.5880   23.5830 O.co2 991  HEM991      0.0000
@<TRIPOS>BOND
     1    24    23    1
     2    23    20    1
     3    30    27    1
     4    20    21    1
     5    20    19    2
     6     4    21    2
     7     4    26    1
     8    27    26   ar
     9    27    28   ar
    10    22    19    1
    11    32    31    1
    12    21    17    1
    13    19    18    1
    14    26    25   ar
    15    31    28    1
    16    28    29   ar
    17    17    18    2
    18    17     1    1
    19    18     3    1
    20    25    29   ar
    21    25     1    1
    22    29     5    1
    23     3    10    2
    24     1     6    1
    25     1    33    1
    26     5    34    2
    27    10     6   ar
    28    10     9   ar
    29     6     7   ar
    30    34    33    1
    31    34    35    1
    32    33    37    2
    33     9    11    1
    34     9     8   ar
    35     7     8   ar
    36     7     2    2
    37    35    38    1
    38    35    36    2
    39    37     2    1
    40    37    36    1
    41     8    12    1
    42    36    39    1
    43    12    13    1
    44    39    40    1
    45    42    41   ar
    46    13    14    1
    47    41    40    1
    48    41    43   ar
    49    14    15   ar
    50    14    16   ar
