@<TRIPOS>MOLECULE
1pcg_EST_A_1.pdb
 20 23 0 0 0
SMALL
GASTEIGER

@<TRIPOS>ATOM
      1  C1        25.5580   41.3760    8.6980 C.ar    1  EST1       -0.0013
      2  C2        26.0660   40.2140    8.0300 C.ar    1  EST1        0.0417
      3  C3        26.3510   39.0400    8.7700 C.ar    1  EST1        0.1954
      4  O3        26.8340   37.9500    8.0940 O.3     1  EST1       -0.2866
      5  C4        26.1550   38.9930   10.2070 C.ar    1  EST1        0.0375
      6  C5        25.6380   40.1580   10.9100 C.ar    1  EST1       -0.0230
      7  C6        25.4530   40.1110   12.4360 C.3     1  EST1        0.0261
      8  C7        24.9750   41.4350   13.1000 C.3     1  EST1        0.0050
      9  C8        24.0380   42.2770   12.1880 C.3     1  EST1        0.0044
     10  C9        24.8020   42.6590   10.8360 C.3     1  EST1        0.0220
     11  C10       25.3410   41.3970   10.1340 C.ar    1  EST1       -0.0263
     12  C11       23.8510   43.5020    9.9350 C.3     1  EST1        0.0044
     13  C12       23.3010   44.7710   10.6360 C.3     1  EST1        0.0028
     14  C13       22.6000   44.4700   11.9830 C.3     1  EST1        0.0282
     15  C14       23.5870   43.6130   12.8780 C.3     1  EST1        0.0028
     16  C15       22.8320   43.5890   14.2120 C.3     1  EST1        0.0027
     17  C16       22.4300   45.0710   14.3880 C.3     1  EST1        0.0329
     18  C17       22.3990   45.6830   12.9240 C.3     1  EST1        0.1519
     19  O17       21.1690   46.4560   12.7320 O.3     1  EST1       -0.2232
     20  C18       21.1980   43.7790   11.7250 C.3     1  EST1        0.0025
@<TRIPOS>BOND
     1     2     1   ar
     2     2     3   ar
     3     4     3    1
     4     1    11   ar
     5     3     5   ar
     6    12    13    1
     7    12    10    1
     8    11    10    1
     9    11     6   ar
    10     5     6   ar
    11    13    14    1
    12    10     9    1
    13     6     7    1
    14    20    14    1
    15    14    15    1
    16    14    18    1
    17     9    15    1
    18     9     8    1
    19     7     8    1
    20    19    18    1
    21    15    16    1
    22    18    17    1
    23    16    17    1
