@<TRIPOS>MOLECULE
1pcj_M1P_X_1.pdb
 16 16 0 0 0
SMALL
GASTEIGER

@<TRIPOS>ATOM
      1  O6       -50.4870  -14.5570   12.9980 O.3   600  M1P600     -0.2176
      2  C6       -49.4010  -13.6420   13.0110 C.3   600  M1P600      0.2142
      3  C5       -48.4110  -14.0610   14.0920 C.3   600  M1P600      0.1835
      4  O5       -48.9900  -13.7750   15.4230 O.3   600  M1P600     -0.3253
      5  C1       -48.0710  -14.1140   16.5130 C.3   600  M1P600      0.2781
      6  O1       -46.8890  -13.3500   16.3930 O.3   600  M1P600     -0.2416
      7  P        -46.2580  -12.7270   17.7340 P.3   600  M1P600      0.5346
      8  O1P      -45.8710  -13.8240   18.6920 O.3   600  M1P600     -0.1145
      9  O2P      -47.2590  -11.8080   18.3920 O.3   600  M1P600     -0.1145
     10  O3P      -45.0330  -11.9780   17.3030 O.2   600  M1P600     -0.2223
     11  C2       -47.6740  -15.5810   16.4520 C.3   600  M1P600      0.2410
     12  O2       -48.8660  -16.3740   16.7200 O.3   600  M1P600     -0.2149
     13  C3       -47.1020  -15.9520   15.0530 C.3   600  M1P600      0.2198
     14  O3       -46.9000  -17.3560   14.9800 O.3   600  M1P600     -0.2174
     15  C4       -48.0640  -15.5340   13.9380 C.3   600  M1P600      0.2144
     16  O4       -47.4490  -15.7320   12.6570 O.3   600  M1P600     -0.2176
@<TRIPOS>BOND
     1    16    15    1
     2     1     2    1
     3     2     3    1
     4    15     3    1
     5    15    13    1
     6     3     4    1
     7    14    13    1
     8    13    11    1
     9     4     5    1
    10     6     5    1
    11     6     7    1
    12    11     5    1
    13    11    12    1
    14    10     7    2
    15     7     9    1
    16     7     8    1
