@<TRIPOS>MOLECULE
1pck_PEZ_A_1.pdb
 11 10 0 0 0
SMALL
GASTEIGER

@<TRIPOS>ATOM
      1  O1        33.0780   52.2730   23.3250 O.co2 1268  PEZ1268    -0.2371
      2  C1        32.2950   51.7290   22.4530 C.2   1268  PEZ1268     0.4212
      3  O2'       31.1100   51.8470   22.5090 O.co2 1268  PEZ1268    -0.2371
      4  C2        33.0580   50.9240   21.3680 C.2   1268  PEZ1268     0.2240
      5  O2        32.0810   50.3920   20.4900 O.2   1268  PEZ1268    -0.3933
      6  P         32.1890   49.4440   19.2150 P.3   1268  PEZ1268     0.5888
      7  O1P       32.6730   48.1570   19.6950 O.3   1268  PEZ1268    -0.1039
      8  O2P       32.8750   50.2400   18.1430 O.2   1268  PEZ1268    -0.2114
      9  O3P       30.6960   49.2880   18.7870 O.3   1268  PEZ1268    -0.1039
     10  C3        34.3900   50.7000   21.2550 C.2   1268  PEZ1268     0.0185
     11  C4        35.4060   50.0400   20.4390 C.3   1268  PEZ1268     0.0342
@<TRIPOS>BOND
     1     8     6    2
     2     9     6    1
     3     6     7    1
     4     6     5    1
     5    11    10    1
     6     5     4    1
     7    10     4    2
     8     4     2    1
     9     2     3   ar
    10     2     1   ar
