@<TRIPOS>MOLECULE
1pcm_M6P_X_1.pdb
 16 16 0 0 0
SMALL
GASTEIGER

@<TRIPOS>ATOM
      1  C1       -50.0030  -13.8350   14.1900 C.3   600  M6P600      0.3024
      2  C2       -49.2410  -14.2680   12.9500 C.3   600  M6P600      0.2434
      3  C3       -48.4170  -15.5590   13.2310 C.3   600  M6P600      0.2199
      4  C4       -47.6520  -15.5310   14.5630 C.3   600  M6P600      0.2143
      5  C5       -48.5380  -14.9940   15.7000 C.3   600  M6P600      0.1808
      6  C6       -47.6840  -14.8150   16.9520 C.3   600  M6P600      0.1859
      7  O1       -51.0290  -14.7930   14.4550 O.3   600  M6P600     -0.1869
      8  O2       -48.3360  -13.2090   12.5320 O.3   600  M6P600     -0.2148
      9  O3       -47.4770  -15.7180   12.1840 O.3   600  M6P600     -0.2174
     10  O4       -47.2190  -16.8440   14.8700 O.3   600  M6P600     -0.2176
     11  O5       -49.0940  -13.7300   15.3330 O.3   600  M6P600     -0.3237
     12  O6       -46.9080  -13.5700   16.7990 O.3   600  M6P600     -0.2675
     13  P        -46.1190  -12.9590   18.0670 P.3   600  M6P600      0.5327
     14  O1P      -45.6850  -14.1250   18.8940 O.3   600  M6P600     -0.1145
     15  O2P      -47.0390  -12.0700   18.8460 O.3   600  M6P600     -0.1145
     16  O3P      -44.9750  -12.1390   17.5490 O.2   600  M6P600     -0.2224
@<TRIPOS>BOND
     1     9     3    1
     2     8     2    1
     3     2     3    1
     4     2     1    1
     5     3     4    1
     6     1     7    1
     7     1    11    1
     8     4    10    1
     9     4     5    1
    10    11     5    1
    11     5     6    1
    12    12     6    1
    13    12    13    1
    14    16    13    2
    15    13    15    1
    16    13    14    1
