@<TRIPOS>MOLECULE
1pcq_ADP_A_1.pdb
 27 29 0 0 0
SMALL
GASTEIGER

@<TRIPOS>ATOM
      1  PB        32.2880  -44.1400  -18.3280 P.3   600  ADP600      0.5373
      2  O1B       31.5320  -43.4930  -19.4190 O.2   600  ADP600     -0.2221
      3  O2B       31.6980  -45.4260  -17.7000 O.3   600  ADP600     -0.1143
      4  O3B       33.6450  -44.5630  -18.9010 O.3   600  ADP600     -0.1143
      5  PA        31.7830  -41.6960  -17.0300 P.3   600  ADP600      0.2231
      6  O1A       32.2290  -40.9760  -15.7940 O.3   600  ADP600     -0.4370
      7  O2A       32.0940  -41.0620  -18.3910 O.2   600  ADP600     -0.5169
      8  O3A       32.4430  -43.1670  -17.0440 O.3   600  ADP600     -0.2261
      9  O5'       30.2120  -41.9670  -16.9750 O.3   600  ADP600     -0.3111
     10  C5'       29.6400  -41.9900  -15.6870 C.3   600  ADP600      0.1813
     11  C4'       28.1390  -42.3210  -15.6350 C.3   600  ADP600      0.1821
     12  O4'       27.5340  -41.4970  -14.6570 O.3   600  ADP600     -0.3135
     13  C3'       27.3610  -42.1110  -16.9430 C.3   600  ADP600      0.2184
     14  O3'       27.1730  -43.4030  -17.4630 O.3   600  ADP600     -0.2174
     15  C2'       26.0130  -41.5160  -16.5690 C.3   600  ADP600      0.2570
     16  O2'       24.9570  -42.4530  -16.4940 O.3   600  ADP600     -0.2130
     17  C1'       26.2460  -41.1040  -15.1320 C.3   600  ADP600      0.3186
     18  N9        25.9210  -39.6880  -15.0650 N.pl3 600  ADP600     -0.1439
     19  C8        26.2180  -38.6750  -15.9370 C.3   600  ADP600      0.3377
     20  N7        25.6170  -37.5610  -15.4580 N.2   600  ADP600     -0.2095
     21  C5        24.9160  -37.8760  -14.3260 C.2   600  ADP600      0.2526
     22  C6        24.1340  -37.1580  -13.4090 C.2   600  ADP600      0.4393
     23  N6        23.7380  -35.9050  -13.6290 N.pl3 600  ADP600      0.2180
     24  N1        23.5740  -37.7880  -12.3220 N.2   600  ADP600      0.0021
     25  C2        23.7830  -39.1390  -12.1330 C.3   600  ADP600      0.5254
     26  N3        24.5460  -39.8530  -13.0310 N.2   600  ADP600     -0.0055
     27  C4        25.0970  -39.2230  -14.0870 C.2   600  ADP600      0.3518
@<TRIPOS>BOND
     1     2     1    2
     2     4     1    1
     3     7     5    2
     4     1     3    1
     5     1     8    1
     6    14    13    1
     7     8     5    1
     8     5     9    1
     9     5     6    1
    10     9    10    1
    11    13    15    1
    12    13    11    1
    13    15    16    1
    14    15    17    1
    15    19    20    1
    16    19    18    1
    17    10    11    1
    18    11    12    1
    19    20    21    2
    20    17    18    1
    21    17    12    1
    22    18    27    1
    23    21    27    1
    24    21    22    1
    25    27    26    2
    26    23    22    1
    27    22    24    2
    28    26    25    1
    29    24    25    1
