@<TRIPOS>MOLECULE
1pcr_SPO_M_1.pdb
 42 41 0 0 0
SMALL
GASTEIGER

@<TRIPOS>ATOM
      1  CM1       42.2520   84.7300   55.3310 C.3   600  SPO600      0.1739
      2  O1        43.5770   85.3480   55.7600 O.3   600  SPO600     -0.3559
      3  C1        44.4820   85.8730   54.6370 C.3   600  SPO600      0.0933
      4  C2        45.9180   85.9570   55.1520 C.3   600  SPO600      0.0296
      5  C3        44.4080   84.9150   53.4530 C.3   600  SPO600      0.0296
      6  C4        44.0500   87.2670   54.2330 C.3   600  SPO600      0.0319
      7  C5        42.8260   87.2890   53.4630 C.3   600  SPO600      0.0281
      8  C6        42.7110   88.2120   52.2750 C.2   600  SPO600     -0.0303
      9  C7        41.4920   88.7870   51.9560 C.2   600  SPO600     -0.0261
     10  C8        40.2780   88.6760   52.8950 C.3   600  SPO600      0.0307
     11  C9        41.4920   89.6050   50.8340 C.2   600  SPO600     -0.0046
     12  C10       40.1980   90.2620   50.3100 C.2   600  SPO600     -0.0010
     13  C11       40.2440   90.9550   48.9510 C.2   600  SPO600     -0.0082
     14  C12       39.0720   91.3730   48.3460 C.2   600  SPO600     -0.0395
     15  C13       37.6870   91.0320   49.0050 C.3   600  SPO600      0.0267
     16  C14       39.2240   92.0260   47.1030 C.3   600  SPO600      0.0480
     17  C15       37.9830   92.5860   46.3170 C.2   600  SPO600     -0.0221
     18  C16       38.0430   93.4660   44.9990 C.2   600  SPO600     -0.0088
     19  C17       36.7930   93.8470   44.4770 C.2   600  SPO600     -0.0264
     20  C18       35.5180   93.6630   45.3040 C.3   600  SPO600      0.0307
     21  C19       36.6980   94.6020   43.3160 C.2   600  SPO600     -0.0304
     22  C20       37.8430   95.0290   42.6180 C.3   600  SPO600      0.0257
     23  C21       37.7640   96.1880   41.6500 C.3   600  SPO600      0.0050
     24  C22       39.0530   96.8470   41.3890 C.3   600  SPO600      0.0047
     25  C23       39.5050   97.1790   40.1290 C.3   600  SPO600      0.0220
     26  C24       38.5130   97.6790   39.0630 C.3   600  SPO600      0.0047
     27  C25       40.8220   97.6370   40.1630 C.2   600  SPO600     -0.0265
     28  C26       41.5950   97.9360   38.9390 C.2   600  SPO600     -0.0052
     29  C27       43.0750   98.0590   39.0460 C.2   600  SPO600     -0.0088
     30  C28       43.7920   98.4800   37.9410 C.2   600  SPO600     -0.0439
     31  C29       43.2120   98.5200   36.5100 C.3   600  SPO600      0.0264
     32  C30       45.3100   98.7110   37.9870 C.3   600  SPO600      0.0220
     33  C31       45.6500  100.0110   38.6840 C.3   600  SPO600      0.0043
     34  C32       46.9100  100.4970   38.3120 C.3   600  SPO600      0.0003
     35  C33       47.9680  100.9670   39.0840 C.3   600  SPO600      0.0000
     36  C34       47.8010  101.4380   40.5270 C.3   600  SPO600      0.0000
     37  C35       49.3010  101.4680   38.4410 C.3   600  SPO600      0.0000
     38  C36       50.5660  100.7080   38.8770 C.3   600  SPO600      0.0000
     39  C37       51.7040  100.8940   37.9060 C.3   600  SPO600      0.0000
     40  C38       51.8350  100.5340   36.5600 C.3   600  SPO600      0.0000
     41  C39       52.4180   99.1960   36.0480 C.3   600  SPO600      0.0000
     42  C40       51.2970  101.3860   35.3990 C.3   600  SPO600      0.0000
@<TRIPOS>BOND
     1    42    40    1
     2    41    40    1
     3    31    30    1
     4    40    39    1
     5    39    38    1
     6    30    32    1
     7    30    29    2
     8    32    33    1
     9    34    33    1
    10    34    35    1
    11    37    38    1
    12    37    35    1
    13    28    29    1
    14    28    27    2
    15    26    25    1
    16    35    36    1
    17    25    27    1
    18    25    24    1
    19    24    23    1
    20    23    22    1
    21    22    21    1
    22    21    19    2
    23    19    18    1
    24    19    20    1
    25    18    17    2
    26    17    16    1
    27    16    14    1
    28    14    13    2
    29    14    15    1
    30    13    12    1
    31    12    11    2
    32    11     9    1
    33     9     8    2
    34     9    10    1
    35     8     7    1
    36     5     3    1
    37     7     6    1
    38     6     3    1
    39     3     4    1
    40     3     2    1
    41     1     2    1
