@<TRIPOS>MOLECULE
1pcr_U10_L_1.pdb
 48 48 0 0 0
SMALL
GASTEIGER

@<TRIPOS>ATOM
      1  C1        36.0470   75.5540   32.9980 C.2   502  U10502      0.0198
      2  C2        36.4570   74.3730   32.2570 C.2   502  U10502      0.2282
      3  C3        36.1410   74.2490   30.8580 C.2   502  U10502      0.2140
      4  C4        35.3940   75.1910   30.2550 C.2   502  U10502      0.2140
      5  C5        34.9160   76.3330   31.0100 C.2   502  U10502      0.2285
      6  C6        35.3140   76.5230   32.3940 C.2   502  U10502      0.0235
      7  C1M       36.5290   75.6690   34.4440 C.3   502  U10502      0.0343
      8  C3M       36.7890   72.9030   28.7920 C.3   502  U10502      0.2528
      9  C4M       35.8530   76.2890   28.0450 C.3   502  U10502      0.2528
     10  C7        34.9880   77.8720   33.1350 C.3   502  U10502      0.0548
     11  C8        33.8740   77.8050   34.0880 C.2   502  U10502     -0.0298
     12  C9        33.7660   78.2300   35.4150 C.2   502  U10502     -0.0475
     13  C10       34.8990   78.9120   36.2440 C.3   502  U10502      0.0260
     14  C11       32.4580   78.0610   36.1990 C.3   502  U10502      0.0264
     15  C12       32.6400   77.6000   37.6390 C.3   502  U10502      0.0297
     16  C13       31.4350   77.8670   38.3930 C.2   502  U10502     -0.0342
     17  C14       31.2540   78.4170   39.6640 C.2   502  U10502     -0.0478
     18  C15       32.4220   78.8420   40.6080 C.3   502  U10502      0.0260
     19  C16       29.8470   78.6710   40.2770 C.3   502  U10502      0.0263
     20  C17       29.2460   80.0350   39.8890 C.3   502  U10502      0.0297
     21  C18       28.3370   80.4390   40.8720 C.2   502  U10502     -0.0342
     22  C19       28.5450   81.1090   42.0640 C.2   502  U10502     -0.0478
     23  C20       29.9180   81.6760   42.5000 C.3   502  U10502      0.0260
     24  C21       27.3850   81.3930   43.0770 C.3   502  U10502      0.0263
     25  C22       27.4440   80.5310   44.3700 C.3   502  U10502      0.0297
     26  C23       26.1180   80.4670   45.1370 C.2   502  U10502     -0.0342
     27  C24       25.6410   79.5260   46.0590 C.2   502  U10502     -0.0478
     28  C25       26.4330   78.2660   46.5040 C.3   502  U10502      0.0260
     29  C26       24.2580   79.6330   46.7380 C.3   502  U10502      0.0263
     30  C27       23.6640   78.2660   47.1210 C.3   502  U10502      0.0297
     31  C28       22.2410   78.3620   47.6820 C.2   502  U10502     -0.0342
     32  C29       21.7380   78.9170   48.8720 C.2   502  U10502     -0.0478
     33  C30       22.6190   79.6330   49.9250 C.3   502  U10502      0.0260
     34  C31       20.2200   78.9080   49.2720 C.3   502  U10502      0.0263
     35  C32       19.5050   80.2250   48.9010 C.3   502  U10502      0.0297
     36  C33       18.5610   80.7550   49.9620 C.2   502  U10502     -0.0342
     37  C34       18.4670   82.0240   50.5620 C.2   502  U10502     -0.0478
     38  C35       19.4580   83.1920   50.2780 C.3   502  U10502      0.0260
     39  C36       17.3600   82.3680   51.6290 C.3   502  U10502      0.0263
     40  C37       17.2250   83.8660   51.9580 C.3   502  U10502      0.0297
     41  C38       16.4080   84.1280   53.2130 C.2   502  U10502     -0.0342
     42  C39       15.9620   85.3360   53.7710 C.2   502  U10502     -0.0478
     43  C40       16.2080   86.7240   53.1500 C.3   502  U10502      0.0260
     44  C41       15.1560   85.4470   55.0660 C.3   502  U10502      0.0260
     45  O2        37.1050   73.5030   32.7950 O.2   502  U10502     -0.2836
     46  O3        36.9430   73.2330   30.1510 O.2   502  U10502     -0.4652
     47  O4        35.2950   75.2780   28.8000 O.2   502  U10502     -0.4652
     48  O5        34.1550   77.1480   30.4770 O.2   502  U10502     -0.2835
@<TRIPOS>BOND
     1     9    47    1
     2     8    46    1
     3    47     4    1
     4    46     3    1
     5     4     3    2
     6     4     5    1
     7    48     5    2
     8     3     2    1
     9     5     6    1
    10     2    45    2
    11     2     1    1
    12     6     1    2
    13     6    10    1
    14     1     7    1
    15    10    11    1
    16    11    12    2
    17    12    14    1
    18    12    13    1
    19    14    15    1
    20    15    16    1
    21    16    17    2
    22    17    19    1
    23    17    18    1
    24    20    19    1
    25    20    21    1
    26    21    22    2
    27    22    23    1
    28    22    24    1
    29    24    25    1
    30    25    26    1
    31    26    27    2
    32    27    28    1
    33    27    29    1
    34    29    30    1
    35    30    31    1
    36    31    32    2
    37    32    34    1
    38    32    33    1
    39    35    34    1
    40    35    36    1
    41    36    37    2
    42    38    37    1
    43    37    39    1
    44    39    40    1
    45    40    41    1
    46    43    42    1
    47    41    42    2
    48    42    44    1
