@<TRIPOS>MOLECULE
1pcw_H4P_A_1.pdb
 21 20 0 0 0
SMALL
GASTEIGER

@<TRIPOS>ATOM
      1  OA4       35.0330   55.9460   16.1590 O.3   1268  H4P1268    -0.2176
      2  CA4       35.7920   55.0730   17.0380 C.3   1268  H4P1268     0.2147
      3  CA5       37.0380   54.5080   16.2070 C.3   1268  H4P1268     0.1892
      4  OP4       38.3160   55.1240   16.5020 O.3   1268  H4P1268    -0.2674
      5  PA        39.3820   55.8630   15.6400 P.3   1268  H4P1268     0.5327
      6  OP1       40.7480   55.5330   16.2850 O.3   1268  H4P1268    -0.1145
      7  OP2       39.3880   55.4770   14.1420 O.2   1268  H4P1268    -0.2224
      8  OP3       39.0490   57.3680   15.7780 O.3   1268  H4P1268    -0.1145
      9  CA3       34.7310   54.0690   17.6980 C.3   1268  H4P1268     0.2173
     10  OA3       34.0010   53.3110   16.6950 O.3   1268  H4P1268    -0.2175
     11  CA2       35.3460   53.0440   18.7700 C.3   1268  H4P1268     0.2163
     12  OA2       35.7380   51.7200   18.3080 O.3   1268  H4P1268    -0.2175
     13  CA1       34.2980   52.9280   19.9770 C.3   1268  H4P1268     0.2020
     14  OA1       34.3540   53.9890   20.9630 O.3   1268  H4P1268    -0.2188
     15  C3        34.2350   51.6180   20.8920 C.3   1268  H4P1268     0.1247
     16  N         32.9430   51.2270   21.1870 N.3   1268  H4P1268    -0.2075
     17  C4        32.1230   50.5310   20.3240 C.3   1268  H4P1268     0.1471
     18  P         32.1710   49.5630   19.2090 P.3   1268  H4P1268     0.1347
     19  O1P       32.8870   48.3470   19.8150 O.3   1268  H4P1268    -0.3562
     20  O2P       32.9710   50.2530   18.0760 O.2   1268  H4P1268    -0.4587
     21  O3P       30.6600   49.4220   18.8700 O.3   1268  H4P1268    -0.3562
@<TRIPOS>BOND
     1     7     5    2
     2     5     8    1
     3     5     6    1
     4     5     4    1
     5     1     2    1
     6     3     4    1
     7     3     2    1
     8    10     9    1
     9     2     9    1
    10     9    11    1
    11    20    18    2
    12    12    11    1
    13    11    13    1
    14    21    18    1
    15    18    19    1
    16    18    17    1
    17    13    15    1
    18    13    14    1
    19    17    16    1
    20    15    16    1
