@<TRIPOS>MOLECULE
1pd2_GSH_1_1.pdb
 25 24 0 0 0
SMALL
GASTEIGER

@<TRIPOS>ATOM
      1  N1         2.3600   43.5990   21.8530 N.4   301  GSH301      0.3888
      2  CA1        1.9980   42.1570   21.7750 C.3   301  GSH301      0.0408
      3  C1         0.7490   41.9660   20.8710 C.2   301  GSH301      0.3448
      4  O11        0.5880   40.8980   20.2280 O.co2 301  GSH301     -0.2480
      5  O12       -0.0540   42.9190   20.7830 O.co2 301  GSH301     -0.2480
      6  CB1        1.7430   41.6280   23.1910 C.3   301  GSH301     -0.0013
      7  CG1        1.6070   40.1220   23.2680 C.3   301  GSH301      0.0835
      8  CD1        1.2420   39.6220   24.6550 C.2   301  GSH301      0.2227
      9  OE1        1.7620   40.0940   25.6700 O.2   301  GSH301     -0.2751
     10  N2         0.3240   38.6670   24.6870 N.am  301  GSH301     -0.2976
     11  CA2       -0.1290   38.0590   25.9210 C.3   301  GSH301      0.1603
     12  C2         0.4190   36.6480   26.0190 C.2   301  GSH301      0.2417
     13  O2         0.9140   36.0870   25.0410 O.2   301  GSH301     -0.2733
     14  CB2       -1.6520   38.0080   25.9530 C.3   301  GSH301      0.0976
     15  SG2       -2.4080   39.6310   26.0060 S.3   301  GSH301     -0.0798
     16  N3         0.2920   36.0680   27.2000 N.am  301  GSH301     -0.2935
     17  CA3        0.7640   34.7180   27.4050 C.3   301  GSH301      0.2051
     18  C3         2.1590   34.6880   27.9820 C.2   301  GSH301      0.3845
     19  O31        2.9140   35.6560   27.7420 O.co2 301  GSH301     -0.2437
     20  O32        2.4900   33.7020   28.6820 O.co2 301  GSH301     -0.2437
     21 HN11        1.5140   44.0100   22.2940 H     301  GSH301     -0.0885
     22 HN12        2.4040   43.9070   20.8720 H     301  GSH301     -0.0885
     23  HN2       -0.0500   38.3670   23.8480 H     301  GSH301      0.1498
     24  HN3       -0.0460   36.5520   27.9710 H     301  GSH301      0.1500
     25 HN13        3.2320   43.7240   22.3970 H     301  GSH301     -0.0885
@<TRIPOS>BOND
     1     4     3   ar
     2     5     3   ar
     3     3     2    1
     4    22     1    1
     5     2     1    1
     6     2     6    1
     7     1    21    1
     8     1    25    1
     9     6     7    1
    10     7     8    1
    11    23    10    1
    12     8    10   am
    13     8     9    2
    14    10    11    1
    15    13    12    2
    16    11    14    1
    17    11    12    1
    18    14    15    1
    19    12    16   am
    20    16    17    1
    21    16    24    1
    22    17    18    1
    23    19    18   ar
    24    18    20   ar
