@<TRIPOS>MOLECULE
1pd8_NDP_A_1.pdb
 48 52 0 0 0
SMALL
GASTEIGER

@<TRIPOS>ATOM
      1  PA        26.3340    8.5260    8.9840 P.3   300  NDP300      0.2189
      2  O1A       26.8660    9.5520    8.1850 O.2   300  NDP300     -0.5170
      3  O2A       25.0300    8.2600    8.2430 O.3   300  NDP300     -0.4371
      4  O5B       26.4980    8.6710   10.4050 O.3   300  NDP300     -0.3112
      5  C5B       26.1470    7.7030   11.5120 C.3   300  NDP300      0.1813
      6  C4B       25.4860    8.3720   12.7460 C.3   300  NDP300      0.1820
      7  O4B       24.6430    9.3070   12.3230 O.3   300  NDP300     -0.3136
      8  C3B       24.6030    7.3940   13.5740 C.3   300  NDP300      0.2157
      9  O3B       25.7430    6.7060   14.3360 O.3   300  NDP300     -0.2175
     10  C2B       23.9460    8.4910   14.4540 C.3   300  NDP300      0.2314
     11  O2B       24.6240    9.1800   15.3650 O.3   300  NDP300     -0.2630
     12  C1B       23.4510    9.4050   13.2210 C.3   300  NDP300      0.3158
     13  N9A       22.4170    8.8480   12.4790 N.pl3 300  NDP300     -0.1439
     14  C8A       22.6570    8.1640   11.3120 C.3   300  NDP300      0.3377
     15  N7A       21.4630    7.7240   10.8130 N.2   300  NDP300     -0.2095
     16  C5A       20.5220    8.2380   11.7460 C.2   300  NDP300      0.2526
     17  C6A       18.9950    8.1900   11.8700 C.2   300  NDP300      0.4393
     18  N6A       18.3640    7.5160   10.8190 N.pl3 300  NDP300      0.2180
     19  N1A       18.4150    8.7740   12.9440 N.2   300  NDP300      0.0021
     20  C2A       19.2300    9.3720   13.8150 C.3   300  NDP300      0.5254
     21  N3A       20.5460    9.4940   13.8360 N.2   300  NDP300     -0.0055
     22  C4A       21.1240    8.8760   12.7500 C.2   300  NDP300      0.3518
     23  O3        27.4000    7.3160    8.6690 O.3   300  NDP300     -0.2703
     24  PN        27.9980    6.4010    7.4110 P.3   300  NDP300      0.2189
     25  O1N       27.0000    5.5430    6.8100 O.2   300  NDP300     -0.5170
     26  O2N       28.8770    5.5230    8.1880 O.3   300  NDP300     -0.4371
     27  O5D       29.0290    7.1780    6.5400 O.3   300  NDP300     -0.3112
     28  C5D       30.0800    8.1920    6.3790 C.3   300  NDP300      0.1813
     29  C4D       31.0090    7.3960    5.3950 C.3   300  NDP300      0.1799
     30  O4D       30.3710    7.3920    4.0220 O.3   300  NDP300     -0.3327
     31  C3D       32.3950    8.2060    5.1500 C.3   300  NDP300      0.2158
     32  O3D       32.9590    7.0000    4.6160 O.3   300  NDP300     -0.2175
     33  C2D       31.7880    9.2950    4.2510 C.3   300  NDP300      0.2309
     34  O2D       32.7680   10.0690    3.6280 O.3   300  NDP300     -0.2158
     35  C1D       31.0670    8.4820    3.1940 C.3   300  NDP300      0.2263
     36  N1N       29.9250    9.1000    2.3770 N.pl3 300  NDP300     -0.2787
     37  C2N       29.9600    8.9670    0.9080 C.3   300  NDP300      0.1244
     38  C3N       28.8720    9.6110    0.2410 C.2   300  NDP300      0.0544
     39  C7N       28.8600    9.3990   -1.2980 C.2   300  NDP300      0.2818
     40  O7N       28.1730    9.7240   -2.0600 O.2   300  NDP300     -0.2670
     41  N7N       30.0000    8.5540   -1.8960 N.am  300  NDP300     -0.0839
     42  C4N       27.7280   10.3770    0.8730 C.2   300  NDP300      0.0033
     43  C5N       27.8810   10.3840    2.3730 C.2   300  NDP300      0.0157
     44  C6N       28.9010    9.8000    3.0690 C.2   300  NDP300      0.0633
     45  P2B       24.4560    8.7320   16.9550 P.3   300  NDP300      0.5328
     46  O1X       25.3220    9.8620   17.0340 O.2   300  NDP300     -0.2224
     47  O2X       25.3890    7.6560   17.2090 O.3   300  NDP300     -0.1145
     48  O3X       23.1900    8.7900   17.3700 O.3   300  NDP300     -0.1145
@<TRIPOS>BOND
     1    40    39    2
     2    41    39   am
     3    39    38    1
     4    38    42    2
     5    38    37    1
     6    42    43    1
     7    37    36    1
     8    43    44    2
     9    36    44    1
    10    36    35    1
    11    35    30    1
    12    35    33    1
    13    34    33    1
    14    30    29    1
    15    33    31    1
    16    32    31    1
    17    31    29    1
    18    29    28    1
    19    28    27    1
    20    27    24    1
    21    25    24    2
    22    24    26    1
    23    24    23    1
    24     2     1    2
    25     3     1    1
    26    23     1    1
    27     1     4    1
    28     4     5    1
    29    15    14    1
    30    15    16    2
    31    18    17    1
    32    14    13    1
    33     5     6    1
    34    16    17    1
    35    16    22    1
    36    17    19    2
    37     7     6    1
    38     7    12    1
    39    13    22    1
    40    13    12    1
    41     6     8    1
    42    22    21    2
    43    19    20    1
    44    12    10    1
    45     8     9    1
    46     8    10    1
    47    20    21    1
    48    10    11    1
    49    11    45    1
    50    45    46    2
    51    45    47    1
    52    45    48    1
