@<TRIPOS>MOLECULE
1pd8_CO4_A_1.pdb
 28 30 0 0 0
SMALL
GASTEIGER

@<TRIPOS>ATOM
      1  N2'       27.1210   12.4470   -5.5880 N.pl3 301  CO4301     -0.0226
      2  C2D       27.3760   12.6790   -4.3300 C.1   301  CO4301      0.2517
      3  N3'       26.5320   12.6000   -3.2840 N.2   301  CO4301     -0.3061
      4  C4D       26.9590   12.8560   -2.0600 C.2   301  CO4301      0.2427
      5  N4'       25.9620   12.7650   -1.1390 N.pl3 301  CO4301     -0.0914
      6  C4A       28.2910   13.2750   -1.7590 C.2   301  CO4301      0.1186
      7  C5D       28.8490   13.6150   -0.4700 C.2   301  CO4301     -0.0084
      8  C6D       30.1890   13.8910   -0.3490 C.2   301  CO4301      0.0144
      9  C7'       30.9510   13.9390   -1.5500 C.2   301  CO4301      0.1076
     10  N8'       30.4900   13.6350   -2.7760 N.2   301  CO4301     -0.1818
     11  C8A       29.1260   13.2930   -2.8810 C.1   301  CO4301      0.1046
     12  N1'       28.6890   12.9880   -4.1750 N.2   301  CO4301     -0.2706
     13  C8'       30.9320   14.2330    0.9700 C.3   301  CO4301      0.1190
     14  N9'       32.3610   14.3870    1.1210 N.pl3 301  CO4301     -0.3016
     15  C1'       33.0070   15.5150    0.6480 C.ar  301  CO4301      0.0544
     16  C6'       32.2600   16.6980    0.3700 C.ar  301  CO4301      0.0548
     17  C5'       33.0420   17.7360   -0.1110 C.ar  301  CO4301      0.1767
     18  O5'       32.3650   18.9140   -0.3220 O.3   301  CO4301     -0.4682
     19  C5B       30.9500   18.7270   -0.1660 C.3   301  CO4301      0.2526
     20  C4'       34.4110   17.7060   -0.3100 C.ar  301  CO4301      0.2061
     21  O4'       35.0850   18.8690   -0.7830 O.3   301  CO4301     -0.4654
     22  C4B       36.4660   18.5870   -1.0090 C.3   301  CO4301      0.2528
     23  C3'       35.0760   16.5300    0.0140 C.ar  301  CO4301      0.1767
     24  O3'       36.4440   16.6190   -0.1540 O.3   301  CO4301     -0.4682
     25  C3B       37.1410   15.3790    0.1080 C.3   301  CO4301      0.2526
     26  C2'       34.4170   15.4220    0.5240 C.ar  301  CO4301      0.0548
     27  C9'       33.3100   13.2990    1.3850 C.3   301  CO4301      0.1125
     28  C51       27.9560   13.6150    0.7520 C.3   301  CO4301      0.0317
@<TRIPOS>BOND
     1     1     2    1
     2     2    12    2
     3     2     3    2
     4    12    11    2
     5     3     4    2
     6    11    10    2
     7    11     6    1
     8    10     9    1
     9     4     6    1
    10     4     5    1
    11     6     7    2
    12     9     8    2
    13    22    21    1
    14    21    20    1
    15     7     8    1
    16     7    28    1
    17     8    13    1
    18    18    19    1
    19    18    17    1
    20    20    17   ar
    21    20    23   ar
    22    24    23    1
    23    24    25    1
    24    17    16   ar
    25    23    26   ar
    26    16    15   ar
    27    26    15   ar
    28    15    14    1
    29    13    14    1
    30    14    27    1
