@<TRIPOS>MOLECULE
1pda_DPM_A_1.pdb
 30 31 0 0 0
SMALL
GASTEIGER

@<TRIPOS>ATOM
      1  C1A       15.7920    0.7360   27.3310 C.2   314  DPM314      0.1053
      2  C2A       16.4210    0.2390   28.5040 C.2   314  DPM314      0.0127
      3  C3A       17.1110    1.2960   29.0860 C.2   314  DPM314      0.0029
      4  C4A       16.9430    2.4430   28.2700 C.2   314  DPM314      0.1103
      5  C5A       16.3680   -1.1760   29.0400 C.3   314  DPM314      0.1423
      6  C6A       17.4930   -2.0860   28.4900 C.2   314  DPM314      0.3693
      7  C7A       17.8080    1.3540   30.4540 C.3   314  DPM314      0.0402
      8  C8A       19.2630    1.1100   30.3700 C.3   314  DPM314      0.1188
      9  C9A       19.7680    1.0340   31.8620 C.2   314  DPM314      0.3652
     10  CHA       14.8510    0.0620   26.3780 C.3   314  DPM314      0.0660
     11  NA        16.0970    2.1280   27.1980 N.2   314  DPM314     -0.4108
     12  O1A       18.4200   -1.7040   27.8010 O.co2 314  DPM314     -0.2453
     13  O2A       17.4420   -3.3200   28.8000 O.co2 314  DPM314     -0.2453
     14  O3A       20.7750    0.2930   32.0510 O.co2 314  DPM314     -0.2456
     15  O4A       19.4030    1.7330   32.8550 O.co2 314  DPM314     -0.2456
     16  C1B       17.3940    4.8820   27.8280 C.2   314  DPM314      0.0571
     17  C2B       17.9940    6.1540   28.2280 C.2   314  DPM314     -0.0034
     18  C3B       17.8610    7.0310   27.1370 C.2   314  DPM314     -0.0219
     19  C4B       17.1650    6.3910   26.0660 C.3   314  DPM314      0.1470
     20  C5B       18.6270    6.4070   29.5850 C.3   314  DPM314      0.1410
     21  C6B       17.6460    7.0230   30.6420 C.2   314  DPM314      0.3692
     22  C7B       18.5040    8.4320   27.1000 C.3   314  DPM314      0.0355
     23  C8B       19.9010    8.1930   26.4980 C.3   314  DPM314      0.1184
     24  C9B       20.5990    9.5300   26.0320 C.2   314  DPM314      0.3652
     25  CHB       17.3820    3.7530   28.6640 C.3   314  DPM314      0.1035
     26  NB        16.8960    5.0480   26.5110 N.2   314  DPM314     -0.2701
     27  O1B       17.6370    6.7110   31.8560 O.co2 314  DPM314     -0.2453
     28  O2B       16.8410    7.9590   30.3440 O.co2 314  DPM314     -0.2453
     29  O3B       19.9670   10.1720   25.1980 O.co2 314  DPM314     -0.2456
     30  O4B       21.7510    9.8450   26.3470 O.co2 314  DPM314     -0.2456
@<TRIPOS>BOND
     1    29    24   ar
     2    24    30   ar
     3    24    23    1
     4    19    26    1
     5    19    18    1
     6    10     1    1
     7    23    22    1
     8    26    16    2
     9    22    18    1
    10    18    17    2
    11    11     1    2
    12    11     4    2
    13     1     2    1
    14    12     6   ar
    15    16    17    1
    16    16    25    1
    17    17    20    1
    18     4    25    1
    19     4     3    1
    20     6    13   ar
    21     6     5    1
    22     2     5    1
    23     2     3    2
    24     3     7    1
    25    20    21    1
    26    28    21   ar
    27     8     7    1
    28     8     9    1
    29    21    27   ar
    30     9    14   ar
    31     9    15   ar
