@<TRIPOS>MOLECULE
1pe1_2PG_A_1.pdb
 11 10 0 0 0
SMALL
GASTEIGER

@<TRIPOS>ATOM
      1  C1        32.4050   51.8310   22.4390 C.2   1268  2PG1268     0.3946
      2  C2        32.9290   50.7700   21.4470 C.3   1268  2PG1268     0.2610
      3  C3        33.7280   49.6240   22.0930 C.3   1268  2PG1268     0.2237
      4  P         32.0490   49.6000   19.2490 P.3   1268  2PG1268     0.5331
      5  O1        31.1490   51.7600   22.6350 O.co2 1268  2PG1268    -0.2428
      6  O2        33.2060   52.5580   23.0770 O.co2 1268  2PG1268    -0.2428
      7  O3        32.9490   48.5890   22.6130 O.3   1268  2PG1268    -0.2170
      8  O1P       31.8860   50.2830   20.6460 O.3   1268  2PG1268    -0.2583
      9  O2P       30.5800   49.3870   18.8950 O.3   1268  2PG1268    -0.1145
     10  O3P       32.6890   50.5470   18.2820 O.2   1268  2PG1268    -0.2224
     11  O4P       32.8130   48.3430   19.4440 O.3   1268  2PG1268    -0.1145
@<TRIPOS>BOND
     1    10     4    2
     2     9     4    1
     3     4    11    1
     4     4     8    1
     5     8     2    1
     6     2     3    1
     7     2     1    1
     8     3     7    1
     9     1     5   ar
    10     1     6   ar
