@<TRIPOS>MOLECULE
1pe5_BR3_A_1.pdb
 15 16 0 0 0
SMALL
GASTEIGER

@<TRIPOS>ATOM
      1  CA1       38.1740   38.2760   -5.8970 C.ar  322  BR3322      0.0362
      2  CB2       37.0490   38.2730   -6.7220 C.ar  322  BR3322      0.1343
      3  O         36.1560   39.2200   -6.2890 O.3   322  BR3322     -0.4789
      4  CZ2       35.3380   39.7280   -7.3280 C.3   322  BR3322      0.1753
      5  CA2       34.3790   40.8210   -6.8590 C.3   322  BR3322      0.1269
      6  P         35.1840   42.2330   -6.2320 P.3   322  BR3322      0.2588
      7  OP1       36.5450   42.6300   -6.7950 O.3   322  BR3322     -0.1743
      8  OP2       34.1610   43.3060   -6.2500 O.3   322  BR3322     -0.1743
      9  CZ3       34.8960   38.7200   -8.2700 C.3   322  BR3322      0.0488
     10  CE3       35.8270   37.6800   -8.6580 C.3   322  BR3322      0.0331
     11  CG2       36.9930   37.4890   -7.8470 C.ar  322  BR3322      0.0116
     12  CD        38.1480   36.6110   -8.0730 C.ar  322  BR3322     -0.0055
     13  CG1       39.2880   36.5370   -7.2540 C.ar  322  BR3322     -0.0220
     14  CB1       39.2260   37.4220   -6.2150 C.ar  322  BR3322     -0.0012
     15  CH2       40.3910   35.6990   -7.5530 C.3   322  BR3322      0.0310
@<TRIPOS>BOND
     1    10     9    1
     2    10    11    1
     3     9     4    1
     4    12    11   ar
     5    12    13   ar
     6    11     2   ar
     7    15    13    1
     8     4     5    1
     9     4     3    1
    10    13    14   ar
    11     5     6    1
    12     7     6    1
    13     2     3    1
    14     2     1   ar
    15     8     6    1
    16    14     1   ar
