@<TRIPOS>MOLECULE
1pe6_E6C_A_1.pdb
 22 21 0 0 0
SMALL
GASTEIGER

@<TRIPOS>ATOM
      1  O1        11.3450   52.7180    2.5910 O.3   213  E6C213     -0.2126
      2  C2        12.7880   54.2570    1.2220 C.3   213  E6C213      0.1564
      3  C3        11.5020   53.4380    1.3860 C.3   213  E6C213      0.2403
      4  C4        11.0420   52.4920    0.2970 C.2   213  E6C213      0.2728
      5  O5        10.4000   52.9080   -0.6100 O.2   213  E6C213     -0.2706
      6  N6        11.3390   51.2450    0.4260 N.am  213  E6C213     -0.1956
      7  C7        11.2510   49.9060    0.1000 C.3   213  E6C213      0.1728
      8  C8         9.8070   49.4690   -0.1450 C.2   213  E6C213      0.2612
      9  O9         9.5060   48.7110    0.7820 O.2   213  E6C213     -0.2715
     10  N10        8.9110   49.7580   -1.0810 N.am  213  E6C213     -0.2040
     11  C11        7.5020   49.4970   -0.8130 C.3   213  E6C213      0.1152
     12  C12        7.2190   49.6570    0.6850 C.3   213  E6C213      0.0234
     13  C13        5.9430   49.4080    1.4270 C.3   213  E6C213      0.0018
     14  C14        5.3470   47.9940    1.4720 C.3   213  E6C213      0.0001
     15  C15        4.7690   50.3720    1.3990 C.3   213  E6C213      0.0001
     16  C16       12.7550   55.5030    2.1720 C.2   213  E6C213      0.3680
     17  O17       12.0580   56.3950    1.7140 O.co2 213  E6C213     -0.2455
     18  O18       13.2410   55.3700    3.2750 O.co2 213  E6C213     -0.2455
     19  C19       11.5260   49.2480    1.5170 C.3   213  E6C213      0.0311
     20  C20       11.9770   47.9010    2.0010 C.3   213  E6C213      0.0022
     21  C21       11.7260   47.6010    3.5060 C.3   213  E6C213      0.0001
     22  C22       11.5160   46.6540    1.2310 C.3   213  E6C213      0.0001
@<TRIPOS>BOND
     1    10    11    1
     2    10     8   am
     3    11    12    1
     4     5     4    2
     5     8     7    1
     6     8     9    2
     7     7     6    1
     8     7    19    1
     9     4     6   am
    10     4     3    1
    11    12    13    1
    12     2     3    1
    13     2    16    1
    14    22    20    1
    15     3     1    1
    16    15    13    1
    17    13    14    1
    18    19    20    1
    19    17    16   ar
    20    20    21    1
    21    16    18   ar
