@<TRIPOS>MOLECULE
1pe7_4BR_A_1.pdb
 13 13 0 0 0
SMALL
GASTEIGER

@<TRIPOS>ATOM
      1  CA1       38.1410   38.2220   -5.8530 C.ar  322  4BR322      0.0366
      2  CB1       39.2630   37.4660   -6.1900 C.ar  322  4BR322     -0.0011
      3  CG1       39.4160   36.6180   -7.2470 C.ar  322  4BR322     -0.0217
      4  CD        38.2600   36.5530   -8.0530 C.ar  322  4BR322     -0.0011
      5  CG2       37.0710   37.3430   -7.8240 C.ar  322  4BR322      0.0366
      6  CB2       37.0190   38.1130   -6.6850 C.ar  322  4BR322      0.1386
      7  O         36.1080   39.0320   -6.3000 O.3   322  4BR322     -0.4749
      8  CZ2       35.3450   39.7020   -7.2850 C.3   322  4BR322      0.2150
      9  CA2       34.3840   40.8130   -6.8830 C.3   322  4BR322      0.1308
     10  P         35.1610   42.2280   -6.1820 P.3   322  4BR322      0.2590
     11  OP1       36.5240   42.5070   -6.7740 O.3   322  4BR322     -0.1743
     12  OP2       34.2500   43.3960   -6.1930 O.3   322  4BR322     -0.1743
     13  CH2       40.5610   35.8550   -7.5270 C.3   322  4BR322      0.0310
@<TRIPOS>BOND
     1     4     5   ar
     2     4     3   ar
     3     5     6   ar
     4    13     3    1
     5     8     9    1
     6     8     7    1
     7     3     2   ar
     8     9    10    1
     9    11    10    1
    10     6     7    1
    11     6     1   ar
    12    12    10    1
    13     2     1   ar
