@<TRIPOS>MOLECULE
1pee_HEM_A_1.pdb
 43 50 0 0 0
SMALL
GASTEIGER

@<TRIPOS>ATOM
      1 FE         17.4410   13.9210  117.7200 Fe    201  HEM201      0.0000
      2  CHA       17.7070   14.6180  121.0280 C.2   201  HEM201      0.0000
      3  CHB       20.4160   12.1370  117.8910 C.2   201  HEM201      0.0000
      4  CHC       16.8750   12.7650  114.6010 C.2   201  HEM201      0.0000
      5  CHD       14.6830   16.1400  117.4360 C.2   201  HEM201      0.0000
      6  NA        18.8220   13.4610  119.1460 N.2   201  HEM201      0.0000
      7  C1A       18.7350   13.8940  120.4810 C.2   201  HEM201      0.0000
      8  C2A       19.9230   13.4050  121.2020 C.2   201  HEM201      0.0000
      9  C3A       20.6560   12.7190  120.3170 C.2   201  HEM201      0.0000
     10  C4A       20.0080   12.7470  119.0360 C.2   201  HEM201      0.0000
     11  CMA       21.9830   12.0060  120.5720 C.3   201  HEM201      0.0000
     12  CAA       20.2620   13.6080  122.6980 C.3   201  HEM201      0.0000
     13  CBA       19.7560   12.4000  123.4900 C.3   201  HEM201      0.0000
     14  CGA       20.0810   12.5270  124.9770 C.2   201  HEM201      0.0000
     15  O1A       21.2820   12.3350  125.4250 O.co2 201  HEM201      0.0000
     16  O2A       19.1280   12.8070  125.7140 O.co2 201  HEM201      0.0000
     17  NB        18.4340   12.6560  116.4950 N.ar  201  HEM201      0.0000
     18  C1B       19.6750   12.0720  116.7250 C.ar  201  HEM201      0.0000
     19  C2B       20.0080   11.3330  115.5210 C.ar  201  HEM201      0.0000
     20  C3B       19.0240   11.4730  114.6370 C.ar  201  HEM201      0.0000
     21  C4B       18.0110   12.3140  115.2200 C.ar  201  HEM201      0.0000
     22  CMB       21.2920   10.5250  115.3750 C.3   201  HEM201      0.0000
     23  CAB       18.9100   10.8510  113.2520 C.2   201  HEM201      0.0000
     24  CBB       19.1000    9.5420  113.0920 C.2   201  HEM201      0.0000
     25  NC        16.0130   14.3670  116.2560 N.2   201  HEM201      0.0000
     26  C1C       16.0330   13.8060  115.0170 C.2   201  HEM201      0.0000
     27  C2C       15.0340   14.4800  114.2170 C.2   201  HEM201      0.0000
     28  C3C       14.4230   15.3720  115.0240 C.2   201  HEM201      0.0000
     29  C4C       15.0260   15.3510  116.3350 C.2   201  HEM201      0.0000
     30  CMC       14.7210   14.1630  112.7380 C.3   201  HEM201      0.0000
     31  CAC       13.2900   16.4120  114.6890 C.2   201  HEM201      0.0000
     32  CBC       12.3470   16.0990  113.8170 C.2   201  HEM201      0.0000
     33  ND        16.4160   15.1690  118.9900 N.ar  201  HEM201      0.0000
     34  C1D       15.2660   15.9370  118.6640 C.ar  201  HEM201      0.0000
     35  C2D       14.8540   16.5630  119.8850 C.ar  201  HEM201      0.0000
     36  C3D       15.7530   16.0800  120.9780 C.ar  201  HEM201      0.0000
     37  C4D       16.7030   15.2150  120.3560 C.ar  201  HEM201      0.0000
     38  CMD       13.6630   17.4900  120.0800 C.3   201  HEM201      0.0000
     39  CAD       15.6660   16.4520  122.4690 C.3   201  HEM201      0.0000
     40  CBD       15.0920   15.3030  123.2830 C.3   201  HEM201      0.0000
     41  CGD       15.2470   15.5690  124.7740 C.2   201  HEM201      0.0000
     42  O1D       15.9190   16.5730  125.2140 O.co2 201  HEM201      0.0000
     43  O2D       14.7340   14.7650  125.5520 O.co2 201  HEM201      0.0000
@<TRIPOS>BOND
     1    30    27    1
     2    24    23    2
     3    23    20    1
     4    32    31    2
     5    27    26    1
     6    27    28    2
     7     4    26    2
     8     4    21    1
     9    20    21   ar
    10    20    19   ar
    11    31    28    1
    12    26    25    1
    13    28    29    1
    14    21    17   ar
    15    22    19    1
    16    19    18   ar
    17    25    29    2
    18    25     1    1
    19    29     5    1
    20    17    18   ar
    21    17     1    1
    22    18     3    1
    23     5    34    2
    24     1    33    1
    25     1     6    1
    26     3    10    2
    27    34    33   ar
    28    34    35   ar
    29    33    37   ar
    30    10     6    1
    31    10     9    1
    32     6     7    2
    33    35    38    1
    34    35    36   ar
    35     9    11    1
    36     9     8    2
    37    37    36   ar
    38    37     2    2
    39     7     2    1
    40     7     8    1
    41    36    39    1
    42     8    12    1
    43    39    40    1
    44    12    13    1
    45    40    41    1
    46    13    14    1
    47    41    42   ar
    48    41    43   ar
    49    14    15   ar
    50    14    16   ar
