@<TRIPOS>MOLECULE
1peg_SAH_A_1.pdb
 26 28 0 0 0
SMALL
GASTEIGER

@<TRIPOS>ATOM
      1  N         22.9350   11.5790   -4.6940 N.3   319  SAH319     -0.1208
      2  CA        24.3720   11.4880   -4.8840 C.3   319  SAH319      0.1952
      3  CB        25.0060   11.0800   -3.5550 C.3   319  SAH319      0.0422
      4  CG        25.1030   12.2130   -2.5600 C.3   319  SAH319      0.0597
      5  SD        26.7730   12.6020   -1.9490 S.3   319  SAH319     -0.1375
      6  C         24.7980   10.5200   -5.9870 C.2   319  SAH319      0.3819
      7  O         26.0320   10.0860   -6.0400 O.co2 319  SAH319     -0.2441
      8  OXT       23.9400   10.2240   -6.9270 O.co2 319  SAH319     -0.2441
      9  C5'       26.8780   14.3810   -1.9990 C.3   319  SAH319      0.0899
     10  C4'       26.3790   15.1170   -3.2200 C.3   319  SAH319      0.1630
     11  O4'       24.9990   14.7340   -3.4880 O.3   319  SAH319     -0.3153
     12  C3'       26.3290   16.6280   -3.0610 C.3   319  SAH319      0.2168
     13  O3'       27.5820   17.2290   -3.3660 O.3   319  SAH319     -0.2175
     14  C2'       25.2420   17.0210   -4.0510 C.3   319  SAH319      0.2569
     15  O2'       25.7000   17.0430   -5.3920 O.3   319  SAH319     -0.2130
     16  C1'       24.2430   15.8720   -3.8660 C.3   319  SAH319      0.3185
     17  N9        23.2570   16.1290   -2.8100 N.pl3 319  SAH319     -0.1439
     18  C8        22.8960   15.2920   -1.7810 C.3   319  SAH319      0.3377
     19  N7        22.0040   15.8030   -0.9730 N.2   319  SAH319     -0.2095
     20  C5        21.7490   17.0580   -1.5050 C.2   319  SAH319      0.2526
     21  C6        20.8960   18.0980   -1.1060 C.2   319  SAH319      0.4393
     22  N6        20.1040   18.0420   -0.0340 N.pl3 319  SAH319      0.2180
     23  N1        20.8750   19.2150   -1.8580 N.2   319  SAH319      0.0021
     24  C2        21.6620   19.2750   -2.9300 C.3   319  SAH319      0.5254
     25  N3        22.5070   18.3690   -3.4070 N.2   319  SAH319     -0.0055
     26  C4        22.5070   17.2690   -2.6370 C.2   319  SAH319      0.3518
@<TRIPOS>BOND
     1     8     6   ar
     2     7     6   ar
     3     6     2    1
     4    15    14    1
     5     2     1    1
     6     2     3    1
     7    14    16    1
     8    14    12    1
     9    16    11    1
    10    16    17    1
    11     3     4    1
    12    11    10    1
    13    25    24    1
    14    25    26    2
    15    13    12    1
    16    10    12    1
    17    10     9    1
    18    24    23    1
    19    17    26    1
    20    17    18    1
    21    26    20    1
    22     4     5    1
    23     9     5    1
    24    23    21    2
    25    18    19    1
    26    20    21    1
    27    20    19    2
    28    21    22    1
