@<TRIPOS>MOLECULE
1peg_III_P_1.pdb
 46 45 0 0 0
SMALL
GASTEIGER

@<TRIPOS>ATOM
      1  N         32.5640   20.7560   -0.3820 N.3     7  ALA7       -0.1231
      2  CA        32.6300   20.7160    1.0750 C.3     7  ALA7        0.1694
      3  C         32.8790   19.2940    1.6070 C.2     7  ALA7        0.2592
      4  O         33.4520   18.4470    0.9100 O.2     7  ALA7       -0.2718
      5  CB        31.3450   21.2840    1.6570 C.3     7  ALA7        0.0304
      6  N         32.4580   19.0430    2.8470 N.am    8  ARG8       -0.1966
      7  CA        32.6320   17.7290    3.4730 C.3     8  ARG8        0.1729
      8  C         31.6240   17.4220    4.5870 C.2     8  ARG8        0.2616
      9  O         31.1360   18.3190    5.2740 O.2     8  ARG8       -0.2715
     10  CB        34.0480   17.5960    4.0300 C.3     8  ARG8        0.0348
     11  CG        34.1490   17.8290    5.5260 C.3     8  ARG8        0.0492
     12  CD        35.5890   18.0620    5.9420 C.3     8  ARG8        0.2205
     13  NE        35.7380   19.1400    6.9160 N.pl3   8  ARG8       -0.0865
     14  CZ        36.8170   19.3150    7.6760 C.cat   8  ARG8        0.5346
     15  NH1       37.8470   18.4820    7.5750 N.pl3   8  ARG8        0.1354
     16  NH2       36.8700   20.3240    8.5350 N.pl3   8  ARG8        0.1354
     17  N         31.3220   16.1430    4.7590 N.am    9  LYS9       -0.1963
     18  CA        30.3890   15.7070    5.7810 C.3     9  LYS9        0.1728
     19  C         31.0690   15.7710    7.1440 C.2     9  LYS9        0.2617
     20  O         32.2470   15.4350    7.2780 O.2     9  LYS9       -0.2715
     21  CB        29.9310   14.2800    5.4860 C.3     9  LYS9        0.0311
     22  CG        28.6140   14.1740    4.7540 C.3     9  LYS9        0.0038
     23  CD        28.8270   13.6900    3.3430 C.3     9  LYS9        0.0206
     24  CE        28.1010   12.3920    3.1100 C.3     9  LYS9        0.1093
     25  NZ        27.9390   12.1360    1.6510 N.3     9  LYS9       -0.1314
     26  N         30.3260   16.2000    8.1580 N.am   10  SER10      -0.1936
     27  CA        30.8970   16.3110    9.4910 C.3    10  SER10       0.2055
     28  C         29.9950   15.8420   10.6290 C.2    10  SER10       0.2644
     29  O         28.8670   15.3830   10.4160 O.2    10  SER10      -0.2714
     30  CB        31.3180   17.7560    9.7520 C.3    10  SER10       0.2130
     31  OG        32.1640   17.8360   10.8840 O.3    10  SER10      -0.2179
     32  N         30.5260   15.9750   11.8410 N.am   11  THR11      -0.1936
     33  CA        29.8430   15.5890   13.0690 C.3    11  THR11       0.2028
     34  C         30.3930   16.4280   14.2140 C.2    11  THR11       0.2643
     35  O         31.5060   16.1830   14.6800 O.2    11  THR11      -0.2714
     36  CB        30.1150   14.1300   13.4020 C.3    11  THR11       0.1808
     37  OG1       29.9150   13.3370   12.2310 O.3    11  THR11      -0.2208
     38  CG2       29.1910   13.6590   14.5080 C.3    11  THR11       0.0379
     39  N         29.6240   17.4060   14.6800 N.am   12  GLY12      -0.1939
     40  CA        30.1120   18.2480   15.7600 C.3    12  GLY12       0.2014
     41  C         29.2010   18.3760   16.9650 C.2    12  GLY12       0.2639
     42  O         29.3900   17.6900   17.9730 O.2    12  GLY12      -0.2714
     43  N         28.2190   19.2690   16.8610 N.am   13  GLY13      -0.1954
     44  CA        27.2840   19.4860   17.9490 C.3    13  GLY13       0.1869
     45  C         26.6570   20.8660   17.8890 C.2    13  GLY13       0.2309
     46  O         27.2180   21.8430   18.3910 O.2    13  GLY13      -0.2863
@<TRIPOS>BOND
     1     1     2    1
     2     4     3    2
     3     2     3    1
     4     2     5    1
     5     3     6   am
     6    25    24    1
     7     6     7    1
     8    24    23    1
     9    23    22    1
    10     7    10    1
    11     7     8    1
    12    10    11    1
    13     8    17   am
    14     8     9    2
    15    22    21    1
    16    17    18    1
    17    21    18    1
    18    11    12    1
    19    18    19    1
    20    12    13    1
    21    13    14    2
    22    19    20    2
    23    19    26   am
    24    15    14    1
    25    14    16    1
    26    26    27    1
    27    27    30    1
    28    27    28    1
    29    30    31    1
    30    29    28    2
    31    28    32   am
    32    32    33    1
    33    37    36    1
    34    33    36    1
    35    33    34    1
    36    36    38    1
    37    34    35    2
    38    34    39   am
    39    39    40    1
    40    40    41    1
    41    43    41   am
    42    43    44    1
    43    41    42    2
    44    45    44    1
    45    45    46    2
