@<TRIPOS>MOLECULE
1pek_III_C_1.pdb
 30 32 0 0 0
SMALL
GASTEIGER

@<TRIPOS>ATOM
      1  N        -28.8730   21.1360   17.4920 N.2     1  PRO1       -0.2701
      2  CA       -27.3370   21.0660   17.5460 C.2     1  PRO1        0.1085
      3  C        -26.4030   21.5230   16.4510 C.2     1  PRO1        0.2784
      4  O        -26.7600   22.7940   16.4640 O.2     1  PRO1       -0.2671
      5  CB       -27.2810   19.7600   18.3710 C.3     1  PRO1        0.0522
      6  CG       -28.4410   19.7790   19.3500 C.3     1  PRO1        0.0327
      7  CD       -29.5490   20.6290   18.7010 C.3     1  PRO1        0.1257
      8  N        -25.2530   21.1770   15.7640 N.am    2  ALA2       -0.1931
      9  CA       -24.4860   21.7400   14.6290 C.3     2  ALA2        0.1717
     10  C        -23.4790   21.2200   13.6180 C.2     2  ALA2        0.2458
     11  O        -24.1270   20.4960   12.8100 O.2     2  ALA2       -0.2730
     12  CB       -24.6530   23.2890   14.4590 C.3     2  ALA2        0.0333
     13  N        -22.2810   21.2100   13.0050 N.am    3  PRO3       -0.2716
     14  CA       -21.6750   20.3810   11.9420 C.3     3  PRO3        0.1535
     15  C        -21.2010   18.9390   12.2610 C.2     3  PRO3        0.2595
     16  O        -20.6200   18.8480   13.3400 O.2     3  PRO3       -0.2716
     17  CB       -20.2480   20.9390   11.6610 C.3     3  PRO3        0.0310
     18  CG       -19.9480   21.9590   12.6810 C.3     3  PRO3        0.0237
     19  CD       -21.1830   22.0160   13.5690 C.3     3  PRO3        0.0939
     20  N        -21.6820   17.9210   11.5980 N.am    4  PHE4       -0.2028
     21  CA       -22.3120   16.9570   10.7830 C.3     4  PHE4        0.1325
     22  C        -21.9310   16.2490    9.5190 C.3     4  PHE4        0.2039
     23  O        -22.3500   15.0590    9.6420 O.3     4  PHE4       -0.2185
     24  CB       -23.8010   16.9440   10.3340 C.3     4  PHE4        0.0507
     25  CG       -24.9810   16.8180   11.2080 C.ar    4  PHE4       -0.0204
     26  CD1      -24.8290   17.1440   12.5060 C.ar    4  PHE4       -0.0042
     27  CD2      -26.2530   16.5610   10.6580 C.ar    4  PHE4       -0.0042
     28  CE1      -25.9760   17.1480   13.2550 C.ar    4  PHE4       -0.0003
     29  CE2      -27.4590   16.5630   11.3980 C.ar    4  PHE4       -0.0003
     30  CZ       -27.2570   16.8460   12.7300 C.ar    4  PHE4       -0.0000
@<TRIPOS>BOND
     1    22    23    1
     2    22    21    1
     3    24    21    1
     4    24    25    1
     5    27    25   ar
     6    27    29   ar
     7    21    20    1
     8    25    26   ar
     9    29    30   ar
    10    20    15   am
    11    17    14    1
    12    17    18    1
    13    14    15    1
    14    14    13    1
    15    15    16    2
    16    26    28   ar
    17    18    19    1
    18    30    28   ar
    19    11    10    2
    20    13    19    1
    21    13    10   am
    22    10     9    1
    23    12     9    1
    24     9     8    1
    25     8     3   am
    26     3     4    2
    27     3     2    1
    28     1     2    2
    29     1     7    1
    30     2     5    1
    31     5     6    1
    32     7     6    1
