@<TRIPOS>MOLECULE
1peo_DCP_A_1.pdb
 28 29 0 0 0
SMALL
GASTEIGER

@<TRIPOS>ATOM
      1  N1        -0.5230   17.9010  149.7630 N.am  716  DCP716     -0.1802
      2  C2         0.7220   18.2770  150.2360 C.1   716  DCP716      0.2756
      3  N3         1.2030   17.9890  151.5180 N.2   716  DCP716     -0.3024
      4  C4         0.3590   17.2770  152.3460 C.2   716  DCP716      0.2346
      5  C5        -0.9050   16.8800  151.9470 C.2   716  DCP716      0.0687
      6  C6        -1.3510   17.2020  150.6280 C.2   716  DCP716      0.0835
      7  O2         1.4810   18.8760  149.5790 O.2   716  DCP716     -0.1925
      8  N4         0.7600   16.9930  153.5140 N.pl3 716  DCP716     -0.0921
      9  C1'       -1.0360   18.2320  148.4420 C.3   716  DCP716      0.2090
     10  C2'       -0.9710   17.2030  147.3190 C.3   716  DCP716      0.0874
     11  C3'       -2.2480   17.3050  146.4800 C.3   716  DCP716      0.1857
     12  C4'       -3.1630   18.1240  147.3260 C.3   716  DCP716      0.1773
     13  O4'       -2.4100   18.5850  148.4550 O.3   716  DCP716     -0.3339
     14  O3'       -2.2220   17.9970  145.2300 O.3   716  DCP716     -0.2203
     15  C5'       -4.2920   17.2150  147.7420 C.3   716  DCP716      0.1812
     16  O5'       -3.8380   16.1040  148.5180 O.3   716  DCP716     -0.3112
     17  PA        -5.0210   15.1830  149.0940 P.3   716  DCP716      0.2189
     18  O1A       -4.4670   13.8330  149.5560 O.3   716  DCP716     -0.4371
     19  O2A       -6.3300   15.2780  148.3260 O.2   716  DCP716     -0.5170
     20  O3A       -5.4170   16.0950  150.3390 O.3   716  DCP716     -0.2700
     21  PB        -6.7600   15.7650  151.1430 P.3   716  DCP716      0.2277
     22  O1B       -7.7830   15.1540  150.2290 O.2   716  DCP716     -0.5168
     23  O2B       -6.4160   15.2510  152.5180 O.3   716  DCP716     -0.4368
     24  O3B       -7.1170   17.2620  151.4980 O.3   716  DCP716     -0.2258
     25  PG        -8.2380   17.9570  150.6350 P.3   716  DCP716      0.5373
     26  O1G       -9.4110   17.0700  150.8980 O.3   716  DCP716     -0.1143
     27  O2G       -7.9840   19.2200  151.3540 O.3   716  DCP716     -0.1143
     28  O3G       -7.8850   18.1110  149.2060 O.2   716  DCP716     -0.2221
@<TRIPOS>BOND
     1    14    11    1
     2    11    10    1
     3    11    12    1
     4    10     9    1
     5    12    15    1
     6    12    13    1
     7    15    16    1
     8    19    17    2
     9     9    13    1
    10     9     1    1
    11    16    17    1
    12    17    18    1
    13    17    20    1
    14    28    25    2
    15     7     2    2
    16     1     2   am
    17     1     6    1
    18    22    21    2
    19     2     3    2
    20    20    21    1
    21     6     5    2
    22    25    26    1
    23    25    27    1
    24    25    24    1
    25    21    24    1
    26    21    23    1
    27     3     4    2
    28     5     4    1
    29     4     8    1
