@<TRIPOS>MOLECULE
1peq_TTP_A_1.pdb
 29 30 0 0 0
SMALL
GASTEIGER

@<TRIPOS>ATOM
      1  PA        -4.8730   15.1790  149.2240 P.3   716  TTP716      0.2189
      2  O1A       -4.2040   14.0180  149.9010 O.3   716  TTP716     -0.4371
      3  O2A       -6.0520   15.0660  148.3030 O.2   716  TTP716     -0.5170
      4  O3A       -5.5320   16.1170  150.3210 O.3   716  TTP716     -0.2700
      5  PB        -6.7070   15.6390  151.2990 P.3   716  TTP716      0.2277
      6  O1B       -7.7550   14.9120  150.5610 O.2   716  TTP716     -0.5168
      7  O2B       -6.0740   15.2040  152.5960 O.3   716  TTP716     -0.4368
      8  O3B       -7.1960   17.1390  151.6130 O.3   716  TTP716     -0.2258
      9  PG        -8.4330   17.6690  150.7330 P.3   716  TTP716      0.5373
     10  O1G       -9.5060   16.8730  151.4330 O.3   716  TTP716     -0.1143
     11  O2G       -8.2820   19.1400  150.9460 O.3   716  TTP716     -0.1143
     12  O3G       -8.1940   17.4210  149.3130 O.2   716  TTP716     -0.2221
     13  O5'       -3.8200   16.2730  148.6860 O.3   716  TTP716     -0.3112
     14  C5'       -4.3170   17.1620  147.6390 C.3   716  TTP716      0.1812
     15  C4'       -3.2250   18.1110  147.1990 C.3   716  TTP716      0.1773
     16  O4'       -2.5240   18.4890  148.3670 O.3   716  TTP716     -0.3339
     17  C3'       -2.1860   17.4950  146.2870 C.3   716  TTP716      0.1857
     18  O3'       -2.0860   18.2940  145.1000 O.3   716  TTP716     -0.2203
     19  C2'       -0.9040   17.5670  147.0940 C.3   716  TTP716      0.0874
     20  C1'       -1.1570   18.6840  148.0930 C.3   716  TTP716      0.2090
     21  N1        -0.3440   18.5330  149.2930 N.am  716  TTP716     -0.1794
     22  C2         0.7770   19.2440  149.5030 C.1   716  TTP716      0.2844
     23  O2         1.1180   20.1070  148.6390 O.2   716  TTP716     -0.1918
     24  N3         1.5670   19.1240  150.6030 N.2   716  TTP716     -0.2455
     25  C4         1.1530   18.2440  151.5380 C.1   716  TTP716      0.2134
     26  O4         1.8530   18.0970  152.5910 O.2   716  TTP716     -0.2088
     27  C5        -0.0030   17.5640  151.3430 C.2   716  TTP716      0.0891
     28  C5M       -0.3010   16.7050  152.2040 C.3   716  TTP716      0.0462
     29  C6        -0.7520   17.6980  150.2440 C.2   716  TTP716      0.0877
@<TRIPOS>BOND
     1    18    17    1
     2    17    19    1
     3    17    15    1
     4    19    20    1
     5    15    14    1
     6    15    16    1
     7    14    13    1
     8    20    16    1
     9    20    21    1
    10     3     1    2
    11    23    22    2
    12    13     1    1
    13     1     2    1
    14     1     4    1
    15    21    22   am
    16    21    29    1
    17    12     9    2
    18    22    24    2
    19    29    27    2
    20     4     5    1
    21     6     5    2
    22    24    25    2
    23     9    11    1
    24     9    10    1
    25     9     8    1
    26     5     8    1
    27     5     7    1
    28    27    25    1
    29    27    28    1
    30    25    26    2
