@<TRIPOS>MOLECULE
1peu_DTP_A_1.pdb
 30 32 0 0 0
SMALL
GASTEIGER

@<TRIPOS>ATOM
      1  PG        31.2040   41.4880   79.0400 P.3   716  DTP716      0.5373
      2  O1G       31.4370   40.2990   79.9490 O.3   716  DTP716     -0.1143
      3  O2G       29.7340   41.8210   78.9130 O.3   716  DTP716     -0.1143
      4  O3G       31.7380   41.2740   77.6540 O.2   716  DTP716     -0.2221
      5  PB        33.2660   43.0930   79.4400 P.3   716  DTP716      0.2277
      6  O1B       34.1870   41.9690   79.0290 O.2   716  DTP716     -0.5168
      7  O2B       33.6740   43.6490   80.7810 O.3   716  DTP716     -0.4368
      8  O3B       31.8510   42.6830   79.6650 O.3   716  DTP716     -0.2258
      9  PA        34.2090   44.7420   77.4130 P.3   716  DTP716      0.2189
     10  O1A       35.4460   45.2590   78.1140 O.3   716  DTP716     -0.4371
     11  O2A       34.5690   43.6620   76.4290 O.2   716  DTP716     -0.5170
     12  O3A       33.1910   44.2190   78.4280 O.3   716  DTP716     -0.2700
     13  O5'       33.4020   45.7980   76.7030 O.3   716  DTP716     -0.3112
     14  C5'       32.4080   45.2030   75.8860 C.3   716  DTP716      0.1813
     15  C4'       31.3820   46.1810   75.3950 C.3   716  DTP716      0.1795
     16  O4'       30.8610   46.8490   76.5190 O.3   716  DTP716     -0.3155
     17  C3'       31.9300   47.2980   74.5340 C.3   716  DTP716      0.1883
     18  O3'       31.0260   47.4400   73.4510 O.3   716  DTP716     -0.2202
     19  C2'       31.8970   48.5570   75.4000 C.3   716  DTP716      0.1151
     20  C1'       30.8550   48.2570   76.4630 C.3   716  DTP716      0.2873
     21  N9        31.3240   48.5700   77.8030 N.pl3 716  DTP716     -0.1460
     22  C8        31.9870   47.6360   78.4950 C.3   716  DTP716      0.3377
     23  N7        32.3420   48.0830   79.7270 N.2   716  DTP716     -0.2095
     24  C5        31.9090   49.2980   79.8010 C.2   716  DTP716      0.2526
     25  C6        32.0160   50.2090   80.8670 C.2   716  DTP716      0.4393
     26  N6        32.6090   49.8780   81.9220 N.pl3 716  DTP716      0.2180
     27  N1        31.4750   51.4200   80.6960 N.2   716  DTP716      0.0021
     28  C2        30.8350   51.8220   79.5240 C.3   716  DTP716      0.5254
     29  N3        30.7390   50.9320   78.5140 N.2   716  DTP716     -0.0055
     30  C4        31.2320   49.6680   78.5650 C.2   716  DTP716      0.3518
@<TRIPOS>BOND
     1    18    17    1
     2    17    15    1
     3    17    19    1
     4    15    14    1
     5    15    16    1
     6    19    20    1
     7    14    13    1
     8    11     9    2
     9    20    16    1
    10    20    21    1
    11    13     9    1
    12     9    10    1
    13     9    12    1
    14     4     1    2
    15    21    22    1
    16    21    30    1
    17    12     5    1
    18    22    23    1
    19    29    30    2
    20    29    28    1
    21    30    24    1
    22     3     1    1
    23     6     5    2
    24     1     8    1
    25     1     2    1
    26     5     8    1
    27     5     7    1
    28    28    27    1
    29    23    24    2
    30    24    25    1
    31    27    25    2
    32    25    26    1
