@<TRIPOS>MOLECULE
1pez_BGC_A_1.pdb
 12 12 0 0 0
SMALL
GASTEIGER

@<TRIPOS>ATOM
      1  C2        42.3710   84.8940   43.1160 C.3   895  BGC895      0.2434
      2  C3        41.6360   85.9510   43.9360 C.3   895  BGC895      0.2199
      3  C4        41.3860   85.3940   45.3370 C.3   895  BGC895      0.2144
      4  C5        42.7180   84.9670   45.9850 C.3   895  BGC895      0.1836
      5  C6        42.5070   84.2470   47.2980 C.3   895  BGC895      0.2142
      6  C1        43.6910   84.5990   43.8180 C.3   895  BGC895      0.3024
      7  O1        44.4120   83.6730   43.0900 O.3   895  BGC895     -0.1869
      8  O2        42.6110   85.3550   41.7950 O.3   895  BGC895     -0.2148
      9  O3        40.4030   86.2870   43.3180 O.3   895  BGC895     -0.2174
     10  O4        40.7370   86.3920   46.1470 O.3   895  BGC895     -0.2176
     11  O5        43.4330   84.0490   45.1200 O.3   895  BGC895     -0.3236
     12  O6        42.0540   82.9190   47.0810 O.3   895  BGC895     -0.2176
@<TRIPOS>BOND
     1     8     1    1
     2     7     6    1
     3     1     6    1
     4     1     2    1
     5     9     2    1
     6     6    11    1
     7     2     3    1
     8    11     4    1
     9     3     4    1
    10     3    10    1
    11     4     5    1
    12    12     5    1
