@<TRIPOS>MOLECULE
1pez_GLC_A_1.pdb
 11 11 0 0 0
SMALL
GASTEIGER

@<TRIPOS>ATOM
      1  C1        39.5650   85.9550   46.7780 C.3   896  GLC896      0.1777
      2  C2        38.3880   86.8830   46.4240 C.3   896  GLC896      0.2141
      3  C3        38.5370   88.2420   47.1170 C.3   896  GLC896      0.2173
      4  C4        38.7360   88.0460   48.6270 C.3   896  GLC896      0.2142
      5  C5        39.9280   87.1130   48.8720 C.3   896  GLC896      0.1810
      6  C6        40.1520   86.8070   50.3410 C.3   896  GLC896      0.2141
      7  O2        38.3270   87.0720   45.0170 O.3   896  GLC896     -0.2176
      8  O3        37.3780   89.0270   46.8770 O.3   896  GLC896     -0.2175
      9  O4        38.9720   89.3000   49.2500 O.3   896  GLC896     -0.2176
     10  O5        39.7150   85.8520   48.1960 O.3   896  GLC896     -0.3481
     11  O6        38.9640   86.3310   50.9530 O.3   896  GLC896     -0.2176
@<TRIPOS>BOND
     1     7     2    1
     2     2     1    1
     3     2     3    1
     4     1    10    1
     5     8     3    1
     6     3     4    1
     7    10     5    1
     8     4     5    1
     9     4     9    1
    10     5     6    1
    11     6    11    1
