@<TRIPOS>MOLECULE
1pez_MAL_A_1.pdb
 23 24 0 0 0
SMALL
GASTEIGER

@<TRIPOS>ATOM
      1  C1        62.2800   97.4800    9.7200 C.3   887  MAL887      0.2695
      2  C2        62.8270   96.5350   10.8090 C.3   887  MAL887      0.2406
      3  C3        64.3210   96.3500   10.6360 C.3   887  MAL887      0.2198
      4  C4        64.5810   95.8060    9.2400 C.3   887  MAL887      0.2144
      5  C5        64.0210   96.7730    8.1830 C.3   887  MAL887      0.1835
      6  C6        64.2130   96.3160    6.8080 C.3   887  MAL887      0.2142
      7  O1        62.8470   98.7740    9.8940 O.3   887  MAL887     -0.3257
      8  O2        62.5830   97.0240   12.1260 O.3   887  MAL887     -0.2149
      9  O3        64.8230   95.4600   11.6360 O.3   887  MAL887     -0.2174
     10  O4        65.9790   95.6840    8.9990 O.3   887  MAL887     -0.2176
     11  O5        62.5860   96.9860    8.3880 O.3   887  MAL887     -0.3256
     12  O6        63.6780   97.2540    5.8600 O.3   887  MAL887     -0.2176
     13  C1'       61.5820  102.7930   10.1370 C.3   887  MAL887      0.3023
     14  C2'       61.0800  101.8410   11.2130 C.3   887  MAL887      0.2433
     15  C3'       61.9930  100.6110   11.2630 C.3   887  MAL887      0.2168
     16  C4'       61.9870   99.9390    9.8890 C.3   887  MAL887      0.1804
     17  C5'       62.4960  100.9290    8.8120 C.3   887  MAL887      0.1804
     18  C6'       62.4500  100.2860    7.4410 C.3   887  MAL887      0.2141
     19  O1'       62.8340  103.2860   10.4980 O.3   887  MAL887     -0.1869
     20  O2'       61.0590  102.5070   12.4870 O.3   887  MAL887     -0.2148
     21  O3'       61.5120   99.7130   12.2550 O.3   887  MAL887     -0.2175
     22  O5'       61.6170  102.0850    8.8630 O.3   887  MAL887     -0.3237
     23  O6'       62.9060  101.1970    6.4430 O.3   887  MAL887     -0.2176
@<TRIPOS>BOND
     1    12     6    1
     2    23    18    1
     3     6     5    1
     4    18    17    1
     5     5    11    1
     6     5     4    1
     7    11     1    1
     8    17    22    1
     9    17    16    1
    10    22    13    1
    11    10     4    1
    12     4     3    1
    13     1     7    1
    14     1     2    1
    15    16     7    1
    16    16    15    1
    17    13    19    1
    18    13    14    1
    19     3     2    1
    20     3     9    1
    21     2     8    1
    22    14    15    1
    23    14    20    1
    24    15    21    1
