@<TRIPOS>MOLECULE
1pf7_IMH_E_1.pdb
 19 21 0 0 0
SMALL
GASTEIGER

@<TRIPOS>ATOM
      1  O5'       50.7250   49.1780   30.2700 O.3   290  IMH290     -0.2188
      2  C5'       49.9610   48.4690   31.2770 C.3   290  IMH290      0.2020
      3  C4'       50.4620   47.0280   31.5790 C.3   290  IMH290      0.1389
      4  N4'       50.5330   46.4580   30.2090 N.3   290  IMH290     -0.2083
      5  C3'       51.9050   46.8660   32.1680 C.3   290  IMH290      0.2023
      6  O3'       51.9490   46.0500   33.4030 O.3   290  IMH290     -0.2188
      7  C2'       52.8020   46.2210   31.0060 C.3   290  IMH290      0.2036
      8  O2'       53.4170   44.9330   31.3720 O.3   290  IMH290     -0.2185
      9  C1'       51.8770   46.0030   29.8050 C.3   290  IMH290      0.1309
     10  C9        52.2990   46.8140   28.4380 C.2   290  IMH290      0.0348
     11  C8        51.4230   47.4420   27.6030 C.2   290  IMH290      0.0984
     12  N7        52.1450   48.0550   26.5000 N.2   290  IMH290     -0.2310
     13  C5        53.5140   47.7290   26.7660 C.2   290  IMH290      0.1804
     14  C6        54.6950   48.1150   25.9440 C.1   290  IMH290      0.1716
     15  O6        54.7180   48.7860   24.8860 O.2   290  IMH290     -0.2206
     16  N1        55.8760   47.6050   26.5400 N.2   290  IMH290     -0.1739
     17  C2        55.9600   46.8450   27.7290 C.3   290  IMH290      0.2626
     18  N3        54.8430   46.5420   28.4090 N.2   290  IMH290     -0.2415
     19  C4        53.6470   46.9970   27.9030 C.2   290  IMH290      0.1059
@<TRIPOS>BOND
     1    15    14    2
     2    14    16    2
     3    14    13    1
     4    12    13    2
     5    12    11    1
     6    16    17    1
     7    13    19    1
     8    11    10    2
     9    17    18    1
    10    19    18    2
    11    19    10    1
    12    10     9    1
    13     9     4    1
    14     9     7    1
    15     4     3    1
    16     1     2    1
    17     7     8    1
    18     7     5    1
    19     2     3    1
    20     3     5    1
    21     5     6    1
