@<TRIPOS>MOLECULE
1pf8_SU9_A_1.pdb
 18 20 0 0 0
SMALL
GASTEIGER

@<TRIPOS>ATOM
      1  N5'        3.9010   30.3180    7.2150 N.2   500  SU9500     -0.2539
      2  C4'        5.0560   29.6930    6.6410 C.3   500  SU9500      0.2151
      3  N3'        5.1700   28.2990    7.2690 N.3   500  SU9500     -0.1871
      4  C2'        4.1160   28.2410    8.3880 C.3   500  SU9500      0.1359
      5  C1'        3.2290   29.4650    8.1890 C.2   500  SU9500      0.0737
      6  C6'        2.3110   29.6900    8.8500 C.2   500  SU9500      0.0285
      7  C9         1.5050   30.8550    8.6340 C.2   500  SU9500      0.0982
      8  C8         1.6200   31.9830    7.7530 C.1   500  SU9500      0.2044
      9  O10        2.4970   32.1600    6.9410 O.2   500  SU9500     -0.2093
     10  N7         0.6670   32.8760    7.8810 N.2   500  SU9500     -0.3370
     11  C5        -0.1540   32.3890    8.8880 C.2   500  SU9500      0.1272
     12  C6        -1.3500   32.9570    9.4550 C.3   500  SU9500      0.0891
     13  C1        -2.0130   32.2650   10.4960 C.2   500  SU9500      0.0182
     14  C2        -1.5600   31.0620   10.9950 C.2   500  SU9500      0.1350
     15  O11       -2.1500   30.4340   11.9360 O.2   500  SU9500     -0.4717
     16  C12       -1.7770   29.3650   12.4060 C.3   500  SU9500      0.2525
     17  C3        -0.2420   30.4020   10.3910 C.2   500  SU9500      0.0396
     18  C4         0.3260   31.1690    9.3710 C.2   500  SU9500      0.0416
@<TRIPOS>BOND
     1     2     1    1
     2     2     3    1
     3     9     8    2
     4     1     5    2
     5     3     4    1
     6     8    10    2
     7     8     7    1
     8    10    11    2
     9     5     4    1
    10     5     6    1
    11     7     6    2
    12     7    18    1
    13    11    18    1
    14    11    12    1
    15    18    17    2
    16    12    13    1
    17    17    14    1
    18    13    14    2
    19    14    15    1
    20    15    16    1
