@<TRIPOS>MOLECULE
1pf9_ADP_A_1.pdb
 27 29 0 0 0
SMALL
GASTEIGER

@<TRIPOS>ATOM
      1  PB        32.4090  -44.0820  -18.0370 P.3   700  ADP700      0.5373
      2  O1B       31.5430  -43.7280  -19.2120 O.2   700  ADP700     -0.2221
      3  O2B       32.2580  -45.5080  -17.4650 O.3   700  ADP700     -0.1143
      4  O3B       33.9120  -43.8070  -18.4630 O.3   700  ADP700     -0.1143
      5  PA        31.6870  -41.6440  -16.9980 P.3   700  ADP700      0.2231
      6  O1A       32.1530  -40.8790  -15.8340 O.3   700  ADP700     -0.4370
      7  O2A       32.2500  -41.2880  -18.3990 O.2   700  ADP700     -0.5169
      8  O3A       31.9700  -43.1950  -16.7480 O.3   700  ADP700     -0.2261
      9  O5'       30.1080  -41.6720  -17.0580 O.3   700  ADP700     -0.3111
     10  C5'       29.5680  -41.7110  -15.7770 C.3   700  ADP700      0.1813
     11  C4'       28.1780  -42.2980  -15.5770 C.3   700  ADP700      0.1821
     12  O4'       27.5490  -41.3520  -14.7700 O.3   700  ADP700     -0.3135
     13  C3'       27.2760  -42.4810  -16.7700 C.3   700  ADP700      0.2184
     14  O3'       26.9510  -43.8270  -16.6900 O.3   700  ADP700     -0.2174
     15  C2'       25.9800  -41.7430  -16.4830 C.3   700  ADP700      0.2570
     16  O2'       24.9220  -42.6490  -16.3000 O.3   700  ADP700     -0.2130
     17  C1'       26.2100  -41.1460  -15.1240 C.3   700  ADP700      0.3186
     18  N9        25.8430  -39.7340  -15.0530 N.pl3 700  ADP700     -0.1439
     19  C8        26.0890  -38.7220  -15.9180 C.3   700  ADP700      0.3377
     20  N7        25.5030  -37.6170  -15.3920 N.2   700  ADP700     -0.2095
     21  C5        24.8830  -37.9310  -14.2160 C.2   700  ADP700      0.2526
     22  C6        24.1510  -37.2260  -13.2320 C.2   700  ADP700      0.4393
     23  N6        23.6270  -36.0290  -13.4340 N.pl3 700  ADP700      0.2180
     24  N1        23.6890  -37.8640  -12.1120 N.2   700  ADP700      0.0021
     25  C2        23.9370  -39.2070  -11.9340 C.3   700  ADP700      0.5254
     26  N3        24.6510  -39.8920  -12.8920 N.2   700  ADP700     -0.0055
     27  C4        25.1130  -39.2690  -14.0020 C.2   700  ADP700      0.3518
@<TRIPOS>BOND
     1     2     1    2
     2     4     1    1
     3     7     5    2
     4     1     3    1
     5     1     8    1
     6     9     5    1
     7     9    10    1
     8     5     8    1
     9     5     6    1
    10    13    14    1
    11    13    15    1
    12    13    11    1
    13    15    16    1
    14    15    17    1
    15    19    20    1
    16    19    18    1
    17    10    11    1
    18    11    12    1
    19    20    21    2
    20    17    18    1
    21    17    12    1
    22    18    27    1
    23    21    27    1
    24    21    22    1
    25    27    26    2
    26    23    22    1
    27    22    24    2
    28    26    25    1
    29    24    25    1
