@<TRIPOS>MOLECULE
1pfg_III_B_1.pdb
 33 35 0 0 0
SMALL
GASTEIGER

@<TRIPOS>ATOM
      1  C        -25.9450   23.0510   18.7700 C.2   280  ACE280      0.2302
      2  O        -24.7200   22.9790   18.5120 O.2   280  ACE280     -0.2745
      3  CH3      -26.5370   24.3440   19.3730 C.3   280  ACE280      0.0952
      4  N        -26.7960   22.0290   18.5540 N.am  281  PRO281     -0.2504
      5  CA       -26.3500   20.7770   17.9180 C.3   281  PRO281      0.1618
      6  C        -25.7890   21.1410   16.5100 C.2   281  PRO281      0.2605
      7  O        -26.5060   21.9720   15.8880 O.2   281  PRO281     -0.2715
      8  CB       -27.6350   19.9280   17.8630 C.3   281  PRO281      0.0570
      9  CG       -28.7870   20.7270   18.5330 C.2   281  PRO281     -0.0077
     10  CD       -28.2380   22.0370   18.9190 C.2   281  PRO281      0.0634
     11  N        -24.6210   20.6150   16.0280 N.am  282  ALA282     -0.1964
     12  CA       -23.9880   21.0830   14.7170 C.3   282  ALA282      0.1714
     13  C        -23.1170   20.1510   13.7820 C.2   282  ALA282      0.2463
     14  O        -23.5690   19.8040   12.6910 O.2   282  ALA282     -0.2730
     15  CB       -23.1840   22.3630   14.9700 C.3   282  ALA282      0.0333
     16  N        -21.8670   19.8040   14.1580 N.am  283  PRO283     -0.2641
     17  CA       -20.9830   19.0330   13.2600 C.3   283  PRO283      0.1762
     18  C        -21.5390   17.6860   12.9350 C.2   283  PRO283      0.2641
     19  O        -21.7250   16.8290   13.8290 O.2   283  PRO283     -0.2712
     20  CB       -19.6970   18.7980   14.0750 C.2   283  PRO283     -0.0003
     21  CG       -19.8560   19.4630   15.3740 C.2   283  PRO283     -0.0071
     22  CD       -21.2230   20.0900   15.4590 C.3   283  PRO283      0.1204
     23  N        -21.8280   17.5660   11.6300 N.am  284  PHE284     -0.1971
     24  CA       -22.3030   16.2660   11.2250 C.3   284  PHE284      0.1640
     25  C        -21.6700   15.6490    9.9010 C.2   284  PHE284      0.2290
     26  O        -22.2130   15.4760    8.8230 O.2   284  PHE284     -0.2864
     27  CB       -23.7900   16.4540   10.7820 C.3   284  PHE284      0.0560
     28  CG       -24.6430   16.8400   12.0390 C.ar  284  PHE284     -0.0200
     29  CD1      -23.9670   16.9410   13.2610 C.ar  284  PHE284     -0.0042
     30  CD2      -26.0140   17.1070   12.0440 C.ar  284  PHE284     -0.0042
     31  CE1      -24.6270   17.2810   14.4370 C.ar  284  PHE284     -0.0003
     32  CE2      -26.6870   17.4470   13.2380 C.ar  284  PHE284     -0.0003
     33  CZ       -25.9890   17.5440   14.4310 C.ar  284  PHE284     -0.0000
@<TRIPOS>BOND
     1    26    25    2
     2    25    24    1
     3    27    24    1
     4    27    28    1
     5    24    23    1
     6    23    18   am
     7    28    30   ar
     8    28    29   ar
     9    30    32   ar
    10    14    13    2
    11    18    17    1
    12    18    19    2
    13    32    33   ar
    14    17    20    1
    15    17    16    1
    16    29    31   ar
    17    13    16   am
    18    13    12    1
    19    20    21    2
    20    16    22    1
    21    33    31   ar
    22    12    15    1
    23    12    11    1
    24    21    22    1
    25     7     6    2
    26    11     6   am
    27     6     5    1
    28     8     5    1
    29     8     9    1
    30     5     4    1
    31     2     1    2
    32     9    10    2
    33     4     1   am
    34     4    10    1
    35     1     3    1
