@<TRIPOS>MOLECULE
1pfk_ADP_A_1.pdb
 27 29 0 0 0
SMALL
GASTEIGER

@<TRIPOS>ATOM
      1  PB         6.8900   23.5150   11.3020 P.3   324  ADP324      0.5373
      2  O1B        7.8980   23.4210   12.3790 O.3   324  ADP324     -0.1143
      3  O2B        7.5370   24.0610   10.0840 O.2   324  ADP324     -0.2221
      4  O3B        6.1650   22.2560   11.0510 O.3   324  ADP324     -0.1143
      5  PA         5.4590   25.9700   12.3170 P.3   324  ADP324      0.2231
      6  O1A        6.0220   27.0480   11.4530 O.2   324  ADP324     -0.5169
      7  O2A        4.0080   26.2400   12.5100 O.3   324  ADP324     -0.4370
      8  O3A        5.7210   24.5110   11.7230 O.3   324  ADP324     -0.2261
      9  O5'        6.2100   25.9750   13.7120 O.3   324  ADP324     -0.3111
     10  C5'        5.9880   25.0840   14.8280 C.3   324  ADP324      0.1813
     11  C4'        6.1730   25.7500   16.1670 C.3   324  ADP324      0.1821
     12  O4'        7.5230   26.2710   16.3910 O.3   324  ADP324     -0.3135
     13  C3'        5.2890   26.9840   16.4270 C.3   324  ADP324      0.2184
     14  O3'        3.9410   26.6220   16.6070 O.3   324  ADP324     -0.2174
     15  C2'        5.9710   27.5060   17.6960 C.3   324  ADP324      0.2570
     16  O2'        5.6550   26.7440   18.8460 O.3   324  ADP324     -0.2130
     17  C1'        7.4570   27.3510   17.3070 C.3   324  ADP324      0.3186
     18  N9         7.9620   28.5730   16.6640 N.pl3 324  ADP324     -0.1439
     19  C8         7.7480   28.9900   15.3740 C.3   324  ADP324      0.3377
     20  N7         8.3110   30.1520   15.1120 N.2   324  ADP324     -0.2095
     21  C5         8.9230   30.5170   16.2890 C.2   324  ADP324      0.2526
     22  C6         9.6780   31.6500   16.6520 C.2   324  ADP324      0.4393
     23  N6         9.9580   32.6500   15.8270 N.pl3 324  ADP324      0.2180
     24  N1        10.1540   31.6940   17.9190 N.2   324  ADP324      0.0021
     25  C2         9.8600   30.6660   18.7710 C.3   324  ADP324      0.5254
     26  N3         9.1640   29.5920   18.5440 N.2   324  ADP324     -0.0055
     27  C4         8.7180   29.5630   17.2660 C.2   324  ADP324      0.3518
@<TRIPOS>BOND
     1     3     1    2
     2     4     1    1
     3     1     8    1
     4     1     2    1
     5     6     5    2
     6     8     5    1
     7     5     7    1
     8     5     9    1
     9     9    10    1
    10    10    11    1
    11    20    19    1
    12    20    21    2
    13    19    18    1
    14    23    22    1
    15    11    12    1
    16    11    13    1
    17    21    22    1
    18    21    27    1
    19    12    17    1
    20    13    14    1
    21    13    15    1
    22    22    24    2
    23    18    27    1
    24    18    17    1
    25    27    26    2
    26    17    15    1
    27    15    16    1
    28    24    25    1
    29    26    25    1
