@<TRIPOS>MOLECULE
1pfk_FBP_A_1.pdb
 20 20 0 0 0
SMALL
GASTEIGER

@<TRIPOS>ATOM
      1  P1         4.8290   22.2600    7.7710 P.3   323  FBP323      0.5328
      2  O1P        5.5060   20.9680    8.0200 O.3   323  FBP323     -0.1145
      3  O2P        5.8330   23.3380    7.6910 O.2   323  FBP323     -0.2224
      4  O3P        3.8440   22.5780    8.8430 O.3   323  FBP323     -0.1145
      5  O1         4.0430   22.1490    6.3950 O.3   323  FBP323     -0.2648
      6  C1         3.2600   21.0020    6.0890 C.3   323  FBP323      0.2152
      7  C2         1.8810   21.4740    5.6100 C.3   323  FBP323      0.2780
      8  O2         1.0570   20.3400    5.3310 O.3   323  FBP323     -0.1897
      9  C3         1.9560   22.4260    4.4020 C.3   323  FBP323      0.2408
     10  O3         2.1970   21.7670    3.1780 O.3   323  FBP323     -0.2149
     11  C4         0.5680   23.0450    4.4180 C.3   323  FBP323      0.2167
     12  O4         0.5600   24.3520    3.8510 O.3   323  FBP323     -0.2175
     13  C5         0.3260   23.1620    5.9270 C.3   323  FBP323      0.1808
     14  O5         1.2270   22.2680    6.6280 O.3   323  FBP323     -0.3255
     15  C6        -1.1060   22.8460    6.2940 C.3   323  FBP323      0.1859
     16  O6        -1.3390   23.4220    7.5770 O.3   323  FBP323     -0.2675
     17  P2        -2.3470   22.6880    8.5640 P.3   323  FBP323      0.5327
     18  O4P       -2.2820   23.3680    9.8630 O.3   323  FBP323     -0.1145
     19  O5P       -3.6970   22.7570    7.9660 O.2   323  FBP323     -0.2224
     20  O6P       -1.9040   21.2870    8.7430 O.3   323  FBP323     -0.1145
@<TRIPOS>BOND
     1    10     9    1
     2    12    11    1
     3     9    11    1
     4     9     7    1
     5    11    13    1
     6     8     7    1
     7     7     6    1
     8     7    14    1
     9    13    15    1
    10    13    14    1
    11     6     5    1
    12    15    16    1
    13     5     1    1
    14    16    17    1
    15     3     1    2
    16     1     2    1
    17     1     4    1
    18    19    17    2
    19    17    20    1
    20    17    18    1
