@<TRIPOS>MOLECULE
1pfv_2FM_A_1.pdb
 11 10 0 0 0
SMALL
GASTEIGER

@<TRIPOS>ATOM
      1  O         15.7340   10.3010   21.4800 O.co2 553  2FM553     -0.2441
      2  C         15.1450   11.1180   20.7660 C.2   553  2FM553      0.3819
      3  OXT       15.2910   12.3260   20.8660 O.co2 553  2FM553     -0.2441
      4  CA        14.1730   10.5800   19.7190 C.3   553  2FM553      0.1952
      5  N         14.5760    9.1980   19.5810 N.3   553  2FM553     -0.1208
      6  CB        12.7170   10.7160   20.1790 C.3   553  2FM553      0.0424
      7  CG        11.7110   10.1970   19.1550 C.3   553  2FM553      0.0649
      8  SD        10.0510   10.4190   19.8130 S.3   553  2FM553     -0.0711
      9  CE         9.0030    9.9710   18.3920 C.3   553  2FM553      0.3668
     10  FZ1        9.4220    8.8060   17.8960 F     553  2FM553     -0.1856
     11  FZ2        9.1340   10.9110   17.4520 F     553  2FM553     -0.1856
@<TRIPOS>BOND
     1    11     9    1
     2    10     9    1
     3     9     8    1
     4     7     8    1
     5     7     6    1
     6     5     4    1
     7     4     6    1
     8     4     2    1
     9     2     3   ar
    10     2     1   ar
