@<TRIPOS>MOLECULE
1pfw_MF3_A_1.pdb
 12 11 0 0 0
SMALL
GASTEIGER

@<TRIPOS>ATOM
      1  N         14.6790    9.2710   19.6320 N.3   553  MF3553     -0.1208
      2  CA        14.2260   10.6290   20.0300 C.3   553  MF3553      0.1952
      3  C         14.9770   11.1900   21.2120 C.2   553  MF3553      0.3819
      4  O         15.0710   12.4200   21.2400 O.co2 553  MF3553     -0.2441
      5  CB        12.7390   10.7310   20.4190 C.3   553  MF3553      0.0425
      6  CG        11.8060   10.2070   19.3740 C.3   553  MF3553      0.0675
      7  SD        10.0730   10.4950   19.8200 S.3   553  MF3553     -0.0414
      8  CE         9.4100   10.3770   18.1990 C.3   553  MF3553      0.4438
      9  OXT       15.4270   10.3770   22.0530 O.co2 553  MF3553     -0.2441
     10  FZ1       10.0330   11.3470   17.4580 F     553  MF3553     -0.1602
     11  FZ2        8.0890   10.6380   18.3030 F     553  MF3553     -0.1602
     12  FZ3        9.4870    9.0570   17.8740 F     553  MF3553     -0.1602
@<TRIPOS>BOND
     1    10     8    1
     2    12     8    1
     3     8    11    1
     4     8     7    1
     5     6     7    1
     6     6     5    1
     7     1     2    1
     8     2     5    1
     9     2     3    1
    10     3     4   ar
    11     3     9   ar
