@<TRIPOS>MOLECULE
1pfx_0G6_C_1.pdb
 38 39 0 0 0
SMALL
GASTEIGER

@<TRIPOS>ATOM
      1  N        120.9800  176.4640   96.4590 N.4   301  0G6301      0.3876
      2  CA       120.8570  176.7020   97.9170 C.3   301  0G6301      0.0175
      3  C        121.2830  175.4830   98.7020 C.2   301  0G6301      0.2057
      4  O        122.3880  174.9740   98.5080 O.2   301  0G6301     -0.2771
      5  CB       121.6830  177.9100   98.3330 C.3   301  0G6301      0.0134
      6  CG       120.8530  179.0760   98.7370 C.ar  301  0G6301     -0.0238
      7  CD1      120.2180  179.8530   97.7790 C.ar  301  0G6301     -0.0043
      8  CD2      120.6700  179.3790  100.0780 C.ar  301  0G6301     -0.0043
      9  CE1      119.4100  180.9160   98.1480 C.ar  301  0G6301     -0.0003
     10  CE2      119.8640  180.4380  100.4580 C.ar  301  0G6301     -0.0003
     11  CZ       119.2320  181.2100   99.4920 C.ar  301  0G6301     -0.0000
     12  N1       120.4260  175.0160   99.6250 N.am  301  0G6301     -0.2747
     13  CA1      120.7670  173.8380  100.4190 C.3   301  0G6301      0.1517
     14  C1       120.7010  172.6230   99.5090 C.2   301  0G6301      0.2406
     15  O1       119.8910  172.5940   98.5820 O.2   301  0G6301     -0.2733
     16  CB1      119.6760  173.8260  101.4930 C.3   301  0G6301      0.0310
     17  CG1      118.5100  174.3850  100.7820 C.3   301  0G6301      0.0237
     18  CD       119.1050  175.5410  100.0130 C.3   301  0G6301      0.0938
     19  N2       121.5860  171.6570   99.7420 N.am  301  0G6301     -0.3020
     20  CA2      121.6300  170.4500   98.9340 C.3   301  0G6301      0.1046
     21  C2       121.1760  169.2340   99.7240 C.3   301  0G6301      0.2014
     22  O2       120.8830  168.3370   98.6240 O.3   301  0G6301     -0.2186
     23  CB2      123.0480  170.2140   98.3960 C.3   301  0G6301      0.0258
     24  CG2      123.5620  171.2990   97.4760 C.3   301  0G6301      0.0446
     25  CD3      124.7990  171.9860   98.0460 C.3   301  0G6301      0.1739
     26  NE       125.3960  172.9320   97.1000 N.pl3 301  0G6301     -0.2651
     27  CZ1      126.7040  173.0640   96.9020 C.cat 301  0G6301      0.3417
     28  NH1      127.1560  173.9100   95.9860 N.pl3 301  0G6301     -0.2918
     29  NH2      127.5640  172.3200   97.5900 N.pl3 301  0G6301     -0.2918
     30  H3       121.9690  176.2150   96.2570 H     301  0G6301     -0.0886
     31  H        120.3680  175.6380   96.3530 H     301  0G6301     -0.0886
     32  H2       120.6060  177.2740   95.9330 H     301  0G6301     -0.0886
     33  H1       122.2490  171.7300  100.4640 H     301  0G6301      0.1495
     34  HE       124.7710  173.4860   96.5810 H     301  0G6301      0.2586
     35 HH11      128.1300  174.0100   95.8050 H     301  0G6301      0.2545
     36 HH12      126.5630  174.4680   95.3870 H     301  0G6301      0.2545
     37 HH21      127.2350  171.6510   98.2600 H     301  0G6301      0.2545
     38 HH22      128.5540  172.3650   97.4680 H     301  0G6301      0.2545
@<TRIPOS>BOND
     1    36    28    1
     2    35    28    1
     3    32     1    1
     4    28    27    2
     5    30     1    1
     6    31     1    1
     7     1     2    1
     8    34    26    1
     9    27    26    1
    10    27    29    1
    11    26    25    1
    12    38    29    1
    13    24    25    1
    14    24    23    1
    15    29    37    1
    16     7     9   ar
    17     7     6   ar
    18     2     5    1
    19     2     3    1
    20     9    11   ar
    21     5     6    1
    22    23    20    1
    23     4     3    2
    24    15    14    2
    25    22    21    1
    26     3    12   am
    27     6     8   ar
    28    20    21    1
    29    20    19    1
    30    11    10   ar
    31    14    19   am
    32    14    13    1
    33    12    18    1
    34    12    13    1
    35    19    33    1
    36    18    17    1
    37     8    10   ar
    38    13    16    1
    39    17    16    1
