@<TRIPOS>MOLECULE
1pfy_MSP_A_1.pdb
 31 33 0 0 0
SMALL
GASTEIGER

@<TRIPOS>ATOM
      1  N2        14.5910    9.0130   19.4400 N.3   553  MSP553     -0.1230
      2  CA        14.2100   10.3800   19.8280 C.3   553  MSP553      0.1718
      3  CB        12.7120   10.5500   20.1730 C.3   553  MSP553      0.0401
      4  CG        11.7250    9.9970   19.1310 C.3   553  MSP553      0.0596
      5  SD        10.0470   10.3030   19.7020 S.3   553  MSP553     -0.1393
      6  CE         9.1100    9.7460   18.2620 C.3   553  MSP553      0.0692
      7  C9        15.0490   10.7980   21.0490 C.2   553  MSP553      0.2798
      8  N8        15.6200    9.7380   21.6860 N.am  553  MSP553     -0.0577
      9  S1        16.4990   10.0520   23.0040 S.3   553  MSP553      0.0852
     10  O1S       16.7810    8.7150   23.4640 O.3   553  MSP553     -0.0508
     11  O2S       17.6150   10.8830   22.6730 O.3   553  MSP553     -0.0508
     12  O5'       15.5980   10.7810   24.0710 O.3   553  MSP553     -0.2230
     13  C5'       14.4220   10.1500   24.5900 C.3   553  MSP553      0.2064
     14  C4'       13.7550   11.1010   25.5890 C.3   553  MSP553      0.1842
     15  O4'       14.6540   11.2180   26.6800 O.3   553  MSP553     -0.3135
     16  C3'       13.5760   12.5240   25.0160 C.3   553  MSP553      0.2185
     17  O3'       12.2070   12.8910   25.1750 O.3   553  MSP553     -0.2174
     18  C2'       14.5120   13.3740   25.8620 C.3   553  MSP553      0.2570
     19  O2'       14.0200   14.6940   25.9940 O.3   553  MSP553     -0.2130
     20  C1'       14.6640   12.5580   27.1470 C.3   553  MSP553      0.3186
     21  N9        15.9490   12.8460   27.8080 N.pl3 553  MSP553     -0.1439
     22  C8        17.2180   12.5980   27.3900 C.3   553  MSP553      0.3377
     23  N7        18.1640   13.0080   28.2590 N.2   553  MSP553     -0.2095
     24  C5        17.4700   13.5720   29.3120 C.2   553  MSP553      0.2526
     25  C6        17.8080   14.1680   30.5080 C.2   553  MSP553      0.4393
     26  N6        19.0920   14.3220   30.8670 N.pl3 553  MSP553      0.2180
     27  N1        16.8550   14.6330   31.3590 N.2   553  MSP553      0.0021
     28  C2        15.5410   14.5040   31.0370 C.3   553  MSP553      0.5254
     29  N3        15.1130   13.9280   29.8850 N.2   553  MSP553     -0.0055
     30  C4        16.0780   13.4710   29.0340 C.2   553  MSP553      0.3518
     31  O1        15.0680   11.9840   21.3560 O.2   553  MSP553     -0.2701
@<TRIPOS>BOND
     1     6     5    1
     2     4     5    1
     3     4     3    1
     4     1     2    1
     5     2     3    1
     6     2     7    1
     7     7    31    2
     8     7     8   am
     9     8     9    1
    10    11     9    1
    11     9    10    1
    12     9    12    1
    13    12    13    1
    14    13    14    1
    15    16    17    1
    16    16    14    1
    17    16    18    1
    18    14    15    1
    19    18    19    1
    20    18    20    1
    21    15    20    1
    22    20    21    1
    23    22    21    1
    24    22    23    1
    25    21    30    1
    26    23    24    2
    27    30    24    1
    28    30    29    2
    29    24    25    1
    30    29    28    1
    31    25    26    1
    32    25    27    2
    33    28    27    1
