@<TRIPOS>MOLECULE
1pg0_MOD_A_1.pdb
 30 32 0 0 0
SMALL
GASTEIGER

@<TRIPOS>ATOM
      1  N2        13.5190    8.1690   19.7240 N.3   553  MOD553     -0.1302
      2  CA        13.0350    9.5080   20.1160 C.3   553  MOD553      0.1226
      3  CB        11.5370    9.5750   20.4650 C.3   553  MOD553      0.0332
      4  CG        10.5640    9.1060   19.3760 C.3   553  MOD553      0.0592
      5  SD         8.9030    9.2910   20.0240 S.3   553  MOD553     -0.1393
      6  CE         7.9310    8.7010   18.6150 C.3   553  MOD553      0.0692
      7  C9        13.8190   10.0120   21.3420 C.3   553  MOD553      0.1680
      8  O1        14.3720    8.9950   22.0660 O.3   553  MOD553     -0.3125
      9  P1        15.2040    9.3700   23.3870 P.3   553  MOD553      0.2141
     10  O1S       15.6100    8.0610   23.8170 O.3   553  MOD553     -0.4373
     11  O2S       16.2750   10.2850   23.0530 O.2   553  MOD553     -0.5172
     12  O5'       14.2340   10.0130   24.4510 O.3   553  MOD553     -0.3114
     13  C5'       13.0750    9.3080   24.9530 C.3   553  MOD553      0.1813
     14  C4'       12.3500   10.2310   25.9460 C.3   553  MOD553      0.1821
     15  O4'       13.2490   10.3450   27.0450 O.3   553  MOD553     -0.3135
     16  C3'       12.1610   11.6540   25.3770 C.3   553  MOD553      0.2184
     17  O3'       10.7800   11.9990   25.5070 O.3   553  MOD553     -0.2174
     18  C2'       13.0810   12.5110   26.2280 C.3   553  MOD553      0.2570
     19  O2'       12.6260   13.8360   26.3770 O.3   553  MOD553     -0.2130
     20  C1'       13.2520   11.6850   27.5100 C.3   553  MOD553      0.3186
     21  N9        14.5430   12.0170   28.1260 N.pl3 553  MOD553     -0.1439
     22  C8        15.8170   11.8250   27.6650 C.3   553  MOD553      0.3377
     23  N7        16.7700   12.2710   28.5010 N.2   553  MOD553     -0.2095
     24  C5        16.0870   12.7880   29.5780 C.2   553  MOD553      0.2526
     25  C6        16.4310   13.4020   30.7770 C.2   553  MOD553      0.4393
     26  N6        17.7160   13.6100   31.0950 N.pl3 553  MOD553      0.2180
     27  N1        15.4710   13.8150   31.6730 N.2   553  MOD553      0.0021
     28  C2        14.1360   13.6320   31.3970 C.3   553  MOD553      0.5254
     29  N3        13.7040   13.0410   30.2410 N.2   553  MOD553     -0.0055
     30  C4        14.6790   12.6280   29.3470 C.2   553  MOD553      0.3518
@<TRIPOS>BOND
     1     6     5    1
     2     4     5    1
     3     4     3    1
     4     1     2    1
     5     2     3    1
     6     2     7    1
     7     7     8    1
     8     8     9    1
     9    11     9    2
    10     9    10    1
    11     9    12    1
    12    12    13    1
    13    13    14    1
    14    16    17    1
    15    16    14    1
    16    16    18    1
    17    14    15    1
    18    18    19    1
    19    18    20    1
    20    15    20    1
    21    20    21    1
    22    22    21    1
    23    22    23    1
    24    21    30    1
    25    23    24    2
    26    30    24    1
    27    30    29    2
    28    24    25    1
    29    29    28    1
    30    25    26    1
    31    25    27    2
    32    28    27    1
