@<TRIPOS>MOLECULE
1pg2_ADN_A_1.pdb
 19 21 0 0 0
SMALL
GASTEIGER

@<TRIPOS>ATOM
      1  O5'       13.2130   10.1430   25.2090 O.3   552  ADN552     -0.2176
      2  C5'       12.9880   11.4950   24.7660 C.3   552  ADN552      0.2143
      3  C4'       12.2730   12.2860   25.8880 C.3   552  ADN552      0.1851
      4  O4'       13.2120   12.3370   26.9480 O.3   552  ADN552     -0.3134
      5  C3'       11.9980   13.7380   25.4660 C.3   552  ADN552      0.2186
      6  O3'       10.6000   13.9950   25.6530 O.3   552  ADN552     -0.2174
      7  C2'       12.8900   14.5550   26.3670 C.3   552  ADN552      0.2570
      8  O2'       12.4100   15.8450   26.6790 O.3   552  ADN552     -0.2130
      9  C1'       13.1200   13.6060   27.5660 C.3   552  ADN552      0.3186
     10  N9        14.3780   13.9990   28.2370 N.pl3 552  ADN552     -0.1439
     11  C8        15.6810   13.8860   27.8090 C.3   552  ADN552      0.3377
     12  N7        16.5710   14.3580   28.6780 N.2   552  ADN552     -0.2095
     13  C5        15.8310   14.8120   29.7500 C.2   552  ADN552      0.2526
     14  C6        16.1040   15.4210   30.9910 C.2   552  ADN552      0.4393
     15  N6        17.3710   15.6850   31.3550 N.pl3 552  ADN552      0.2180
     16  N1        15.0910   15.7650   31.8730 N.2   552  ADN552      0.0021
     17  C2        13.7580   15.5170   31.5560 C.3   552  ADN552      0.5254
     18  N3        13.3940   14.9220   30.3540 N.2   552  ADN552     -0.0055
     19  C4        14.4370   14.5800   29.4740 C.2   552  ADN552      0.3518
@<TRIPOS>BOND
     1     2     1    1
     2     2     3    1
     3     5     6    1
     4     5     3    1
     5     5     7    1
     6     3     4    1
     7     7     8    1
     8     7     9    1
     9     4     9    1
    10     9    10    1
    11    11    10    1
    12    11    12    1
    13    10    19    1
    14    12    13    2
    15    19    13    1
    16    19    18    2
    17    13    14    1
    18    18    17    1
    19    14    15    1
    20    14    16    2
    21    17    16    1
