@<TRIPOS>MOLECULE
1pg3_COA_A_1.pdb
 48 50 0 0 0
SMALL
GASTEIGER

@<TRIPOS>ATOM
      1  N1A       52.6910  163.4490   46.6580 N.2   990  COA990      0.0021
      2  C2A       53.1540  163.7960   47.8540 C.3   990  COA990      0.5254
      3  N3A       52.4480  163.7700   49.0260 N.2   990  COA990     -0.0055
      4  C4A       51.1270  163.3410   48.8690 C.2   990  COA990      0.3518
      5  C5A       50.5770  162.9600   47.6620 C.2   990  COA990      0.2526
      6  C6A       51.4290  163.0330   46.4790 C.2   990  COA990      0.4393
      7  N6A       50.9880  162.6920   45.2700 N.pl3 990  COA990      0.2180
      8  N7A       49.2430  162.5840   47.8480 N.2   990  COA990     -0.2095
      9  C8A       49.0410  162.7340   49.1320 C.3   990  COA990      0.3377
     10  N9A       50.1460  163.1910   49.8280 N.pl3 990  COA990     -0.1439
     11  C1B       50.2750  163.4660   51.2280 C.3   990  COA990      0.3185
     12  C2B       49.8240  164.8800   51.6560 C.3   990  COA990      0.2543
     13  O2B       50.8890  165.8360   51.4440 O.3   990  COA990     -0.2131
     14  C3B       49.3610  164.6620   53.1210 C.3   990  COA990      0.1928
     15  O3B       50.4840  164.8160   54.0040 O.3   990  COA990     -0.2673
     16  P3B       50.7050  166.0460   55.0070 P.3   990  COA990      0.5327
     17  O7A       51.7950  165.5450   55.9070 O.3   990  COA990     -0.1145
     18  O8A       51.1590  167.1650   54.1850 O.2   990  COA990     -0.2224
     19  O9A       49.4150  166.2740   55.7070 O.3   990  COA990     -0.1145
     20  C4B       48.8390  163.2490   53.1520 C.3   990  COA990      0.1795
     21  O4B       49.4760  162.6050   52.0050 O.3   990  COA990     -0.3136
     22  C5B       47.3250  163.1380   53.0340 C.3   990  COA990      0.1812
     23  O5B       46.8920  163.7230   51.8000 O.3   990  COA990     -0.3112
     24  P1A       45.3550  163.8770   51.3940 P.3   990  COA990      0.2189
     25  O1A       45.2470  165.0990   50.5810 O.2   990  COA990     -0.5170
     26  O2A       44.4590  163.7090   52.6110 O.3   990  COA990     -0.4371
     27  O3A       45.2810  162.6240   50.3290 O.3   990  COA990     -0.2703
     28  P2A       44.1020  161.5930   50.1700 P.3   990  COA990      0.2188
     29  O4A       43.9160  161.0250   51.5220 O.3   990  COA990     -0.4371
     30  O5A       44.4010  160.7110   49.0060 O.2   990  COA990     -0.5170
     31  O6A       42.8510  162.4530   49.8130 O.3   990  COA990     -0.3138
     32  CBP       41.4610  163.9330   48.4510 C.3   990  COA990      0.0645
     33  CCP       42.8650  163.4750   48.7430 C.3   990  COA990      0.1519
     34  CDP       41.5540  165.0220   47.3290 C.3   990  COA990      0.0056
     35  CEP       40.8360  164.5550   49.7190 C.3   990  COA990      0.0056
     36  CAP       40.6170  162.6820   47.9600 C.3   990  COA990      0.2312
     37  OAP       39.2420  162.9930   47.8310 O.3   990  COA990     -0.2131
     38  C9P       41.1230  161.9730   46.6750 C.2   990  COA990      0.2719
     39  O9P       40.8700  162.3830   45.5520 O.2   990  COA990     -0.2706
     40  N8P       41.8730  160.8490   46.8770 N.am  990  COA990     -0.2028
     41  C7P       42.4610  160.0140   45.7990 C.3   990  COA990      0.1248
     42  C6P       43.6090  159.0840   46.2600 C.3   990  COA990      0.1102
     43  C5P       43.3920  157.6450   45.8350 C.2   990  COA990      0.2432
     44  O5P       42.6300  156.8910   46.5010 O.2   990  COA990     -0.2733
     45  N4P       44.0040  157.1810   44.7380 N.am  990  COA990     -0.2044
     46  C3P       44.0160  155.8740   44.0400 C.3   990  COA990      0.1276
     47  C2P       43.2250  156.0750   42.7370 C.3   990  COA990      0.0920
     48  S1P       43.0170  154.3700   41.9900 S.3   990  COA990     -0.0802
@<TRIPOS>BOND
     1    48    47    1
     2    47    46    1
     3    46    45    1
     4    45    43   am
     5     7     6    1
     6    39    38    2
     7    41    42    1
     8    41    40    1
     9    43    42    1
    10    43    44    2
    11     6     1    2
    12     6     5    1
    13     1     2    1
    14    38    40   am
    15    38    36    1
    16    34    32    1
    17     5     8    2
    18     5     4    1
    19    37    36    1
    20     8     9    1
    21     2     3    1
    22    36    32    1
    23    32    33    1
    24    32    35    1
    25    33    31    1
    26     4     3    2
    27     4    10    1
    28    30    28    2
    29     9    10    1
    30    31    28    1
    31    10    11    1
    32    28    27    1
    33    28    29    1
    34    27    24    1
    35    25    24    2
    36    11    12    1
    37    11    21    1
    38    24    23    1
    39    24    26    1
    40    13    12    1
    41    12    14    1
    42    23    22    1
    43    21    20    1
    44    22    20    1
    45    14    20    1
    46    14    15    1
    47    15    16    1
    48    18    16    2
    49    16    19    1
    50    16    17    1
