@<TRIPOS>MOLECULE
1pg3_PRX_A_1.pdb
 26 28 0 0 0
SMALL
GASTEIGER

@<TRIPOS>ATOM
      1  O2'       41.2070  144.7750   48.5950 O.3   999  PRX999     -0.2130
      2  C2'       41.1480  145.0020   47.2030 C.3   999  PRX999      0.2570
      3  C1'       41.1060  146.5960   46.9570 C.3   999  PRX999      0.3186
      4  O4'       42.4750  147.0120   46.6770 O.3   999  PRX999     -0.3135
      5  C4'       43.3880  145.8510   46.6110 C.3   999  PRX999      0.1821
      6  C5'       44.3750  146.0310   45.4580 C.3   999  PRX999      0.1813
      7  O5'       45.2090  147.1460   45.8460 O.3   999  PRX999     -0.3114
      8  P         46.3240  147.7160   44.8040 P.3   999  PRX999      0.2141
      9  O1P       47.2090  146.5550   44.6100 O.2   999  PRX999     -0.5172
     10  O2P       46.9790  148.8570   45.5160 O.3   999  PRX999     -0.4373
     11  O3P       45.5700  148.1330   43.5500 O.3   999  PRX999     -0.3141
     12  C1P       44.7190  149.3330   43.4520 C.3   999  PRX999      0.1491
     13  C2P       43.7980  149.4270   42.2550 C.3   999  PRX999      0.0325
     14  C3P       43.3270  148.0680   41.8020 C.3   999  PRX999      0.0027
     15  C3'       42.4490  144.4990   46.4080 C.3   999  PRX999      0.2184
     16  O3'       43.2270  143.3680   47.0210 O.3   999  PRX999     -0.2174
     17  N9        40.2370  146.9320   45.7800 N.pl3 999  PRX999     -0.1439
     18  C8        40.6360  147.3290   44.4850 C.3   999  PRX999      0.3377
     19  N7        39.6610  147.5840   43.5860 N.2   999  PRX999     -0.2095
     20  C5        38.5420  147.3260   44.3880 C.2   999  PRX999      0.2526
     21  C4        38.8800  146.9190   45.7130 C.2   999  PRX999      0.3518
     22  N3        38.0390  146.6000   46.7300 N.2   999  PRX999     -0.0055
     23  C2        36.7360  146.6800   46.3690 C.3   999  PRX999      0.5254
     24  N1        36.2910  147.0510   45.1460 N.2   999  PRX999      0.0021
     25  C6        37.1480  147.3870   44.0950 C.2   999  PRX999      0.4393
     26  N6        36.7330  147.7710   42.8300 N.pl3 999  PRX999      0.2180
@<TRIPOS>BOND
     1    14    13    1
     2    13    12    1
     3    26    25    1
     4    12    11    1
     5    11     8    1
     6    19    20    2
     7    19    18    1
     8    25    20    1
     9    25    24    2
    10    20    21    1
    11    18    17    1
    12     9     8    2
    13     8    10    1
    14     8     7    1
    15    24    23    1
    16     6     7    1
    17     6     5    1
    18    21    17    1
    19    21    22    2
    20    17     3    1
    21    23    22    1
    22    15     5    1
    23    15    16    1
    24    15     2    1
    25     5     4    1
    26     4     3    1
    27     3     2    1
    28     2     1    1
