@<TRIPOS>MOLECULE
1pg4_COA_A_1.pdb
 48 50 0 0 0
SMALL
GASTEIGER

@<TRIPOS>ATOM
      1  N1A       52.7130  163.3290   46.6080 N.2   990  COA990      0.0021
      2  C2A       53.1820  163.6750   47.8080 C.3   990  COA990      0.5254
      3  N3A       52.4760  163.6530   48.9850 N.2   990  COA990     -0.0055
      4  C4A       51.1540  163.2220   48.8320 C.2   990  COA990      0.3518
      5  C5A       50.5990  162.8460   47.6240 C.2   990  COA990      0.2526
      6  C6A       51.4500  162.9120   46.4350 C.2   990  COA990      0.4393
      7  N6A       51.0040  162.5720   45.2250 N.pl3 990  COA990      0.2180
      8  N7A       49.2650  162.4660   47.8140 N.2   990  COA990     -0.2095
      9  C8A       49.0630  162.6190   49.0940 C.3   990  COA990      0.3377
     10  N9A       50.1680  163.0780   49.7900 N.pl3 990  COA990     -0.1439
     11  C1B       50.2950  163.3590   51.1940 C.3   990  COA990      0.3185
     12  C2B       49.5910  164.6560   51.6570 C.3   990  COA990      0.2543
     13  O2B       50.4010  165.8150   51.3490 O.3   990  COA990     -0.2131
     14  C3B       49.3260  164.3700   53.1550 C.3   990  COA990      0.1928
     15  O3B       50.5070  164.7020   53.9060 O.3   990  COA990     -0.2673
     16  P3B       50.6650  165.9750   54.8640 P.3   990  COA990      0.5327
     17  O7A       51.9030  165.6510   55.6410 O.3   990  COA990     -0.1145
     18  O8A       50.8720  167.1160   53.9760 O.2   990  COA990     -0.2224
     19  O9A       49.4330  166.0450   55.6920 O.3   990  COA990     -0.1145
     20  C4B       49.0550  162.8940   53.2110 C.3   990  COA990      0.1795
     21  O4B       49.6890  162.3710   51.9960 O.3   990  COA990     -0.3136
     22  C5B       47.5730  162.5410   53.2400 C.3   990  COA990      0.1812
     23  O5B       47.0370  162.5220   51.9050 O.3   990  COA990     -0.3112
     24  P1A       45.6110  161.8790   51.5410 P.3   990  COA990      0.2189
     25  O1A       45.2500  160.9320   52.6080 O.3   990  COA990     -0.4371
     26  O2A       45.6150  161.4140   50.0990 O.2   990  COA990     -0.5170
     27  O3A       44.6840  163.2120   51.7930 O.3   990  COA990     -0.2703
     28  P2A       44.4560  164.3860   50.7750 P.3   990  COA990      0.2188
     29  O4A       45.8090  164.8070   50.3870 O.2   990  COA990     -0.5170
     30  O5A       43.4930  165.3490   51.3870 O.3   990  COA990     -0.4371
     31  O6A       43.7650  163.7330   49.5370 O.3   990  COA990     -0.3138
     32  CBP       42.0200  162.4520   48.3190 C.3   990  COA990      0.0645
     33  CCP       42.3790  163.1900   49.5920 C.3   990  COA990      0.1519
     34  CDP       42.1830  163.4690   47.1350 C.3   990  COA990      0.0056
     35  CEP       40.5520  161.9770   48.3990 C.3   990  COA990      0.0056
     36  CAP       43.0230  161.2300   48.1360 C.3   990  COA990      0.2312
     37  OAP       43.1540  160.4650   49.3250 O.3   990  COA990     -0.2131
     38  C9P       42.7610  160.2890   46.9240 C.2   990  COA990      0.2719
     39  O9P       42.7960  160.6870   45.7640 O.2   990  COA990     -0.2706
     40  N8P       42.4910  158.9750   47.2330 N.am  990  COA990     -0.2028
     41  C7P       42.2120  157.9030   46.2430 C.3   990  COA990      0.1248
     42  C6P       43.4350  157.0510   45.8430 C.3   990  COA990      0.1102
     43  C5P       43.2330  156.3770   44.5110 C.2   990  COA990      0.2432
     44  O5P       43.2590  157.0450   43.4410 O.2   990  COA990     -0.2733
     45  N4P       43.0140  155.0690   44.4700 N.am  990  COA990     -0.2044
     46  C3P       42.7750  154.1200   43.3670 C.3   990  COA990      0.1276
     47  C2P       43.9460  153.1310   43.3860 C.3   990  COA990      0.0920
     48  S1P       45.4540  154.1050   42.8500 S.3   990  COA990     -0.0802
@<TRIPOS>BOND
     1    48    47    1
     2    46    47    1
     3    46    45    1
     4    44    43    2
     5    45    43   am
     6    43    42    1
     7     7     6    1
     8    39    38    2
     9    42    41    1
    10    41    40    1
    11     6     1    2
    12     6     5    1
    13     1     2    1
    14    38    40   am
    15    38    36    1
    16    34    32    1
    17     5     8    2
    18     5     4    1
    19     2     3    1
    20     8     9    1
    21    36    32    1
    22    36    37    1
    23    32    35    1
    24    32    33    1
    25     4     3    2
    26     4    10    1
    27     9    10    1
    28    31    33    1
    29    31    28    1
    30    10    11    1
    31    26    24    2
    32    29    28    2
    33    28    30    1
    34    28    27    1
    35    11    12    1
    36    11    21    1
    37    13    12    1
    38    24    27    1
    39    24    23    1
    40    24    25    1
    41    12    14    1
    42    23    22    1
    43    21    20    1
    44    14    20    1
    45    14    15    1
    46    20    22    1
    47    15    16    1
    48    18    16    2
    49    16    17    1
    50    16    19    1
