@<TRIPOS>MOLECULE
1pg4_PRX_A_1.pdb
 26 28 0 0 0
SMALL
GASTEIGER

@<TRIPOS>ATOM
      1  O2'       41.4760  144.7990   48.4920 O.3   999  PRX999     -0.2130
      2  C2'       41.3750  145.0120   47.0920 C.3   999  PRX999      0.2570
      3  C1'       41.3410  146.5980   46.8100 C.3   999  PRX999      0.3186
      4  O4'       42.7070  147.0040   46.5120 O.3   999  PRX999     -0.3135
      5  C4'       43.6030  145.8280   46.4820 C.3   999  PRX999      0.1821
      6  C5'       44.6150  145.9680   45.3450 C.3   999  PRX999      0.1813
      7  O5'       45.4720  147.0940   45.6880 O.3   999  PRX999     -0.3114
      8  P         46.5890  147.5390   44.5960 P.3   999  PRX999      0.2141
      9  O1P       47.4330  146.3390   44.4740 O.2   999  PRX999     -0.5172
     10  O2P       47.2950  148.7100   45.1880 O.3   999  PRX999     -0.4373
     11  O3P       45.8130  147.8620   43.3270 O.3   999  PRX999     -0.3141
     12  C1P       44.9330  149.0270   43.1760 C.3   999  PRX999      0.1491
     13  C2P       44.2100  149.1610   41.8520 C.3   999  PRX999      0.0325
     14  C3P       43.2900  147.9930   41.6150 C.3   999  PRX999      0.0027
     15  C3'       42.6420  144.4980   46.2640 C.3   999  PRX999      0.2184
     16  O3'       43.4090  143.3490   46.8280 O.3   999  PRX999     -0.2174
     17  N9        40.4700  146.9000   45.6350 N.pl3 999  PRX999     -0.1439
     18  C8        40.8440  147.3150   44.3430 C.3   999  PRX999      0.3377
     19  N7        39.8500  147.5340   43.4470 N.2   999  PRX999     -0.2095
     20  C5        38.7560  147.2240   44.2590 C.2   999  PRX999      0.2526
     21  C4        39.1160  146.8360   45.5850 C.2   999  PRX999      0.3518
     22  N3        38.3030  146.4710   46.6100 N.2   999  PRX999     -0.0055
     23  C2        36.9990  146.5030   46.2620 C.3   999  PRX999      0.5254
     24  N1        36.5300  146.8560   45.0450 N.2   999  PRX999      0.0021
     25  C6        37.3530  147.2320   43.9870 C.2   999  PRX999      0.4393
     26  N6        36.9090  147.5980   42.7330 N.pl3 999  PRX999      0.2180
@<TRIPOS>BOND
     1    14    13    1
     2    13    12    1
     3    26    25    1
     4    12    11    1
     5    11     8    1
     6    19    20    2
     7    19    18    1
     8    25    20    1
     9    25    24    2
    10    20    21    1
    11    18    17    1
    12     9     8    2
    13     8    10    1
    14     8     7    1
    15    24    23    1
    16     6     7    1
    17     6     5    1
    18    21    17    1
    19    21    22    2
    20    17     3    1
    21    23    22    1
    22    15     5    1
    23    15    16    1
    24    15     2    1
    25     5     4    1
    26     4     3    1
    27     3     2    1
    28     2     1    1
