@<TRIPOS>MOLECULE
1pg8_PLP_A_1.pdb
 15 15 0 0 0
SMALL
GASTEIGER

@<TRIPOS>ATOM
      1  N1        -6.7720   29.3970   51.3910 N.2   1399  PLP1399    -0.2670
      2  C2        -5.7240   29.7920   52.2020 C.2   1399  PLP1399     0.0928
      3  C2A       -5.6960   29.3390   53.6440 C.3   1399  PLP1399     0.0551
      4  C3        -4.7120   30.6050   51.6770 C.2   1399  PLP1399     0.2042
      5  O3        -3.7710   30.9720   52.3970 O.2   1399  PLP1399    -0.2857
      6  C4        -4.7480   31.0050   50.3420 C.2   1399  PLP1399     0.0146
      7  C4A       -3.6920   31.8800   49.7660 C.3   1399  PLP1399     0.0339
      8  C5        -5.7940   30.6020   49.5170 C.2   1399  PLP1399     0.0090
      9  C6        -6.7980   29.7870   50.0530 C.3   1399  PLP1399     0.1495
     10  C5A       -5.8400   31.0580   48.0960 C.3   1399  PLP1399     0.1777
     11  O4P       -4.9370   30.3980   47.1930 O.3   1399  PLP1399    -0.2656
     12  P         -4.3040   31.1450   45.9250 P.3   1399  PLP1399     0.5329
     13  O1P       -3.2030   30.2360   45.5590 O.3   1399  PLP1399    -0.1145
     14  O2P       -3.8590   32.4710   46.3920 O.3   1399  PLP1399    -0.1145
     15  O3P       -5.4150   31.2200   44.9730 O.2   1399  PLP1399    -0.2224
@<TRIPOS>BOND
     1    15    12    2
     2    13    12    1
     3    12    14    1
     4    12    11    1
     5    11    10    1
     6    10     8    1
     7     8     9    1
     8     8     6    2
     9     7     6    1
    10     9     1    1
    11     6     4    1
    12     1     2    2
    13     4     2    1
    14     4     5    2
    15     2     3    1
