@<TRIPOS>MOLECULE
1pge_ISF_A_1.pdb
 19 20 0 0 0
SMALL
GASTEIGER

@<TRIPOS>ATOM
      1  S1        26.6110   36.8370  205.5840 S.2   800  ISF800     -0.0779
      2  C2        26.6990   35.7780  206.8660 C.ar  800  ISF800      0.0688
      3  C3        25.9240   34.6160  206.7560 C.ar  800  ISF800      0.0106
      4  C4        25.2340   34.6550  205.4970 C.ar  800  ISF800      0.0129
      5  C5        25.5440   35.8370  204.7580 C.ar  800  ISF800      0.0594
      6  I1        24.8570   36.2600  202.8880 I     800  ISF800     -0.0354
      7  C6        27.5120   36.0370  207.9470 C.2   800  ISF800      0.2015
      8  O7        28.2000   37.0440  207.9350 O.2   800  ISF800     -0.2860
      9  C8        27.5880   35.1530  209.0810 C.ar  800  ISF800      0.0394
     10  C9        28.8330   34.7490  209.5340 C.ar  800  ISF800      0.0029
     11  C10       28.9590   33.9920  210.6570 C.ar  800  ISF800     -0.0036
     12  C11       27.8430   33.6040  211.3650 C.ar  800  ISF800     -0.0118
     13  C12       26.5870   33.9850  210.9150 C.ar  800  ISF800     -0.0036
     14  C13       26.4610   34.7560  209.7730 C.ar  800  ISF800      0.0029
     15  C14       27.9990   32.8050  212.6120 C.3   800  ISF800      0.1256
     16  C15       29.2970   33.0890  213.3450 C.3   800  ISF800      0.0166
     17  C16       27.8940   31.3380  212.2680 C.2   800  ISF800      0.3683
     18  O17       26.9350   30.7240  212.7610 O.co2 800  ISF800     -0.2453
     19  O18       28.7600   30.8210  211.5270 O.co2 800  ISF800     -0.2453
@<TRIPOS>BOND
     1     6     5    1
     2     5     4   ar
     3     5     1   ar
     4     4     3   ar
     5     1     2   ar
     6     3     2   ar
     7     2     7    1
     8     8     7    2
     9     7     9    1
    10     9    10   ar
    11     9    14   ar
    12    10    11   ar
    13    14    13   ar
    14    11    12   ar
    15    13    12   ar
    16    12    15    1
    17    19    17   ar
    18    17    15    1
    19    17    18   ar
    20    15    16    1
