@<TRIPOS>MOLECULE
1pge_HEM_A_1.pdb
 43 50 0 0 0
SMALL
GASTEIGER

@<TRIPOS>ATOM
      1  CHA       23.4240   44.6900  192.8380 C.2   601  HEM601      0.0000
      2  CHB       20.1830   48.1320  193.4880 C.2   601  HEM601      0.0000
      3  CHC       20.8490   47.9040  198.1800 C.2   601  HEM601      0.0000
      4  CHD       23.6030   44.0240  197.4950 C.2   601  HEM601      0.0000
      5  C1A       22.5490   45.7380  192.6130 C.ar  601  HEM601      0.0000
      6  C2A       22.2150   46.2640  191.2810 C.ar  601  HEM601      0.0000
      7  C3A       21.2820   47.1610  191.5020 C.ar  601  HEM601      0.0000
      8  C4A       21.0460   47.2280  192.9120 C.ar  601  HEM601      0.0000
      9  CMA       20.6130   47.9460  190.4170 C.3   601  HEM601      0.0000
     10  CAA       22.8020   45.9070  189.9010 C.3   601  HEM601      0.0000
     11  CBA       22.3820   44.5670  189.2670 C.3   601  HEM601      0.0000
     12  CGA       21.0830   44.6480  188.4660 C.2   601  HEM601      0.0000
     13  O1A       21.0890   44.2110  187.2930 O.co2 601  HEM601      0.0000
     14  O2A       20.0610   45.1380  189.0010 O.co2 601  HEM601      0.0000
     15  C1B       20.1440   48.4730  194.8160 C.2   601  HEM601      0.0000
     16  C2B       19.3630   49.5980  195.3610 C.2   601  HEM601      0.0000
     17  C3B       19.6080   49.6080  196.6920 C.2   601  HEM601      0.0000
     18  C4B       20.5510   48.4500  196.9480 C.2   601  HEM601      0.0000
     19  CMB       18.6560   50.6940  194.5810 C.3   601  HEM601      0.0000
     20  CAB       19.1980   50.6040  197.5880 C.3   601  HEM601      0.0000
     21  CBB       17.9340   51.3170  197.5790 C.3   601  HEM601      0.0000
     22  C1C       21.6380   46.8110  198.3920 C.ar  601  HEM601      0.0000
     23  C2C       21.8360   46.1650  199.6540 C.ar  601  HEM601      0.0000
     24  C3C       22.6100   45.0980  199.4800 C.ar  601  HEM601      0.0000
     25  C4C       22.8980   45.0700  198.0860 C.ar  601  HEM601      0.0000
     26  CMC       21.2260   46.5320  200.9920 C.3   601  HEM601      0.0000
     27  CAC       22.8930   44.1130  200.4040 C.3   601  HEM601      0.0000
     28  CBC       24.1900   43.9670  200.9990 C.3   601  HEM601      0.0000
     29  C1D       23.8530   43.9300  196.1650 C.2   601  HEM601      0.0000
     30  C2D       24.8190   43.0540  195.6020 C.2   601  HEM601      0.0000
     31  C3D       24.8100   43.1990  194.2880 C.2   601  HEM601      0.0000
     32  C4D       23.8230   44.2410  194.0550 C.2   601  HEM601      0.0000
     33  CMD       25.8600   42.2970  196.3820 C.3   601  HEM601      0.0000
     34  CAD       25.7780   42.5280  193.3260 C.3   601  HEM601      0.0000
     35  CBD       26.6820   43.5600  192.6500 C.3   601  HEM601      0.0000
     36  CGD       27.6440   42.9720  191.6040 C.2   601  HEM601      0.0000
     37  O1D       27.2920   41.9760  190.9300 O.co2 601  HEM601      0.0000
     38  O2D       28.7530   43.5280  191.4390 O.co2 601  HEM601      0.0000
     39  NA        21.8760   46.4030  193.5960 N.ar  601  HEM601      0.0000
     40  NB        20.9180   47.8310  195.7670 N.2   601  HEM601      0.0000
     41  NC        22.2750   46.1250  197.4080 N.ar  601  HEM601      0.0000
     42  ND        23.3050   44.7530  195.2130 N.2   601  HEM601      0.0000
     43 FE         22.1680   46.3840  195.4640 Fe    601  HEM601      0.0000
@<TRIPOS>BOND
     1    13    12   ar
     2    12    14   ar
     3    12    11    1
     4    11    10    1
     5    10     6    1
     6     9     7    1
     7    37    36   ar
     8     6     7   ar
     9     6     5   ar
    10    38    36   ar
    11     7     8   ar
    12    36    35    1
    13     5     1    2
    14     5    39   ar
    15    35    34    1
    16     1    32    1
    17     8     2    2
    18     8    39   ar
    19    34    31    1
    20     2    15    1
    21    39    43    1
    22    32    31    1
    23    32    42    2
    24    31    30    2
    25    19    16    1
    26    15    16    1
    27    15    40    2
    28    42    43    1
    29    42    29    1
    30    16    17    2
    31    43    40    1
    32    43    41    1
    33    30    29    1
    34    30    33    1
    35    40    18    1
    36    29     4    2
    37    17    18    1
    38    17    20    1
    39    18     3    2
    40    41    25   ar
    41    41    22   ar
    42     4    25    1
    43    21    20    1
    44    25    24   ar
    45     3    22    1
    46    22    23   ar
    47    24    23   ar
    48    24    27    1
    49    23    26    1
    50    27    28    1
