@<TRIPOS>MOLECULE
1pgf_HEM_A_1.pdb
 43 50 0 0 0
SMALL
GASTEIGER

@<TRIPOS>ATOM
      1  CHA       23.5960   44.4990  191.4540 C.2   601  HEM601      0.0000
      2  CHB       20.3620   47.9120  191.9890 C.2   601  HEM601      0.0000
      3  CHC       20.6250   47.6320  196.6540 C.2   601  HEM601      0.0000
      4  CHD       23.4280   43.8250  196.1040 C.2   601  HEM601      0.0000
      5  C1A       22.5960   45.3560  191.2310 C.ar  601  HEM601      0.0000
      6  C2A       22.2040   45.6000  189.8550 C.ar  601  HEM601      0.0000
      7  C3A       21.3900   46.6650  190.0230 C.ar  601  HEM601      0.0000
      8  C4A       21.2180   46.9500  191.4560 C.ar  601  HEM601      0.0000
      9  CMA       21.0170   47.5880  188.8720 C.3   601  HEM601      0.0000
     10  CAA       22.8520   44.9790  188.5760 C.3   601  HEM601      0.0000
     11  CBA       22.1250   43.9990  187.6520 C.3   601  HEM601      0.0000
     12  CGA       21.2750   44.7070  186.5850 C.2   601  HEM601      0.0000
     13  O1A       21.7590   44.8950  185.4430 O.co2 601  HEM601      0.0000
     14  O2A       20.1180   45.0780  186.8880 O.co2 601  HEM601      0.0000
     15  C1B       20.1540   48.2310  193.3350 C.2   601  HEM601      0.0000
     16  C2B       19.3200   49.3780  193.8560 C.2   601  HEM601      0.0000
     17  C3B       19.2250   49.2520  195.1450 C.2   601  HEM601      0.0000
     18  C4B       20.1750   48.0690  195.4350 C.2   601  HEM601      0.0000
     19  CMB       18.8800   50.6310  193.0720 C.3   601  HEM601      0.0000
     20  CAB       18.3740   50.0650  195.9030 C.3   601  HEM601      0.0000
     21  CBB       18.3180   51.5320  195.9630 C.3   601  HEM601      0.0000
     22  C1C       21.5670   46.6390  196.9170 C.ar  601  HEM601      0.0000
     23  C2C       21.8000   46.1140  198.2340 C.ar  601  HEM601      0.0000
     24  C3C       22.5460   45.0450  198.0190 C.ar  601  HEM601      0.0000
     25  C4C       22.7630   44.8930  196.6560 C.ar  601  HEM601      0.0000
     26  CMC       21.2640   46.6420  199.5700 C.3   601  HEM601      0.0000
     27  CAC       23.0170   44.2300  198.9630 C.3   601  HEM601      0.0000
     28  CBC       24.4200   44.1410  199.0870 C.3   601  HEM601      0.0000
     29  C1D       23.7800   43.7590  194.7960 C.2   601  HEM601      0.0000
     30  C2D       24.7350   42.7880  194.2210 C.2   601  HEM601      0.0000
     31  C3D       24.9060   43.1110  192.9480 C.2   601  HEM601      0.0000
     32  C4D       24.0390   44.2570  192.7010 C.2   601  HEM601      0.0000
     33  CMD       25.4220   41.6240  194.8690 C.3   601  HEM601      0.0000
     34  CAD       25.7790   42.3980  191.9340 C.3   601  HEM601      0.0000
     35  CBD       26.9840   43.2680  191.6090 C.3   601  HEM601      0.0000
     36  CGD       27.6450   42.9350  190.2690 C.2   601  HEM601      0.0000
     37  O1D       27.0230   42.1590  189.4930 O.co2 601  HEM601      0.0000
     38  O2D       28.7650   43.4620  189.9990 O.co2 601  HEM601      0.0000
     39  NA        21.9880   46.1630  192.1990 N.ar  601  HEM601      0.0000
     40  NB        20.7210   47.5150  194.3180 N.2   601  HEM601      0.0000
     41  NC        22.1810   45.9130  195.9660 N.ar  601  HEM601      0.0000
     42  ND        23.3720   44.7110  193.8540 N.2   601  HEM601      0.0000
     43 FE         22.0700   46.1920  194.1020 Fe    601  HEM601      0.0000
@<TRIPOS>BOND
     1    13    12   ar
     2    12    14   ar
     3    12    11    1
     4    11    10    1
     5    10     6    1
     6     9     7    1
     7    37    36   ar
     8     6     7   ar
     9     6     5   ar
    10    38    36   ar
    11     7     8   ar
    12    36    35    1
    13     5     1    2
    14     5    39   ar
    15     1    32    1
    16     8     2    2
    17     8    39   ar
    18    35    34    1
    19    34    31    1
    20     2    15    1
    21    39    43    1
    22    32    31    1
    23    32    42    2
    24    31    30    2
    25    19    16    1
    26    15    16    1
    27    15    40    2
    28    42    43    1
    29    42    29    1
    30    16    17    2
    31    43    40    1
    32    43    41    1
    33    30    29    1
    34    30    33    1
    35    40    18    1
    36    29     4    2
    37    17    18    1
    38    17    20    1
    39    18     3    2
    40    20    21    1
    41    41    25   ar
    42    41    22   ar
    43     4    25    1
    44     3    22    1
    45    25    24   ar
    46    22    23   ar
    47    24    23   ar
    48    24    27    1
    49    23    26    1
    50    27    28    1
