@<TRIPOS>MOLECULE
1pgf_IMM_A_1.pdb
 25 27 0 0 0
SMALL
GASTEIGER

@<TRIPOS>ATOM
      1  N1        27.6020   34.9070  207.5740 N.ar  800  IMM800     -0.2785
      2  C2        28.8870   34.3620  207.7270 C.ar  800  IMM800      0.0411
      3  C3        28.8460   33.4460  208.6760 C.ar  800  IMM800      0.0027
      4  C4        27.5460   33.3340  209.1630 C.ar  800  IMM800      0.0169
      5  C5        27.0140   32.5510  210.1140 C.ar  800  IMM800      0.0381
      6  C6        25.7520   32.6300  210.4110 C.ar  800  IMM800      0.1388
      7  C7        24.8990   33.5400  209.7510 C.ar  800  IMM800      0.0384
      8  C8        25.4320   34.3500  208.7720 C.ar  800  IMM800      0.0207
      9  C9        26.7530   34.2460  208.4850 C.ar  800  IMM800      0.0664
     10  C10       27.1780   35.9630  206.8040 C.2   800  IMM800      0.2644
     11  C11       26.5800   35.7510  205.4740 C.ar  800  IMM800      0.0565
     12  C12       25.3660   35.0940  205.3500 C.ar  800  IMM800      0.0052
     13  C13       24.7300   35.0540  204.1230 C.ar  800  IMM800      0.0059
     14  C14       25.3030   35.6740  203.0210 C.ar  800  IMM800      0.0301
     15  C15       26.5390   36.2850  203.1660 C.ar  800  IMM800      0.0059
     16  C16       27.1610   36.3170  204.3700 C.ar  800  IMM800      0.0052
     17  C17       30.0190   34.6100  206.7970 C.3   800  IMM800      0.0501
     18  C18       29.9980   32.7240  209.2460 C.3   800  IMM800      0.1415
     19  C19       29.8160   32.4880  210.7320 C.2   800  IMM800      0.3693
     20  C20       26.1090   30.7640  211.8730 C.3   800  IMM800      0.2525
     21  O1        27.3090   37.0930  207.2010 O.2   800  IMM800     -0.2666
     22  O2        25.2670   31.8190  211.4010 O.3   800  IMM800     -0.4714
     23  O3        29.1850   31.4410  211.0840 O.co2 800  IMM800     -0.2453
     24  O4        30.0890   33.4390  211.5200 O.co2 800  IMM800     -0.2453
     25  I1        24.2570   35.7800  201.1730 I     800  IMM800     -0.0425
@<TRIPOS>BOND
     1    25    14    1
     2    14    15   ar
     3    14    13   ar
     4    15    16   ar
     5    13    12   ar
     6    16    11   ar
     7    12    11   ar
     8    11    10    1
     9    17     2    1
    10    10    21    2
    11    10     1   am
    12     1     2   ar
    13     1     9   ar
    14     2     3   ar
    15     9     8   ar
    16     9     4   ar
    17     3     4   ar
    18     3    18    1
    19     8     7   ar
    20     4     5   ar
    21    18    19    1
    22     7     6   ar
    23     5     6   ar
    24     6    22    1
    25    19    23   ar
    26    19    24   ar
    27    22    20    1
