@<TRIPOS>MOLECULE
1pgg_IMM_A_1.pdb
 25 27 0 0 0
SMALL
GASTEIGER

@<TRIPOS>ATOM
      1  N1        27.4280   34.6200  208.0900 N.ar    1  IMM1       -0.2785
      2  C2        26.4280   33.7120  208.5470 C.ar    1  IMM1        0.0411
      3  C3        26.9690   32.9830  209.5430 C.ar    1  IMM1        0.0027
      4  C4        28.2930   33.3980  209.7650 C.ar    1  IMM1        0.0169
      5  C5        29.2510   32.9860  210.6680 C.ar    1  IMM1        0.0381
      6  C6        30.4870   33.5780  210.6650 C.ar    1  IMM1        0.1388
      7  C7        30.7790   34.5840  209.7440 C.ar    1  IMM1        0.0384
      8  C8        29.8200   34.9950  208.8470 C.ar    1  IMM1        0.0207
      9  C9        28.5870   34.4090  208.8570 C.ar    1  IMM1        0.0664
     10  C10       27.3730   35.6560  207.1330 C.2     1  IMM1        0.2644
     11  C11       26.6800   35.4940  205.8260 C.ar    1  IMM1        0.0565
     12  C12       27.3980   35.5660  204.6510 C.ar    1  IMM1        0.0052
     13  C13       26.7780   35.5300  203.4390 C.ar    1  IMM1        0.0059
     14  C14       25.4000   35.4160  203.3780 C.ar    1  IMM1        0.0301
     15  C15       24.6820   35.3320  204.5670 C.ar    1  IMM1        0.0059
     16  C16       25.3160   35.3750  205.7670 C.ar    1  IMM1        0.0052
     17  C17       24.9700   33.9820  208.4050 C.3     1  IMM1        0.0501
     18  C18       26.3200   31.8460  210.2600 C.3     1  IMM1        0.1415
     19  C19       27.3300   30.8310  210.7590 C.2     1  IMM1        0.3693
     20  C20       31.1400   33.2940  212.9840 C.3     1  IMM1        0.2525
     21  O1        27.9270   36.7100  207.3560 O.2     1  IMM1       -0.2666
     22  O2        31.4450   33.1810  211.5960 O.3     1  IMM1       -0.4714
     23  O3        27.3830   30.5610  211.9730 O.co2   1  IMM1       -0.2453
     24  O4        28.1830   30.4210  209.9410 O.co2   1  IMM1       -0.2453
     25  I1        24.3890   35.3640  201.4980 I       1  IMM1       -0.0425
@<TRIPOS>BOND
     1    25    14    1
     2    14    13   ar
     3    14    15   ar
     4    13    12   ar
     5    15    16   ar
     6    12    11   ar
     7    16    11   ar
     8    11    10    1
     9    10    21    2
    10    10     1   am
    11     1     2   ar
    12     1     9   ar
    13    17     2    1
    14     2     3   ar
    15     8     9   ar
    16     8     7   ar
    17     9     4   ar
    18     3     4   ar
    19     3    18    1
    20     7     6   ar
    21     4     5   ar
    22    24    19   ar
    23    18    19    1
    24     6     5   ar
    25     6    22    1
    26    19    23   ar
    27    22    20    1
