@<TRIPOS>MOLECULE
1pgg_HEM_A_1.pdb
 43 50 0 0 0
SMALL
GASTEIGER

@<TRIPOS>ATOM
      1  CHA       23.5360   44.5320  191.4460 C.2   601  HEM601      0.0000
      2  CHB       20.3390   47.9580  192.0260 C.2   601  HEM601      0.0000
      3  CHC       20.6280   47.6670  196.6820 C.2   601  HEM601      0.0000
      4  CHD       23.4080   43.8480  196.1140 C.2   601  HEM601      0.0000
      5  C1A       22.5990   45.4480  191.2320 C.ar  601  HEM601      0.0000
      6  C2A       22.2120   45.7110  189.8670 C.ar  601  HEM601      0.0000
      7  C3A       21.3540   46.7120  190.0440 C.ar  601  HEM601      0.0000
      8  C4A       21.1860   46.9900  191.4770 C.ar  601  HEM601      0.0000
      9  CMA       20.8680   47.5490  188.8740 C.3   601  HEM601      0.0000
     10  CAA       22.8520   45.1660  188.5570 C.3   601  HEM601      0.0000
     11  CBA       22.1600   44.0720  187.7270 C.3   601  HEM601      0.0000
     12  CGA       21.2720   44.6370  186.6140 C.2   601  HEM601      0.0000
     13  O1A       21.6810   44.5910  185.4280 O.co2 601  HEM601      0.0000
     14  O2A       20.1590   45.1260  186.9160 O.co2 601  HEM601      0.0000
     15  C1B       20.1400   48.2930  193.3720 C.2   601  HEM601      0.0000
     16  C2B       19.3430   49.4680  193.9100 C.2   601  HEM601      0.0000
     17  C3B       19.2180   49.3110  195.1910 C.2   601  HEM601      0.0000
     18  C4B       20.1560   48.1050  195.4750 C.2   601  HEM601      0.0000
     19  CMB       19.0430   50.7850  193.1620 C.3   601  HEM601      0.0000
     20  CAB       18.3520   50.1220  195.9320 C.3   601  HEM601      0.0000
     21  CBB       18.3220   51.5850  196.0110 C.3   601  HEM601      0.0000
     22  C1C       21.5810   46.6860  196.9130 C.ar  601  HEM601      0.0000
     23  C2C       21.7630   46.1170  198.2130 C.ar  601  HEM601      0.0000
     24  C3C       22.4870   45.0240  198.0080 C.ar  601  HEM601      0.0000
     25  C4C       22.7630   44.9310  196.6520 C.ar  601  HEM601      0.0000
     26  CMC       21.2130   46.6540  199.5480 C.3   601  HEM601      0.0000
     27  CAC       22.8710   44.1300  198.9410 C.3   601  HEM601      0.0000
     28  CBC       24.2500   44.0970  199.2260 C.3   601  HEM601      0.0000
     29  C1D       23.7270   43.7570  194.7910 C.2   601  HEM601      0.0000
     30  C2D       24.6800   42.7740  194.1990 C.2   601  HEM601      0.0000
     31  C3D       24.8250   43.1000  192.9220 C.2   601  HEM601      0.0000
     32  C4D       23.9460   44.2370  192.6830 C.2   601  HEM601      0.0000
     33  CMD       25.4390   41.6380  194.8320 C.3   601  HEM601      0.0000
     34  CAD       25.7340   42.4400  191.9100 C.3   601  HEM601      0.0000
     35  CBD       26.9660   43.3050  191.6670 C.3   601  HEM601      0.0000
     36  CGD       27.6620   43.0160  190.3290 C.2   601  HEM601      0.0000
     37  O1D       27.0780   42.2380  189.5260 O.co2 601  HEM601      0.0000
     38  O2D       28.7690   43.5840  190.0800 O.co2 601  HEM601      0.0000
     39  NA        21.9820   46.2280  192.2040 N.ar  601  HEM601      0.0000
     40  NB        20.7070   47.5580  194.3480 N.2   601  HEM601      0.0000
     41  NC        22.2100   45.9790  195.9640 N.ar  601  HEM601      0.0000
     42  ND        23.3100   44.7110  193.8430 N.2   601  HEM601      0.0000
     43 FE         22.0900   46.2630  194.1080 Fe    601  HEM601      0.0000
@<TRIPOS>BOND
     1    13    12   ar
     2    12    14   ar
     3    12    11    1
     4    11    10    1
     5    10     6    1
     6     9     7    1
     7    37    36   ar
     8     6     7   ar
     9     6     5   ar
    10     7     8   ar
    11    38    36   ar
    12    36    35    1
    13     5     1    2
    14     5    39   ar
    15     1    32    1
    16     8     2    2
    17     8    39   ar
    18    35    34    1
    19    34    31    1
    20     2    15    1
    21    39    43    1
    22    32    31    1
    23    32    42    2
    24    31    30    2
    25    19    16    1
    26    15    16    1
    27    15    40    2
    28    42    43    1
    29    42    29    1
    30    16    17    2
    31    43    40    1
    32    43    41    1
    33    30    29    1
    34    30    33    1
    35    40    18    1
    36    29     4    2
    37    17    18    1
    38    17    20    1
    39    18     3    2
    40    20    21    1
    41    41    25   ar
    42    41    22   ar
    43     4    25    1
    44    25    24   ar
    45     3    22    1
    46    22    23   ar
    47    24    23   ar
    48    24    27    1
    49    23    26    1
    50    27    28    1
