@<TRIPOS>MOLECULE
1pgn_NBP_A_1.pdb
 49 53 0 0 0
SMALL
GASTEIGER

@<TRIPOS>ATOM
      1  PA        24.6720   19.4120   45.9890 P.3   499  NBP499      0.2189
      2  O1A       26.0090   19.1270   45.4000 O.2   499  NBP499     -0.5170
      3  O2A       24.6150   19.6450   47.4650 O.3   499  NBP499     -0.4371
      4  O5B       23.6660   18.1970   45.6450 O.3   499  NBP499     -0.3112
      5  C5B       22.9360   17.6100   46.7400 C.3   499  NBP499      0.1813
      6  C4B       22.3780   16.2390   46.3790 C.3   499  NBP499      0.1820
      7  O4B       23.3470   15.4250   45.6750 O.3   499  NBP499     -0.3133
      8  C3B       21.9900   15.4870   47.6420 C.3   499  NBP499      0.2158
      9  O3B       20.6660   14.9490   47.5450 O.3   499  NBP499     -0.2175
     10  C2B       23.0080   14.3620   47.6530 C.3   499  NBP499      0.2319
     11  O2B       22.5430   13.2460   48.3940 O.3   499  NBP499     -0.2630
     12  C1B       23.2060   14.0930   46.1790 C.3   499  NBP499      0.3210
     13  N9A       24.3990   13.2910   45.8370 N.pl3 499  NBP499     -0.1124
     14  C8A       25.6650   13.6630   46.0240 C.2   499  NBP499      0.3130
     15 BR8        26.1990   15.3090   46.7470 Br    499  NBP499      0.0337
     16  N7A       26.5030   12.6910   45.6270 N.2   499  NBP499     -0.3444
     17  C5A       25.7050   11.7310   45.2080 C.2   499  NBP499      0.3071
     18  C6A       26.1520   10.4770   44.7750 C.2   499  NBP499      0.4517
     19  N6A       27.4580   10.1910   44.7240 N.pl3 499  NBP499      0.2193
     20  N1A       25.1990    9.5840   44.4480 N.2   499  NBP499      0.0030
     21  C2A       23.9010    9.9150   44.5370 C.3   499  NBP499      0.5255
     22  N3A       23.4800   11.1230   44.9650 N.2   499  NBP499     -0.0039
     23  C4A       24.3780   12.0500   45.3160 C.2   499  NBP499      0.3694
     24  O3        23.9700   20.6050   45.1800 O.3   499  NBP499     -0.2703
     25  PN        22.7270   21.5730   45.5190 P.3   499  NBP499      0.2189
     26  O1N       22.9170   22.7710   44.6530 O.2   499  NBP499     -0.5170
     27  O2N       22.6350   21.7500   46.9990 O.3   499  NBP499     -0.4371
     28  O5D       21.4430   20.7120   45.0200 O.3   499  NBP499     -0.3112
     29  C5D       21.4520   20.0320   43.7490 C.3   499  NBP499      0.1813
     30  C4D       20.9330   20.8950   42.5990 C.3   499  NBP499      0.1799
     31  O4D       19.9400   21.8720   43.0190 O.3   499  NBP499     -0.3327
     32  C3D       22.0180   21.6940   41.8850 C.3   499  NBP499      0.2158
     33  O3D       22.6930   20.9550   40.8550 O.3   499  NBP499     -0.2175
     34  C2D       21.1530   22.7490   41.1960 C.3   499  NBP499      0.2309
     35  O2D       20.4680   22.2170   40.0420 O.3   499  NBP499     -0.2158
     36  C1D       20.1230   23.1010   42.2560 C.3   499  NBP499      0.2263
     37  N1N       20.4490   24.3310   43.0330 N.pl3 499  NBP499     -0.2787
     38  C2N       20.1470   24.3810   44.4170 C.3   499  NBP499      0.1244
     39  C3N       20.1450   25.5790   45.1250 C.2   499  NBP499      0.0544
     40  C7N       19.7640   25.5850   46.6130 C.2   499  NBP499      0.2818
     41  O7N       19.0780   24.6810   47.1260 O.2   499  NBP499     -0.2670
     42  N7N       20.1980   26.6110   47.3330 N.am  499  NBP499     -0.0839
     43  C4N       20.4710   26.7630   44.4370 C.2   499  NBP499      0.0033
     44  C5N       20.8120   26.7380   43.0780 C.2   499  NBP499      0.0157
     45  C6N       20.8060   25.5320   42.3740 C.2   499  NBP499      0.0633
     46  P2B       23.0370   13.2310   49.9320 P.3   499  NBP499      0.5328
     47  O1X       24.5150   13.1700   49.8230 O.2   499  NBP499     -0.2224
     48  O2X       22.3440   12.0230   50.4680 O.3   499  NBP499     -0.1145
     49  O3X       22.5590   14.5130   50.5090 O.3   499  NBP499     -0.1145
@<TRIPOS>BOND
     1    35    34    1
     2    33    32    1
     3    34    32    1
     4    34    36    1
     5    32    30    1
     6    36    31    1
     7    36    37    1
     8    45    37    1
     9    45    44    2
    10    30    31    1
    11    30    29    1
    12    37    38    1
    13    44    43    1
    14    29    28    1
    15    38    39    1
    16    43    39    2
    17    20    21    1
    18    20    18    2
    19    21    22    1
    20    26    25    2
    21    19    18    1
    22    18    17    1
    23    22    23    2
    24    28    25    1
    25    39    40    1
    26    24    25    1
    27    24     1    1
    28    17    23    1
    29    17    16    2
    30    23    13    1
    31     2     1    2
    32    25    27    1
    33    16    14    2
    34     4     1    1
    35     4     5    1
    36     7    12    1
    37     7     6    1
    38    13    14    1
    39    13    12    1
    40     1     3    1
    41    14    15    1
    42    12    10    1
    43     6     5    1
    44     6     8    1
    45    40    41    2
    46    40    42   am
    47     9     8    1
    48     8    10    1
    49    10    11    1
    50    11    46    1
    51    47    46    2
    52    46    48    1
    53    46    49    1
