@<TRIPOS>MOLECULE
1pgo_NDP_A_1.pdb
 48 52 0 0 0
SMALL
GASTEIGER

@<TRIPOS>ATOM
      1  PA        24.3800   19.5810   45.8320 P.3   501  NDP501      0.2189
      2  O1A       25.1250   19.8000   44.5730 O.2   501  NDP501     -0.5170
      3  O2A       24.8430   20.2230   47.0700 O.3   501  NDP501     -0.4371
      4  O5B       24.3940   17.9920   46.1060 O.3   501  NDP501     -0.3112
      5  C5B       23.8130   17.4740   47.3030 C.3   501  NDP501      0.1813
      6  C4B       22.5740   16.6830   46.8790 C.3   501  NDP501      0.1820
      7  O4B       22.9070   15.7570   45.8250 O.3   501  NDP501     -0.3136
      8  C3B       22.0690   15.8460   48.0200 C.3   501  NDP501      0.2157
      9  O3B       20.7340   15.3800   47.7940 O.3   501  NDP501     -0.2175
     10  C2B       23.0190   14.6670   47.9240 C.3   501  NDP501      0.2314
     11  O2B       22.4980   13.5330   48.6060 O.3   501  NDP501     -0.2630
     12  C1B       23.1220   14.4520   46.4300 C.3   501  NDP501      0.3158
     13  N9A       24.4180   13.8360   46.0780 N.pl3 501  NDP501     -0.1439
     14  C8A       25.6380   14.3580   46.2900 C.3   501  NDP501      0.3377
     15  N7A       26.6160   13.5490   45.8690 N.2   501  NDP501     -0.2095
     16  C5A       25.9450   12.5000   45.3980 C.2   501  NDP501      0.2526
     17  C6A       26.5580   11.3450   44.9660 C.2   501  NDP501      0.4393
     18  N6A       27.8710   11.2460   44.8980 N.pl3 501  NDP501      0.2180
     19  N1A       25.7270   10.3150   44.6350 N.2   501  NDP501      0.0021
     20  C2A       24.4100   10.4430   44.7350 C.3   501  NDP501      0.5254
     21  N3A       23.8280   11.5740   45.1700 N.2   501  NDP501     -0.0055
     22  C4A       24.5840   12.6330   45.5220 C.2   501  NDP501      0.3518
     23  O3        22.8140   19.9080   45.5550 O.3   501  NDP501     -0.2703
     24  PN        21.9030   21.2040   45.2210 P.3   501  NDP501      0.2189
     25  O1N       22.4970   22.3920   45.8890 O.3   501  NDP501     -0.4371
     26  O2N       20.5000   20.8640   45.5410 O.2   501  NDP501     -0.5170
     27  O5D       21.9550   21.3340   43.5860 O.3   501  NDP501     -0.3112
     28  C5D       21.1210   22.2090   42.7780 C.3   501  NDP501      0.1813
     29  C4D       21.7590   23.5540   42.3540 C.3   501  NDP501      0.1799
     30  O4D       21.1870   24.2150   41.2010 O.3   501  NDP501     -0.3327
     31  C3D       21.7960   24.5980   43.4830 C.3   501  NDP501      0.2158
     32  O3D       23.1170   24.7940   43.9950 O.3   501  NDP501     -0.2175
     33  C2D       21.3450   25.8980   42.8150 C.3   501  NDP501      0.2309
     34  O2D       22.1170   27.0280   43.2110 O.3   501  NDP501     -0.2158
     35  C1D       21.5380   25.6080   41.3280 C.3   501  NDP501      0.2263
     36  N1N       20.7250   26.5910   40.5340 N.pl3 501  NDP501     -0.2787
     37  C2N       21.3190   27.5610   39.6960 C.3   501  NDP501      0.1244
     38  C3N       20.5760   28.6670   39.2900 C.2   501  NDP501      0.0544
     39  C7N       21.1020   29.6910   38.2820 C.2   501  NDP501      0.2818
     40  O7N       20.3270   30.3550   37.5920 O.2   501  NDP501     -0.2670
     41  N7N       22.4250   29.8000   38.1850 N.am  501  NDP501     -0.0839
     42  C4N       19.2620   28.8260   39.7300 C.2   501  NDP501      0.0033
     43  C5N       18.6500   27.8660   40.5450 C.2   501  NDP501      0.0157
     44  C6N       19.3880   26.7580   40.9110 C.2   501  NDP501      0.0633
     45  P2B       23.1890   13.2220   50.0420 P.3   501  NDP501      0.5328
     46  O1X       24.6330   13.2540   49.7270 O.2   501  NDP501     -0.2224
     47  O2X       22.6170   11.8860   50.3260 O.3   501  NDP501     -0.1145
     48  O3X       22.7140   14.3310   50.8910 O.3   501  NDP501     -0.1145
@<TRIPOS>BOND
     1    40    39    2
     2    41    39   am
     3    39    38    1
     4    38    37    1
     5    38    42    2
     6    37    36    1
     7    42    43    1
     8    36    44    1
     9    36    35    1
    10    43    44    2
    11    30    35    1
    12    30    29    1
    13    35    33    1
    14    29    28    1
    15    29    31    1
    16    28    27    1
    17    33    34    1
    18    33    31    1
    19    31    32    1
    20    27    24    1
    21     2     1    2
    22    19    20    1
    23    19    17    2
    24    20    21    1
    25    18    17    1
    26    17    16    1
    27    21    22    2
    28    24    26    2
    29    24    23    1
    30    24    25    1
    31    16    22    1
    32    16    15    2
    33    22    13    1
    34    23     1    1
    35     7    12    1
    36     7     6    1
    37     1     4    1
    38     1     3    1
    39    15    14    1
    40    13    14    1
    41    13    12    1
    42     4     5    1
    43    12    10    1
    44     6     5    1
    45     6     8    1
    46     9     8    1
    47    10     8    1
    48    10    11    1
    49    11    45    1
    50    46    45    2
    51    45    47    1
    52    45    48    1
