@<TRIPOS>MOLECULE
1pgp_6PG_A_1.pdb
 17 16 0 0 0
SMALL
GASTEIGER

@<TRIPOS>ATOM
      1  C1        20.2160   29.9130   38.8060 C.2   502  6PG502      0.3973
      2  C2        20.3270   28.4720   39.3500 C.3   502  6PG502      0.2865
      3  C3        21.8460   27.9720   39.4820 C.3   502  6PG502      0.2260
      4  C4        22.8470   28.5740   40.5780 C.3   502  6PG502      0.2179
      5  C5        24.4050   28.2270   40.2800 C.3   502  6PG502      0.2147
      6  C6        25.2040   29.0020   39.1600 C.3   502  6PG502      0.1892
      7  O1A       21.2790   30.6310   38.5290 O.co2 502  6PG502     -0.2427
      8  O1        19.1050   30.4010   38.5710 O.co2 502  6PG502     -0.2427
      9  O2        19.6830   28.3710   40.6190 O.3   502  6PG502     -0.2080
     10  O3        22.3540   28.1650   38.1800 O.3   502  6PG502     -0.2169
     11  O4        22.7960   29.9890   40.7620 O.3   502  6PG502     -0.2175
     12  O5        25.1860   28.3860   41.4580 O.3   502  6PG502     -0.2176
     13  O6        25.7830   30.3680   39.4700 O.3   502  6PG502     -0.2674
     14  P         27.3900   30.6110   39.6170 P.3   502  6PG502      0.5327
     15  O1P       27.7430   30.0220   40.9760 O.3   502  6PG502     -0.1145
     16  O2P       27.7890   32.0490   39.7730 O.3   502  6PG502     -0.1145
     17  O3P       28.2410   29.8860   38.4890 O.2   502  6PG502     -0.2224
@<TRIPOS>BOND
     1    10     3    1
     2    17    14    2
     3     7     1   ar
     4     8     1   ar
     5     1     2    1
     6     6    13    1
     7     6     5    1
     8     2     3    1
     9     2     9    1
    10    13    14    1
    11     3     4    1
    12    14    16    1
    13    14    15    1
    14     5     4    1
    15     5    12    1
    16     4    11    1
