@<TRIPOS>MOLECULE
1pgq_2AM_A_1.pdb
 23 25 0 0 0
SMALL
GASTEIGER

@<TRIPOS>ATOM
      1  P         23.6030   13.0830   49.9850 P.3   500  2AM500      0.5328
      2  O1P       22.3660   13.6140   50.6070 O.3   500  2AM500     -0.1145
      3  O2P       24.8080   13.9400   50.1730 O.2   500  2AM500     -0.2224
      4  O3P       23.8220   11.6290   50.1740 O.3   500  2AM500     -0.1145
      5  C5'       22.7370   17.5770   46.6180 C.3   500  2AM500      0.2143
      6  O5'       24.1460   17.8260   46.7590 O.3   500  2AM500     -0.2176
      7  C4'       22.4230   16.0880   46.4870 C.3   500  2AM500      0.1850
      8  O4'       23.3540   15.4080   45.6120 O.3   500  2AM500     -0.3135
      9  C3'       22.4620   15.3610   47.8250 C.3   500  2AM500      0.2158
     10  O3'       21.1960   14.7430   48.0850 O.3   500  2AM500     -0.2175
     11  C2'       23.5490   14.3120   47.6680 C.3   500  2AM500      0.2314
     12  O2'       23.2470   13.1230   48.4100 O.3   500  2AM500     -0.2630
     13  C1'       23.5470   14.0940   46.1710 C.3   500  2AM500      0.3158
     14  N9        24.7820   13.4290   45.6800 N.pl3 500  2AM500     -0.1439
     15  C8        26.0240   13.9320   45.7170 C.3   500  2AM500      0.3377
     16  N7        26.9340   12.9990   45.4040 N.2   500  2AM500     -0.2095
     17  C5        26.2200   11.9160   45.1610 C.2   500  2AM500      0.2526
     18  C6        26.7590   10.7370   44.6900 C.2   500  2AM500      0.4393
     19  N6        28.0560   10.6060   44.4280 N.pl3 500  2AM500      0.2180
     20  N1        25.8780    9.7890   44.3570 N.2   500  2AM500      0.0021
     21  C2        24.5790   10.0240   44.4800 C.3   500  2AM500      0.5254
     22  N3        24.0520   11.1600   44.9370 N.2   500  2AM500     -0.0055
     23  C4        24.8710   12.1540   45.2970 C.2   500  2AM500      0.3518
@<TRIPOS>BOND
     1    20    21    1
     2    20    18    2
     3    19    18    1
     4    21    22    1
     5    18    17    1
     6    22    23    2
     7    17    23    1
     8    17    16    2
     9    23    14    1
    10    16    15    1
    11     8    13    1
    12     8     7    1
    13    14    15    1
    14    14    13    1
    15    13    11    1
    16     7     5    1
    17     7     9    1
    18     5     6    1
    19    11     9    1
    20    11    12    1
    21     9    10    1
    22    12     1    1
    23     1     3    2
    24     1     4    1
    25     1     2    1
