@<TRIPOS>MOLECULE
1pgt_GTX_A_1.pdb
 26 25 0 0 0
SMALL
GASTEIGER

@<TRIPOS>ATOM
      1  N1        19.8770   -1.5340   10.9200 N.3   210  GTX210     -0.1208
      2  CA1       20.0600   -2.4330    9.6880 C.3   210  GTX210      0.1948
      3  C1        18.8970   -3.3680    9.6050 C.2   210  GTX210      0.3819
      4  O11       18.2940   -3.7950    8.5920 O.co2 210  GTX210     -0.2441
      5  O12       18.2300   -3.6860   10.7830 O.co2 210  GTX210     -0.2441
      6  CB1       21.4570   -3.1050    9.7490 C.3   210  GTX210      0.0402
      7  CG1       21.5810   -3.9220    8.4280 C.3   210  GTX210      0.0889
      8  CD1       22.9800   -4.3400    8.1880 C.2   210  GTX210      0.2418
      9  OE1       23.8150   -4.1950    9.1330 O.2   210  GTX210     -0.2733
     10  N2        23.2970   -4.8030    6.9630 N.am  210  GTX210     -0.1969
     11  CA2       24.6210   -5.4020    6.6960 C.3   210  GTX210      0.1834
     12  C2        25.0690   -4.7210    5.3260 C.2   210  GTX210      0.2626
     13  O2        24.1870   -4.5310    4.4980 O.2   210  GTX210     -0.2714
     14  CB2       24.3950   -6.9010    6.2710 C.3   210  GTX210      0.0886
     15  SG2       23.6530   -7.7810    7.6410 S.3   210  GTX210     -0.1379
     16  C1S       24.5640   -9.3520    7.7710 C.3   210  GTX210      0.0576
     17  C2S       25.9420   -9.2610    7.1200 C.3   210  GTX210      0.0116
     18  C3S       26.0000   -9.6700    5.6480 C.3   210  GTX210      0.0009
     19  C4S       26.8140  -10.9140    5.2310 C.3   210  GTX210      0.0000
     20  C5S       28.1610  -10.6420    4.5190 C.3   210  GTX210      0.0000
     21  C6S       28.1930  -10.9500    3.0060 C.3   210  GTX210      0.0000
     22  N3        26.3380   -4.4670    5.1140 N.am  210  GTX210     -0.1917
     23  CA3       26.9160   -4.2040    3.7860 C.3   210  GTX210      0.2285
     24  C3        27.5060   -2.8330    3.7660 C.2   210  GTX210      0.3865
     25  O31       28.1830   -2.3430    2.8000 O.co2 210  GTX210     -0.2437
     26  O32       27.2980   -2.1520    4.8950 O.co2 210  GTX210     -0.2437
@<TRIPOS>BOND
     1    25    24   ar
     2    21    20    1
     3    24    23    1
     4    24    26   ar
     5    23    22    1
     6    13    12    2
     7    20    19    1
     8    22    12   am
     9    19    18    1
    10    12    11    1
    11    18    17    1
    12    14    11    1
    13    14    15    1
    14    11    10    1
    15    10     8   am
    16    17    16    1
    17    15    16    1
    18     8     7    1
    19     8     9    2
    20     7     6    1
    21     4     3   ar
    22     3     2    1
    23     3     5   ar
    24     2     6    1
    25     2     1    1
