@<TRIPOS>MOLECULE
1pgt_EPE_A_1.pdb
 15 15 0 0 0
SMALL
GASTEIGER

@<TRIPOS>ATOM
      1  N1        10.2290  -20.1670   -0.5890 N.3   211  EPE211     -0.2689
      2  C2        10.4990  -20.9020   -1.8760 C.3   211  EPE211      0.0897
      3  C3        11.6450  -20.2670   -2.6770 C.3   211  EPE211      0.0897
      4  N4        11.6360  -18.7680   -2.6150 N.3   211  EPE211     -0.2681
      5  C5        11.4390  -18.1150   -1.2800 C.3   211  EPE211      0.0897
      6  C6        10.1270  -18.6680   -0.6500 C.3   211  EPE211      0.0897
      7  C7        12.8120  -18.1960   -3.3480 C.3   211  EPE211      0.1081
      8  C8        12.3280  -17.3070   -4.5250 C.3   211  EPE211      0.1993
      9  O8        13.4040  -16.7530   -5.2240 O.3   211  EPE211     -0.2189
     10  C9         9.0340  -20.7570    0.0550 C.3   211  EPE211      0.0939
     11  C10        8.9690  -20.7660    1.5750 C.3   211  EPE211      0.1225
     12  S          7.7630  -22.0830    1.9650 S.3   211  EPE211     -0.1946
     13  O1S        8.4920  -23.1630    2.5880 O.3   211  EPE211     -0.3074
     14  O2S        6.8510  -22.2190    0.8350 O.3   211  EPE211     -0.3074
     15  O3S        6.8060  -21.3920    3.1700 O.3   211  EPE211     -0.3074
@<TRIPOS>BOND
     1     9     8    1
     2     8     7    1
     3     7     4    1
     4     3     4    1
     5     3     2    1
     6     4     5    1
     7     2     1    1
     8     5     6    1
     9     6     1    1
    10     1    10    1
    11    10    11    1
    12    14    12    1
    13    11    12    1
    14    12    13    1
    15    12    15    1
