@<TRIPOS>MOLECULE
1ph0_418_A_1.pdb
 46 48 0 0 0
SMALL
GASTEIGER

@<TRIPOS>ATOM
      1  O6        35.7330   29.8910   23.4000 O.co2 322  418322     -0.2354
      2  C24       34.8130   29.1770   23.7110 C.2   322  418322      0.4411
      3  O7        33.9700   29.5800   24.5140 O.co2 322  418322     -0.2354
      4  C8        34.6800   27.7650   23.0760 C.2   322  418322      0.3367
      5  O5        34.9130   26.8140   23.8310 O.2   322  418322     -0.2620
      6  N4        34.2610   27.5770   21.7320 N.am  322  418322     -0.2282
      7  C2        33.7830   28.6800   20.9850 C.ar  322  418322      0.0586
      8  C3        32.4670   29.2020   21.3270 C.ar  322  418322      0.0149
      9  C4        31.9220   30.2880   20.6110 C.ar  322  418322     -0.0029
     10  C5        32.6710   30.8710   19.5430 C.ar  322  418322     -0.0199
     11  C6        33.9820   30.3820   19.1790 C.ar  322  418322     -0.0029
     12  C1        34.5480   29.2740   19.9060 C.ar  322  418322      0.0149
     13  C7        31.9990   32.0180   18.7930 C.3   322  418322      0.0575
     14  C9        31.3680   31.5800   17.4250 C.3   322  418322      0.1805
     15  N1        30.7180   32.7640   16.8170 N.am  322  418322     -0.1577
     16  C10       30.6570   32.9420   15.4740 C.2   322  418322      0.4633
     17  O4        31.1040   32.1880   14.6110 O.co2 322  418322     -0.2207
     18  O23       29.9480   34.2270   15.0840 O.co2 322  418322     -0.2207
     19  C11       30.4820   30.3230   17.5770 C.2   322  418322      0.2617
     20  O8        30.9580   29.1920   17.4300 O.2   322  418322     -0.2715
     21  N2        29.1930   30.5860   17.9090 N.am  322  418322     -0.2040
     22  C12       28.2650   29.4640   18.1100 C.3   322  418322      0.1153
     23  C13       27.2510   29.7640   19.2260 C.3   322  418322      0.0273
     24  C15       27.8670   30.4800   20.4480 C.3   322  418322      0.0491
     25  C14       26.8440   30.7790   21.5500 C.3   322  418322      0.2050
     26  O1        26.1580   29.5650   21.9140 O.2   322  418322     -0.4791
     27  C32       24.8550   29.6230   22.4610 C.2   322  418322      0.1297
     28  C33       24.1590   30.8600   22.6970 C.3   322  418322      0.0903
     29  C34       22.8510   30.8450   23.2480 C.2   322  418322     -0.0149
     30  C35       22.2330   29.6150   23.5770 C.2   322  418322      0.0382
     31  C36       22.8880   28.3800   23.3590 C.2   322  418322      0.2042
     32  O13       22.2910   27.3500   23.6690 O.2   322  418322     -0.2863
     33  C37       24.2140   28.3800   22.8090 C.2   322  418322      0.1443
     34  C38       24.9200   27.0980   22.5780 C.2   322  418322      0.3471
     35  O11       25.1690   26.3300   23.4800 O.2   322  418322     -0.2447
     36  O12       25.2450   26.9000   21.2920 O.3   322  418322     -0.4412
     37  C39       25.9560   25.6960   20.8360 C.3   322  418322      0.2560
     38  C26       34.1930   26.2560   21.1480 C.ar  322  418322      0.0649
     39  C27       32.9200   25.8840   20.5450 C.ar  322  418322      0.0155
     40  C28       32.7270   24.6120   19.9320 C.ar  322  418322      0.0013
     41  C29       33.7930   23.6740   19.8700 C.ar  322  418322      0.0003
     42  C30       35.0570   23.9860   20.4380 C.ar  322  418322      0.0078
     43  C25       35.2910   25.2720   21.0640 C.ar  322  418322      0.0937
     44  C31       36.6650   25.4620   21.6050 C.2   322  418322      0.3890
     45  O9        37.1900   24.5760   22.2480 O.co2 322  418322     -0.2405
     46  O10       37.3150   26.4900   21.4400 O.co2 322  418322     -0.2405
@<TRIPOS>BOND
     1    17    16   ar
     2    18    16   ar
     3    16    15   am
     4    15    14    1
     5    14    19    1
     6    14    13    1
     7    20    19    2
     8    19    21   am
     9    21    22    1
    10    22    23    1
    11    13    10    1
    12    11    10   ar
    13    11    12   ar
    14    23    24    1
    15    10     9   ar
    16    41    40   ar
    17    41    42   ar
    18    12     7   ar
    19    40    39   ar
    20    42    43   ar
    21    24    25    1
    22    39    38   ar
    23     9     8   ar
    24    37    36    1
    25     7     8   ar
    26     7     6    1
    27    43    38   ar
    28    43    44    1
    29    38     6    1
    30    36    34    1
    31    46    44   ar
    32    25    26    1
    33    44    45   ar
    34     6     4   am
    35    26    27    1
    36    27    28    1
    37    27    33    2
    38    34    33    1
    39    34    35    2
    40    28    29    1
    41    33    31    1
    42     4     2    1
    43     4     5    2
    44    29    30    2
    45    31    30    1
    46    31    32    2
    47     1     2   ar
    48     2     3   ar
