@<TRIPOS>MOLECULE
1pha_PFZ_A_1.pdb
 22 23 0 0 0
SMALL
GASTEIGER

@<TRIPOS>ATOM
      1  C1        46.4470   45.0460   15.1690 C.3   422  PFZ422      0.1668
      2  O2        45.1620   45.6880   15.1660 O.3   422  PFZ422     -0.2191
      3  C3        46.3340   43.7140   14.4080 C.ar  422  PFZ422      0.0175
      4  C4        46.8280   44.8590   16.6610 C.3   422  PFZ422      0.0367
      5  C5        47.0170   46.3650   14.5890 C.3   422  PFZ422      0.1421
      6  C6        45.8480   43.9270   17.4040 C.3   422  PFZ422      0.0029
      7  C7        45.5460   44.4000   18.8360 C.3   422  PFZ422      0.0001
      8  C8        45.6130   43.2360   19.8420 C.3   422  PFZ422      0.0000
      9  C9        44.5650   42.1510   19.5370 C.3   422  PFZ422      0.0000
     10  C10       43.8870   41.6180   20.8140 C.3   422  PFZ422      0.0000
     11  N11       47.4320   46.1660   13.1330 N.ar  422  PFZ422     -0.3049
     12  C12       47.3450   42.7550   14.5760 C.ar  422  PFZ422     -0.0002
     13  C13       47.2880   41.5220   13.9290 C.ar  422  PFZ422      0.0112
     14  C14       46.2160   41.2260   13.0910 C.ar  422  PFZ422      0.0585
     15  C15       45.2020   42.1660   12.9090 C.ar  422  PFZ422      0.0225
     16  C16       45.2480   43.4040   13.5600 C.ar  422  PFZ422      0.0569
     17  C17       48.0570   45.0380   12.6390 C.ar  422  PFZ422      0.0981
     18  C18       48.2710   45.2150   11.3040 C.ar  422  PFZ422      0.1193
     19  N19       47.7730   46.3820   10.9750 N.ar  422  PFZ422     -0.2223
     20  C20       47.2550   46.9960   12.0900 C.ar  422  PFZ422      0.1787
     21 CL21       43.9180   44.4600   13.3040 Cl    422  PFZ422     -0.0825
     22 CL22       46.1460   39.7180   12.2870 Cl    422  PFZ422     -0.0822
@<TRIPOS>BOND
     1    19    18   ar
     2    19    20   ar
     3    18    17   ar
     4    20    11   ar
     5    22    14    1
     6    17    11   ar
     7    15    14   ar
     8    15    16   ar
     9    14    13   ar
    10    11     5    1
    11    21    16    1
    12    16     3   ar
    13    13    12   ar
    14     3    12   ar
    15     3     1    1
    16     5     1    1
    17     2     1    1
    18     1     4    1
    19     4     6    1
    20     6     7    1
    21     7     8    1
    22     9     8    1
    23     9    10    1
