@<TRIPOS>MOLECULE
1pha_HEM_A_1.pdb
 43 50 0 0 0
SMALL
GASTEIGER

@<TRIPOS>ATOM
      1 FE         48.2730   46.3120    9.1910 Fe    417  HEM417      0.0000
      2  CHA       45.1920   44.8970    8.7780 C.2   417  HEM417      0.0000
      3  CHB       49.7050   43.1860    9.2150 C.2   417  HEM417      0.0000
      4  CHC       51.4050   47.7040    9.4720 C.2   417  HEM417      0.0000
      5  CHD       46.8900   49.3960    9.3240 C.2   417  HEM417      0.0000
      6  NA        47.5820   44.4060    8.9940 N.2   417  HEM417      0.0000
      7  C1A       46.2760   44.0390    8.9340 C.2   417  HEM417      0.0000
      8  C2A       46.2010   42.5980    8.8370 C.2   417  HEM417      0.0000
      9  C3A       47.4350   42.1040    9.0400 C.2   417  HEM417      0.0000
     10  C4A       48.3360   43.2470    9.0800 C.2   417  HEM417      0.0000
     11  CMA       47.9180   40.6560    9.0760 C.3   417  HEM417      0.0000
     12  CAA       44.8660   41.8590    8.6740 C.3   417  HEM417      0.0000
     13  CBA       44.3070   41.2860    9.9640 C.3   417  HEM417      0.0000
     14  CGA       43.0780   40.4480    9.8700 C.2   417  HEM417      0.0000
     15  O1A       42.7910   40.0170    8.7480 O.co2 417  HEM417      0.0000
     16  O2A       42.5250   40.2660   10.9790 O.co2 417  HEM417      0.0000
     17  NB        50.1780   45.5850    9.3090 N.ar  417  HEM417      0.0000
     18  C1B       50.5620   44.2450    9.2760 C.ar  417  HEM417      0.0000
     19  C2B       52.0090   44.1740    9.3090 C.ar  417  HEM417      0.0000
     20  C3B       52.4900   45.4230    9.3910 C.ar  417  HEM417      0.0000
     21  C4B       51.3400   46.3150    9.3940 C.ar  417  HEM417      0.0000
     22  CMB       52.7960   42.8570    9.1910 C.3   417  HEM417      0.0000
     23  CAB       53.9300   45.9340    9.3570 C.2   417  HEM417      0.0000
     24  CBB       55.0190   45.2710    9.1000 C.2   417  HEM417      0.0000
     25  NC        49.0200   48.1860    9.4220 N.2   417  HEM417      0.0000
     26  C1C       50.3330   48.5710    9.4650 C.2   417  HEM417      0.0000
     27  C2C       50.4080   50.0250    9.5440 C.2   417  HEM417      0.0000
     28  C3C       49.1580   50.4900    9.5760 C.2   417  HEM417      0.0000
     29  C4C       48.2680   49.3400    9.4520 C.2   417  HEM417      0.0000
     30  CMC       51.7350   50.8130    9.6190 C.3   417  HEM417      0.0000
     31  CAC       48.6450   51.9370    9.5490 C.2   417  HEM417      0.0000
     32  CBC       48.6310   52.7400   10.5950 C.2   417  HEM417      0.0000
     33  ND        46.4320   47.0150    9.0230 N.ar  417  HEM417      0.0000
     34  C1D       46.0420   48.3450    9.0780 C.ar  417  HEM417      0.0000
     35  C2D       44.6070   48.4180    8.9270 C.ar  417  HEM417      0.0000
     36  C3D       44.1520   47.1750    8.7590 C.ar  417  HEM417      0.0000
     37  C4D       45.2560   46.2640    8.8680 C.ar  417  HEM417      0.0000
     38  CMD       43.8110   49.7320    8.8880 C.3   417  HEM417      0.0000
     39  CAD       42.6860   46.7200    8.5820 C.3   417  HEM417      0.0000
     40  CBD       42.1550   46.4990    7.2000 C.3   417  HEM417      0.0000
     41  CGD       40.6920   46.0490    7.1520 C.2   417  HEM417      0.0000
     42  O1D       40.1450   46.2910    6.0860 O.co2 417  HEM417      0.0000
     43  O2D       40.2370   45.4390    8.1460 O.co2 417  HEM417      0.0000
@<TRIPOS>BOND
     1    42    41   ar
     2    41    40    1
     3    41    43   ar
     4    40    39    1
     5    39    36    1
     6    12     8    1
     7    12    13    1
     8    15    14   ar
     9    36    37   ar
    10    36    35   ar
    11     2    37    2
    12     2     7    1
    13     8     7    1
    14     8     9    2
    15    37    33   ar
    16    38    35    1
    17    35    34   ar
    18     7     6    2
    19     6    10    1
    20     6     1    1
    21    33    34   ar
    22    33     1    1
    23     9    11    1
    24     9    10    1
    25    34     5    2
    26    10     3    2
    27    24    23    2
    28     1    17    1
    29     1    25    1
    30    22    19    1
    31     3    18    1
    32    18    17   ar
    33    18    19   ar
    34    17    21   ar
    35    19    20   ar
    36     5    29    1
    37    23    20    1
    38    20    21   ar
    39    21     4    1
    40    25    29    2
    41    25    26    1
    42    29    28    1
    43    26     4    2
    44    26    27    1
    45    27    28    2
    46    27    30    1
    47    31    28    1
    48    31    32    2
    49    14    13    1
    50    14    16   ar
