@<TRIPOS>MOLECULE
1phb_HEM_A_1.pdb
 43 50 0 0 0
SMALL
GASTEIGER

@<TRIPOS>ATOM
      1 FE         48.3180   46.3340    8.8840 Fe    417  HEM417      0.0000
      2  CHA       45.2190   44.9310    8.6950 C.2   417  HEM417      0.0000
      3  CHB       49.6890   43.1660    9.1870 C.2   417  HEM417      0.0000
      4  CHC       51.3970   47.6850    9.4440 C.2   417  HEM417      0.0000
      5  CHD       46.9080   49.3890    9.2940 C.2   417  HEM417      0.0000
      6  NA        47.5780   44.4280    8.9880 N.2   417  HEM417      0.0000
      7  C1A       46.2660   44.0540    8.9110 C.2   417  HEM417      0.0000
      8  C2A       46.1780   42.6040    8.9020 C.2   417  HEM417      0.0000
      9  C3A       47.3980   42.1100    9.0640 C.2   417  HEM417      0.0000
     10  C4A       48.3320   43.2660    9.1070 C.2   417  HEM417      0.0000
     11  CMA       47.9310   40.6640    9.0880 C.3   417  HEM417      0.0000
     12  CAA       44.8430   41.8470    8.7210 C.3   417  HEM417      0.0000
     13  CBA       44.2640   41.2700   10.0210 C.3   417  HEM417      0.0000
     14  CGA       43.0450   40.4560    9.8900 C.2   417  HEM417      0.0000
     15  O1A       42.7510   39.9770    8.7720 O.co2 417  HEM417      0.0000
     16  O2A       42.4250   40.2930   10.9890 O.co2 417  HEM417      0.0000
     17  NB        50.1780   45.5680    9.2520 N.ar  417  HEM417      0.0000
     18  C1B       50.5600   44.2350    9.2300 C.ar  417  HEM417      0.0000
     19  C2B       52.0100   44.1480    9.2640 C.ar  417  HEM417      0.0000
     20  C3B       52.5070   45.3840    9.3620 C.ar  417  HEM417      0.0000
     21  C4B       51.3570   46.2880    9.4220 C.ar  417  HEM417      0.0000
     22  CMB       52.7700   42.8030    9.2040 C.3   417  HEM417      0.0000
     23  CAB       53.9320   45.8550    9.3640 C.2   417  HEM417      0.0000
     24  CBB       55.0510   45.2860    9.0900 C.2   417  HEM417      0.0000
     25  NC        49.0450   48.1980    9.3260 N.2   417  HEM417      0.0000
     26  C1C       50.3420   48.5750    9.4380 C.2   417  HEM417      0.0000
     27  C2C       50.4210   50.0460    9.5180 C.2   417  HEM417      0.0000
     28  C3C       49.1600   50.4870    9.5490 C.2   417  HEM417      0.0000
     29  C4C       48.2640   49.3160    9.4990 C.2   417  HEM417      0.0000
     30  CMC       51.7030   50.8400    9.5920 C.3   417  HEM417      0.0000
     31  CAC       48.6010   51.9180    9.5320 C.2   417  HEM417      0.0000
     32  CBC       48.5380   52.5550   10.7140 C.2   417  HEM417      0.0000
     33  ND        46.4500   47.0570    8.8000 N.ar  417  HEM417      0.0000
     34  C1D       46.0380   48.3850    8.9740 C.ar  417  HEM417      0.0000
     35  C2D       44.6040   48.4550    8.9410 C.ar  417  HEM417      0.0000
     36  C3D       44.1470   47.2160    8.7120 C.ar  417  HEM417      0.0000
     37  C4D       45.2520   46.2970    8.7940 C.ar  417  HEM417      0.0000
     38  CMD       43.8200   49.7820    8.8840 C.3   417  HEM417      0.0000
     39  CAD       42.6970   46.7680    8.5190 C.3   417  HEM417      0.0000
     40  CBD       42.1580   46.6130    7.1140 C.3   417  HEM417      0.0000
     41  CGD       40.7220   46.0470    7.1180 C.2   417  HEM417      0.0000
     42  O1D       40.1260   46.2610    6.0740 O.co2 417  HEM417      0.0000
     43  O2D       40.2870   45.4800    8.1470 O.co2 417  HEM417      0.0000
@<TRIPOS>BOND
     1    42    41   ar
     2    40    41    1
     3    40    39    1
     4    41    43   ar
     5    39    36    1
     6     2    37    2
     7     2     7    1
     8    36    37   ar
     9    36    35   ar
    10    12     8    1
    11    12    13    1
    12    15    14   ar
    13    37    33   ar
    14    33     1    1
    15    33    34   ar
    16     1     6    1
    17     1    17    1
    18     1    25    1
    19    38    35    1
    20     8     7    1
    21     8     9    2
    22     7     6    2
    23    35    34   ar
    24    34     5    2
    25     6    10    1
    26     9    11    1
    27     9    10    1
    28    24    23    2
    29    10     3    2
    30     3    18    1
    31    22    19    1
    32    18    17   ar
    33    18    19   ar
    34    17    21   ar
    35    19    20   ar
    36     5    29    1
    37    25    26    1
    38    25    29    2
    39    20    23    1
    40    20    21   ar
    41    21     4    1
    42    26     4    2
    43    26    27    1
    44    29    28    1
    45    27    28    2
    46    27    30    1
    47    31    28    1
    48    31    32    2
    49    14    13    1
    50    14    16   ar
