@<TRIPOS>MOLECULE
1phb_PFZ_A_1.pdb
 22 23 0 0 0
SMALL
GASTEIGER

@<TRIPOS>ATOM
      1  C1        46.6590   45.0060   15.0380 C.3   422  PFZ422      0.1668
      2  O2        46.8060   44.7930   16.4530 O.3   422  PFZ422     -0.2191
      3  C3        46.4960   43.6390   14.3580 C.ar  422  PFZ422      0.0175
      4  C4        45.4130   45.9200   14.8750 C.3   422  PFZ422      0.0367
      5  C5        47.9500   45.7290   14.5560 C.3   422  PFZ422      0.1421
      6  C6        44.3340   45.6860   15.9560 C.3   422  PFZ422      0.0029
      7  C7        43.4690   44.4360   15.6900 C.3   422  PFZ422      0.0001
      8  C8        42.0070   44.8090   15.3660 C.3   422  PFZ422      0.0000
      9  C9        40.9850   43.8640   16.0320 C.3   422  PFZ422      0.0000
     10  C10       41.5180   43.2590   17.3460 C.3   422  PFZ422      0.0000
     11  N11       47.9030   45.9980   13.0720 N.ar  422  PFZ422     -0.3049
     12  C12       47.5830   42.7510   14.3620 C.ar  422  PFZ422     -0.0002
     13  C13       47.4960   41.4960   13.7640 C.ar  422  PFZ422      0.0112
     14  C14       46.3130   41.1000   13.1450 C.ar  422  PFZ422      0.0585
     15  C15       45.2210   41.9680   13.1290 C.ar  422  PFZ422      0.0225
     16  C16       45.2990   43.2290   13.7290 C.ar  422  PFZ422      0.0569
     17  C17       46.9050   46.7280   12.4580 C.ar  422  PFZ422      0.0981
     18  C18       47.1740   46.7900   11.1240 C.ar  422  PFZ422      0.1193
     19  N19       48.3040   46.1580   10.9190 N.ar  422  PFZ422     -0.2223
     20  C20       48.7730   45.6500   12.1070 C.ar  422  PFZ422      0.1787
     21 CL21       43.8850   44.2030   13.6650 Cl    422  PFZ422     -0.0825
     22 CL22       46.2040   39.5620   12.4040 Cl    422  PFZ422     -0.0822
@<TRIPOS>BOND
     1    19    18   ar
     2    19    20   ar
     3    18    17   ar
     4    20    11   ar
     5    22    14    1
     6    17    11   ar
     7    11     5    1
     8    15    14   ar
     9    15    16   ar
    10    14    13   ar
    11    21    16    1
    12    16     3   ar
    13    13    12   ar
    14     3    12   ar
    15     3     1    1
    16     5     1    1
    17     4     1    1
    18     4     6    1
    19     1     2    1
    20     8     7    1
    21     8     9    1
    22     7     6    1
    23     9    10    1
