@<TRIPOS>MOLECULE
1phc_HEM_A_1.pdb
 43 50 0 0 0
SMALL
GASTEIGER

@<TRIPOS>ATOM
      1 FE         48.4130   46.5290    8.9030 Fe    417  HEM417      0.0000
      2  CHA       45.2940   45.1390    8.7010 C.2   417  HEM417      0.0000
      3  CHB       49.7890   43.3700    9.3030 C.2   417  HEM417      0.0000
      4  CHC       51.5320   47.8710    9.3820 C.2   417  HEM417      0.0000
      5  CHD       47.0210   49.6070    9.3360 C.2   417  HEM417      0.0000
      6  NA        47.6980   44.6610    9.0300 N.ar  417  HEM417      0.0000
      7  C1A       46.3830   44.2940    8.8360 C.ar  417  HEM417      0.0000
      8  C2A       46.2880   42.8450    8.8540 C.ar  417  HEM417      0.0000
      9  C3A       47.5120   42.3500    9.0780 C.ar  417  HEM417      0.0000
     10  C4A       48.4260   43.4820    9.1140 C.ar  417  HEM417      0.0000
     11  CMA       47.9770   40.8880    9.0780 C.3   417  HEM417      0.0000
     12  CAA       44.9410   42.1120    8.7360 C.3   417  HEM417      0.0000
     13  CBA       44.4140   41.5210   10.0450 C.3   417  HEM417      0.0000
     14  CGA       43.1630   40.6920    9.9180 C.2   417  HEM417      0.0000
     15  O1A       42.7960   40.2730    8.7900 O.co2 417  HEM417      0.0000
     16  O2A       42.6650   40.4460   11.0500 O.co2 417  HEM417      0.0000
     17  NB        50.2640   45.7700    9.4250 N.2   417  HEM417      0.0000
     18  C1B       50.6440   44.4380    9.3120 C.2   417  HEM417      0.0000
     19  C2B       52.1020   44.3490    9.1800 C.2   417  HEM417      0.0000
     20  C3B       52.5840   45.5870    9.2220 C.2   417  HEM417      0.0000
     21  C4B       51.4590   46.4930    9.3780 C.2   417  HEM417      0.0000
     22  CMB       52.8730   43.0260    9.1350 C.3   417  HEM417      0.0000
     23  CAB       54.0350   46.0720    9.0820 C.2   417  HEM417      0.0000
     24  CBB       55.0670   45.5080    9.6120 C.2   417  HEM417      0.0000
     25  NC        49.1360   48.3590    9.3600 N.ar  417  HEM417      0.0000
     26  C1C       50.4590   48.7510    9.3460 C.ar  417  HEM417      0.0000
     27  C2C       50.5600   50.2020    9.3230 C.ar  417  HEM417      0.0000
     28  C3C       49.3100   50.6690    9.3280 C.ar  417  HEM417      0.0000
     29  C4C       48.3930   49.5330    9.4140 C.ar  417  HEM417      0.0000
     30  CMC       51.8800   50.9840    9.2580 C.3   417  HEM417      0.0000
     31  CAC       48.7910   52.1360    9.2790 C.3   417  HEM417      0.0000
     32  CBC       49.1750   52.9070   10.3230 C.3   417  HEM417      0.0000
     33  ND        46.5330   47.2190    9.0170 N.2   417  HEM417      0.0000
     34  C1D       46.1540   48.5490    9.1210 C.2   417  HEM417      0.0000
     35  C2D       44.7220   48.6650    8.9200 C.2   417  HEM417      0.0000
     36  C3D       44.2340   47.4180    8.8000 C.2   417  HEM417      0.0000
     37  C4D       45.3670   46.4950    8.8510 C.2   417  HEM417      0.0000
     38  CMD       43.9680   50.0000    8.9420 C.3   417  HEM417      0.0000
     39  CAD       42.7770   46.9720    8.5900 C.3   417  HEM417      0.0000
     40  CBD       42.2330   46.8260    7.1710 C.3   417  HEM417      0.0000
     41  CGD       40.8130   46.2740    7.0870 C.2   417  HEM417      0.0000
     42  O1D       40.2530   46.2590    5.9600 O.co2 417  HEM417      0.0000
     43  O2D       40.3230   45.7760    8.1360 O.co2 417  HEM417      0.0000
@<TRIPOS>BOND
     1    42    41   ar
     2    41    40    1
     3    41    43   ar
     4    40    39    1
     5    39    36    1
     6     2     7    2
     7     2    37    1
     8    12     8    1
     9    12    13    1
    10    15    14   ar
    11    36    37    1
    12    36    35    2
    13     7     8   ar
    14     7     6   ar
    15    37    33    2
    16     8     9   ar
    17     1    33    1
    18     1     6    1
    19     1    25    1
    20     1    17    1
    21    35    38    1
    22    35    34    1
    23    33    34    1
    24     6    10   ar
    25     9    11    1
    26     9    10   ar
    27    23    20    1
    28    23    24    2
    29    10     3    2
    30    34     5    2
    31    22    19    1
    32    19    20    2
    33    19    18    1
    34    20    21    1
    35    30    27    1
    36    31    28    1
    37    31    32    1
    38     3    18    1
    39    18    17    2
    40    27    28   ar
    41    27    26   ar
    42    28    29   ar
    43     5    29    1
    44    26    25   ar
    45    26     4    1
    46    25    29   ar
    47    21     4    2
    48    21    17    1
    49    14    13    1
    50    14    16   ar
