@<TRIPOS>MOLECULE
1phd_PIW_A_1.pdb
 11 12 0 0 0
SMALL
GASTEIGER

@<TRIPOS>ATOM
      1  N1        47.2330   45.6650   12.8660 N.ar  422  PIW422     -0.2864
      2  C2        48.0130   45.4170   11.7920 C.ar  422  PIW422      0.1828
      3  N3        48.1640   46.4980   11.1500 N.ar  422  PIW422     -0.2220
      4  C4        47.5470   47.4590   11.7450 C.ar  422  PIW422      0.1196
      5  C5        46.9260   46.9850   12.8650 C.ar  422  PIW422      0.1022
      6  C6        46.7880   44.6000   13.8360 C.ar  422  PIW422      0.0655
      7  C7        47.0370   44.7860   15.1840 C.ar  422  PIW422      0.0176
      8  C8        46.5810   43.7790   16.0850 C.ar  422  PIW422      0.0015
      9  C9        46.0500   42.6380   15.5120 C.ar  422  PIW422      0.0001
     10  C10       45.7090   42.4820   14.1820 C.ar  422  PIW422      0.0015
     11  C11       46.1260   43.5070   13.3300 C.ar  422  PIW422      0.0176
@<TRIPOS>BOND
     1     3     4   ar
     2     3     2   ar
     3     4     5   ar
     4     2     1   ar
     5     5     1   ar
     6     1     6    1
     7    11     6   ar
     8    11    10   ar
     9     6     7   ar
    10    10     9   ar
    11     7     8   ar
    12     9     8   ar
