@<TRIPOS>MOLECULE
1phd_HEM_A_1.pdb
 43 50 0 0 0
SMALL
GASTEIGER

@<TRIPOS>ATOM
      1  CHA       45.1640   45.0570    8.6760 C.2   417  HEM417      0.0000
      2  CHB       49.6510   43.2940    9.1950 C.2   417  HEM417      0.0000
      3  CHC       51.3970   47.7810    9.3790 C.2   417  HEM417      0.0000
      4  CHD       46.8930   49.5340    9.1600 C.2   417  HEM417      0.0000
      5  C1A       46.2630   44.2020    8.8320 C.2   417  HEM417      0.0000
      6  C2A       46.1580   42.7430    8.7640 C.2   417  HEM417      0.0000
      7  C3A       47.3860   42.2380    8.9720 C.2   417  HEM417      0.0000
      8  C4A       48.3240   43.4090    9.0190 C.2   417  HEM417      0.0000
      9  CMA       47.8790   40.8030    8.9370 C.3   417  HEM417      0.0000
     10  CAA       44.8300   42.0210    8.6620 C.3   417  HEM417      0.0000
     11  CBA       44.3680   41.4160   10.0210 C.3   417  HEM417      0.0000
     12  CGA       43.1250   40.5870    9.8610 C.2   417  HEM417      0.0000
     13  O1A       42.8520   40.1640    8.7040 O.co2 417  HEM417      0.0000
     14  O2A       42.5380   40.3850   10.9630 O.co2 417  HEM417      0.0000
     15  C1B       50.5080   44.3450    9.2530 C.ar  417  HEM417      0.0000
     16  C2B       51.9640   44.2490    9.1700 C.ar  417  HEM417      0.0000
     17  C3B       52.4850   45.4650    9.2640 C.ar  417  HEM417      0.0000
     18  C4B       51.3480   46.3820    9.3680 C.ar  417  HEM417      0.0000
     19  CMB       52.7120   42.8850    9.1680 C.3   417  HEM417      0.0000
     20  CAB       53.9050   45.9280    9.3590 C.2   417  HEM417      0.0000
     21  CBB       55.0760   45.4970    9.0790 C.2   417  HEM417      0.0000
     22  C1C       50.3230   48.6710    9.3010 C.2   417  HEM417      0.0000
     23  C2C       50.4310   50.1200    9.3860 C.2   417  HEM417      0.0000
     24  C3C       49.1530   50.6050    9.3930 C.2   417  HEM417      0.0000
     25  C4C       48.2540   49.4500    9.2960 C.2   417  HEM417      0.0000
     26  CMC       51.7270   50.8970    9.4900 C.3   417  HEM417      0.0000
     27  CAC       48.6390   52.0490    9.3510 C.2   417  HEM417      0.0000
     28  CBC       48.9110   52.9000   10.3960 C.2   417  HEM417      0.0000
     29  C1D       46.0200   48.4710    8.9390 C.ar  417  HEM417      0.0000
     30  C2D       44.6000   48.5820    8.8030 C.ar  417  HEM417      0.0000
     31  C3D       44.1170   47.3600    8.5870 C.ar  417  HEM417      0.0000
     32  C4D       45.2300   46.4290    8.7350 C.ar  417  HEM417      0.0000
     33  CMD       43.8400   49.9450    8.7320 C.3   417  HEM417      0.0000
     34  CAD       42.6810   46.9220    8.3760 C.3   417  HEM417      0.0000
     35  CBD       42.1470   46.7580    6.9240 C.3   417  HEM417      0.0000
     36  CGD       40.7320   46.1980    6.8800 C.2   417  HEM417      0.0000
     37  O1D       40.0980   46.2060    5.7790 O.co2 417  HEM417      0.0000
     38  O2D       40.3070   45.6440    7.9220 O.co2 417  HEM417      0.0000
     39  NA        47.5680   44.5420    8.9630 N.2   417  HEM417      0.0000
     40  NB        50.1360   45.6940    9.2570 N.ar  417  HEM417      0.0000
     41  NC        49.0160   48.3180    9.1950 N.2   417  HEM417      0.0000
     42  ND        46.4120   47.1340    8.8890 N.ar  417  HEM417      0.0000
     43 FE         48.2750   46.4580    8.8780 Fe    417  HEM417      0.0000
@<TRIPOS>BOND
     1    37    36   ar
     2    36    35    1
     3    36    38   ar
     4    35    34    1
     5    34    31    1
     6    31    32   ar
     7    31    30   ar
     8    10     6    1
     9    10    11    1
    10     1    32    2
    11     1     5    1
    12    13    12   ar
    13    33    30    1
    14    32    42   ar
    15     6     5    1
    16     6     7    2
    17    30    29   ar
    18     5    39    2
    19    43    42    1
    20    43    39    1
    21    43    41    1
    22    43    40    1
    23    42    29   ar
    24     9     7    1
    25    29     4    2
    26    39     8    1
    27     7     8    1
    28     8     2    2
    29    21    20    2
    30     4    25    1
    31    19    16    1
    32    16    15   ar
    33    16    17   ar
    34    41    25    2
    35    41    22    1
    36     2    15    1
    37    15    40   ar
    38    40    18   ar
    39    17    20    1
    40    17    18   ar
    41    25    24    1
    42    22     3    2
    43    22    23    1
    44    27    24    1
    45    27    28    2
    46    18     3    1
    47    23    24    2
    48    23    26    1
    49    12    11    1
    50    12    14   ar
