@<TRIPOS>MOLECULE
1phe_HEM_A_1.pdb
 43 50 0 0 0
SMALL
GASTEIGER

@<TRIPOS>ATOM
      1  CHA       45.2660   44.8380    8.9720 C.2   417  HEM417      0.0000
      2  CHB       49.7440   43.1000    9.5150 C.2   417  HEM417      0.0000
      3  CHC       51.4490   47.6140    9.4340 C.2   417  HEM417      0.0000
      4  CHD       46.9830   49.2850    9.7460 C.2   417  HEM417      0.0000
      5  C1A       46.3290   43.9550    9.1050 C.ar  417  HEM417      0.0000
      6  C2A       46.2450   42.4980    9.1030 C.ar  417  HEM417      0.0000
      7  C3A       47.4950   42.0230    9.2390 C.ar  417  HEM417      0.0000
      8  C4A       48.3660   43.1750    9.3930 C.ar  417  HEM417      0.0000
      9  CMA       47.9590   40.5670    9.2850 C.3   417  HEM417      0.0000
     10  CAA       44.9310   41.7230    8.9200 C.3   417  HEM417      0.0000
     11  CBA       44.3080   41.1840   10.2490 C.3   417  HEM417      0.0000
     12  CGA       43.0370   40.4450   10.0220 C.2   417  HEM417      0.0000
     13  O1A       42.7550   40.0020    8.8360 O.co2 417  HEM417      0.0000
     14  O2A       42.3520   40.3630   11.0740 O.co2 417  HEM417      0.0000
     15  C1B       50.5810   44.1830    9.4700 C.2   417  HEM417      0.0000
     16  C2B       52.0350   44.1070    9.4690 C.2   417  HEM417      0.0000
     17  C3B       52.5070   45.3660    9.4900 C.2   417  HEM417      0.0000
     18  C4B       51.3780   46.2320    9.4500 C.2   417  HEM417      0.0000
     19  CMB       52.8370   42.7980    9.5130 C.3   417  HEM417      0.0000
     20  CAB       53.9520   45.8370    9.5010 C.2   417  HEM417      0.0000
     21  CBB       55.0540   45.1940    9.3700 C.2   417  HEM417      0.0000
     22  C1C       50.3960   48.4940    9.5400 C.ar  417  HEM417      0.0000
     23  C2C       50.4980   49.9360    9.4900 C.ar  417  HEM417      0.0000
     24  C3C       49.2450   50.3940    9.6060 C.ar  417  HEM417      0.0000
     25  C4C       48.3390   49.2670    9.7710 C.ar  417  HEM417      0.0000
     26  CMC       51.8330   50.7020    9.3910 C.3   417  HEM417      0.0000
     27  CAC       48.7320   51.8750    9.5950 C.2   417  HEM417      0.0000
     28  CBC       48.3610   52.3920   10.7550 C.2   417  HEM417      0.0000
     29  C1D       46.1020   48.2560    9.4250 C.2   417  HEM417      0.0000
     30  C2D       44.6880   48.3560    9.2270 C.2   417  HEM417      0.0000
     31  C3D       44.1950   47.1230    9.0320 C.2   417  HEM417      0.0000
     32  C4D       45.2900   46.2060    9.1080 C.2   417  HEM417      0.0000
     33  CMD       43.9480   49.7220    9.2580 C.3   417  HEM417      0.0000
     34  CAD       42.7310   46.7040    8.8250 C.2   417  HEM417      0.0000
     35  CBD       42.1610   46.5590    7.4230 C.2   417  HEM417      0.0000
     36  CGD       40.7160   46.1030    7.3080 C.2   417  HEM417      0.0000
     37  O1D       40.1880   46.1820    6.1650 O.co2 417  HEM417      0.0000
     38  O2D       40.1990   45.6460    8.3320 O.co2 417  HEM417      0.0000
     39  NA        47.6330   44.3230    9.2360 N.ar  417  HEM417      0.0000
     40  NB        50.1740   45.5380    9.4980 N.2   417  HEM417      0.0000
     41  NC        49.0800   48.0990    9.6630 N.ar  417  HEM417      0.0000
     42  ND        46.4930   46.9000    9.2830 N.2   417  HEM417      0.0000
     43 FE         48.3260   46.2830    9.0060 Fe    417  HEM417      0.0000
@<TRIPOS>BOND
     1    37    36   ar
     2    36    35    1
     3    36    38   ar
     4    35    34    2
     5    34    31    1
     6    13    12   ar
     7    10     6    1
     8    10    11    1
     9     1     5    2
    10     1    32    1
    11    43    39    1
    12    43    42    1
    13    43    40    1
    14    43    41    1
    15    31    32    1
    16    31    30    2
    17     6     5   ar
    18     6     7   ar
    19     5    39   ar
    20    32    42    2
    21    30    33    1
    22    30    29    1
    23    39     8   ar
    24     7     9    1
    25     7     8   ar
    26    42    29    1
    27    21    20    2
    28    26    23    1
    29     8     2    2
    30    29     4    2
    31     3    18    2
    32     3    22    1
    33    18    17    1
    34    18    40    1
    35    16    15    1
    36    16    17    2
    37    16    19    1
    38    15    40    2
    39    15     2    1
    40    17    20    1
    41    23    22   ar
    42    23    24   ar
    43    22    41   ar
    44    27    24    1
    45    27    28    2
    46    24    25   ar
    47    41    25   ar
    48     4    25    1
    49    12    11    1
    50    12    14   ar
