@<TRIPOS>MOLECULE
1phe_PIY_A_1.pdb
 11 12 0 0 0
SMALL
GASTEIGER

@<TRIPOS>ATOM
      1  N1        44.4420   45.1950   16.9730 N.2   422  PIY422     -0.1906
      2  C2        45.6850   44.8470   16.5830 C.1   422  PIY422      0.0354
      3  N3        46.4920   45.1070   17.6720 N.2   422  PIY422     -0.1906
      4  C4        44.5470   45.5920   18.3230 C.2   422  PIY422      0.1310
      5  C5        45.7790   45.5050   18.7070 C.2   422  PIY422      0.1310
      6  C6        46.1820   44.3260   15.2560 C.ar  422  PIY422      0.0624
      7  C7        45.2950   44.0900   14.2120 C.ar  422  PIY422      0.0100
      8  C8        45.7340   43.6690   12.9460 C.ar  422  PIY422      0.0007
      9  C9        47.0730   43.3090   12.8060 C.ar  422  PIY422      0.0000
     10  C10       47.9610   43.4660   13.8580 C.ar  422  PIY422      0.0007
     11  C11       47.5010   43.9490   15.0700 C.ar  422  PIY422      0.0100
@<TRIPOS>BOND
     1     9     8   ar
     2     9    10   ar
     3     8     7   ar
     4    10    11   ar
     5     7     6   ar
     6    11     6   ar
     7     6     2    1
     8     2     1    2
     9     2     3    2
    10     1     4    1
    11     3     5    1
    12     4     5    2
