@<TRIPOS>MOLECULE
1phf_PIM_A_1.pdb
 11 12 0 0 0
SMALL
GASTEIGER

@<TRIPOS>ATOM
      1  N1        48.7280   45.9310   12.9420 N.2   422  PIM422     -0.2267
      2  C2        48.9310   46.3320   11.6200 C.2   422  PIM422      0.1943
      3  N3        47.8430   46.2770   11.0220 N.2   422  PIM422     -0.2436
      4  C4        46.8900   45.8360   11.8300 C.3   422  PIM422      0.1726
      5  C5        47.4330   45.5820   13.0400 C.2   422  PIM422      0.0853
      6  C6        46.8080   45.0660   14.3170 C.ar  422  PIM422      0.0156
      7  C7        47.3370   43.9030   14.9040 C.ar  422  PIM422      0.0012
      8  C8        46.8150   43.4730   16.1540 C.ar  422  PIM422      0.0000
      9  C9        45.8500   44.2560   16.7780 C.ar  422  PIM422      0.0000
     10  C10       45.2880   45.3700   16.1590 C.ar  422  PIM422      0.0000
     11  C11       45.8600   45.7890   14.9510 C.ar  422  PIM422      0.0012
@<TRIPOS>BOND
     1     3     2    2
     2     3     4    1
     3     2     1    1
     4     4     5    1
     5     1     5    2
     6     5     6    1
     7     6     7   ar
     8     6    11   ar
     9     7     8   ar
    10    11    10   ar
    11     8     9   ar
    12    10     9   ar
