@<TRIPOS>MOLECULE
1phf_HEM_A_1.pdb
 43 50 0 0 0
SMALL
GASTEIGER

@<TRIPOS>ATOM
      1 FE         48.3010   46.4470    8.8580 Fe    417  HEM417      0.0000
      2  CHA       45.1760   45.0260    8.6970 C.2   417  HEM417      0.0000
      3  CHB       49.6830   43.2480    9.0750 C.2   417  HEM417      0.0000
      4  CHC       51.3910   47.7500    9.4080 C.2   417  HEM417      0.0000
      5  CHD       46.9360   49.4970    9.2070 C.2   417  HEM417      0.0000
      6  NA        47.6060   44.5240    8.8380 N.ar  417  HEM417      0.0000
      7  C1A       46.2680   44.1750    8.7770 C.ar  417  HEM417      0.0000
      8  C2A       46.1800   42.7380    8.8120 C.ar  417  HEM417      0.0000
      9  C3A       47.3920   42.2440    8.9910 C.ar  417  HEM417      0.0000
     10  C4A       48.3310   43.3830    8.9810 C.ar  417  HEM417      0.0000
     11  CMA       47.9010   40.7850    9.0440 C.3   417  HEM417      0.0000
     12  CAA       44.8060   42.0400    8.7150 C.3   417  HEM417      0.0000
     13  CBA       44.3170   41.5290   10.0810 C.3   417  HEM417      0.0000
     14  CGA       43.0990   40.6500    9.9820 C.2   417  HEM417      0.0000
     15  O1A       42.8220   40.2210    8.8490 O.co2 417  HEM417      0.0000
     16  O2A       42.5960   40.4040   11.1270 O.co2 417  HEM417      0.0000
     17  NB        50.1580   45.6620    9.2270 N.2   417  HEM417      0.0000
     18  C1B       50.5170   44.3110    9.2010 C.2   417  HEM417      0.0000
     19  C2B       51.9830   44.2170    9.1610 C.2   417  HEM417      0.0000
     20  C3B       52.4890   45.4650    9.2480 C.2   417  HEM417      0.0000
     21  C4B       51.3360   46.3690    9.3560 C.2   417  HEM417      0.0000
     22  CMB       52.7320   42.8900    9.0660 C.3   417  HEM417      0.0000
     23  CAB       53.9180   45.9150    9.4180 C.2   417  HEM417      0.0000
     24  CBB       55.0150   45.6360    8.8320 C.2   417  HEM417      0.0000
     25  NC        49.0340   48.3010    9.3260 N.ar  417  HEM417      0.0000
     26  C1C       50.3540   48.6590    9.3770 C.ar  417  HEM417      0.0000
     27  C2C       50.4650   50.1120    9.4210 C.ar  417  HEM417      0.0000
     28  C3C       49.2250   50.6000    9.3770 C.ar  417  HEM417      0.0000
     29  C4C       48.2970   49.4550    9.3770 C.ar  417  HEM417      0.0000
     30  CMC       51.8130   50.8560    9.5030 C.3   417  HEM417      0.0000
     31  CAC       48.7350   52.0550    9.3530 C.2   417  HEM417      0.0000
     32  CBC       48.7740   52.8680   10.3960 C.2   417  HEM417      0.0000
     33  ND        46.4220   47.1280    8.8270 N.2   417  HEM417      0.0000
     34  C1D       46.0440   48.4770    8.9360 C.2   417  HEM417      0.0000
     35  C2D       44.6380   48.5780    8.7620 C.2   417  HEM417      0.0000
     36  C3D       44.1360   47.3350    8.6830 C.2   417  HEM417      0.0000
     37  C4D       45.2630   46.4090    8.8190 C.2   417  HEM417      0.0000
     38  CMD       43.8550   49.9160    8.6700 C.3   417  HEM417      0.0000
     39  CAD       42.7010   46.8550    8.4570 C.3   417  HEM417      0.0000
     40  CBD       42.2540   46.5890    7.0190 C.3   417  HEM417      0.0000
     41  CGD       40.8120   46.1180    6.9030 C.2   417  HEM417      0.0000
     42  O1D       40.2730   46.3310    5.8110 O.co2 417  HEM417      0.0000
     43  O2D       40.2720   45.5970    7.9440 O.co2 417  HEM417      0.0000
@<TRIPOS>BOND
     1    42    41   ar
     2    41    40    1
     3    41    43   ar
     4    40    39    1
     5    39    36    1
     6    38    35    1
     7    36    35    2
     8    36    37    1
     9     2     7    2
    10     2    37    1
    11    12     8    1
    12    12    13    1
    13    35    34    1
    14     7     8   ar
    15     7     6   ar
    16     8     9   ar
    17    37    33    2
    18    33     1    1
    19    33    34    1
    20    24    23    2
    21     6     1    1
    22     6    10   ar
    23    15    14   ar
    24     1    17    1
    25     1    25    1
    26    34     5    2
    27    10     9   ar
    28    10     3    2
    29     9    11    1
    30    22    19    1
    31     3    18    1
    32    19    18    1
    33    19    20    2
    34    18    17    2
    35     5    29    1
    36    17    21    1
    37    20    21    1
    38    20    23    1
    39    25    29   ar
    40    25    26   ar
    41    31    28    1
    42    31    32    2
    43    21     4    2
    44    29    28   ar
    45    28    27   ar
    46    26     4    1
    47    26    27   ar
    48    27    30    1
    49    14    13    1
    50    14    16   ar
