@<TRIPOS>MOLECULE
1phg_MYT_A_1.pdb
 17 18 0 0 0
SMALL
GASTEIGER

@<TRIPOS>ATOM
      1  N1        47.8880   46.5280   11.0310 N.ar  422  MYT422     -0.2422
      2  C2        48.0450   45.3490   11.7620 C.ar  422  MYT422      0.1017
      3  C3        47.6660   45.2520   13.0220 C.ar  422  MYT422      0.0541
      4  C4        47.1290   46.2660   13.7430 C.ar  422  MYT422      0.0060
      5  C5        46.8040   47.5020   13.0720 C.ar  422  MYT422      0.0208
      6  C6        47.2490   47.5760   11.7570 C.ar  422  MYT422      0.0989
      7  C7        47.7160   43.8630   13.6880 C.2   422  MYT422      0.1775
      8  O8        48.7760   43.3690   13.8290 O.2   422  MYT422     -0.2910
      9  C9        45.4460   43.2670   12.8700 C.3   422  MYT422      0.0122
     10  C10       46.3590   43.3260   14.1640 C.3   422  MYT422      0.0758
     11  C11       46.5030   41.7370   14.3860 C.3   422  MYT422      0.0122
     12  C12       45.8330   43.9110   15.3670 C.ar  422  MYT422      0.0033
     13  C13       44.5440   44.4080   15.4280 C.ar  422  MYT422      0.0950
     14  N14       44.0200   45.0780   16.5120 N.ar  422  MYT422     -0.2426
     15  C15       44.8220   45.2460   17.6310 C.ar  422  MYT422      0.0989
     16  C16       46.1430   44.7750   17.6560 C.ar  422  MYT422      0.0204
     17  C17       46.6010   44.1400   16.4980 C.ar  422  MYT422     -0.0007
@<TRIPOS>BOND
     1     1     6   ar
     2     1     2   ar
     3     6     5   ar
     4     2     3   ar
     5     9    10    1
     6     3     7    1
     7     3     4   ar
     8     5     4   ar
     9     7     8    2
    10     7    10    1
    11    10    11    1
    12    10    12    1
    13    12    13   ar
    14    12    17   ar
    15    13    14   ar
    16    17    16   ar
    17    14    15   ar
    18    15    16   ar
