@<TRIPOS>MOLECULE
1phg_HEM_A_1.pdb
 43 50 0 0 0
SMALL
GASTEIGER

@<TRIPOS>ATOM
      1 FE         48.2160   46.4470    8.8960 Fe    417  HEM417      0.0000
      2  CHA       45.1180   45.0360    8.8380 C.2   417  HEM417      0.0000
      3  CHB       49.5900   43.2060    9.2620 C.2   417  HEM417      0.0000
      4  CHC       51.3610   47.7160    9.4460 C.2   417  HEM417      0.0000
      5  CHD       46.8850   49.5160    9.2000 C.2   417  HEM417      0.0000
      6  NA        47.5100   44.5340    9.0910 N.2   417  HEM417      0.0000
      7  C1A       46.1990   44.1720    8.9660 C.2   417  HEM417      0.0000
      8  C2A       46.0880   42.7140    8.9140 C.2   417  HEM417      0.0000
      9  C3A       47.3060   42.2040    9.0830 C.2   417  HEM417      0.0000
     10  C4A       48.2310   43.3440    9.1580 C.2   417  HEM417      0.0000
     11  CMA       47.7560   40.7430    9.0400 C.3   417  HEM417      0.0000
     12  CAA       44.7210   42.0390    8.7690 C.3   417  HEM417      0.0000
     13  CBA       44.1270   41.5200   10.1020 C.3   417  HEM417      0.0000
     14  CGA       42.9520   40.5780    9.8940 C.2   417  HEM417      0.0000
     15  O1A       42.7230   40.1020    8.7390 O.co2 417  HEM417      0.0000
     16  O2A       42.4190   40.4150   11.0270 O.co2 417  HEM417      0.0000
     17  NB        50.0520   45.6370    9.3880 N.ar  417  HEM417      0.0000
     18  C1B       50.4370   44.2970    9.2920 C.ar  417  HEM417      0.0000
     19  C2B       51.8880   44.1750    9.2970 C.ar  417  HEM417      0.0000
     20  C3B       52.3900   45.4020    9.4110 C.ar  417  HEM417      0.0000
     21  C4B       51.2610   46.3200    9.4430 C.ar  417  HEM417      0.0000
     22  CMB       52.6310   42.8270    9.2070 C.3   417  HEM417      0.0000
     23  CAB       53.8450   45.8680    9.3630 C.2   417  HEM417      0.0000
     24  CBB       54.8980   45.1060    9.5890 C.2   417  HEM417      0.0000
     25  NC        48.9810   48.2560    9.3850 N.2   417  HEM417      0.0000
     26  C1C       50.3140   48.6230    9.3820 C.2   417  HEM417      0.0000
     27  C2C       50.4310   50.0720    9.4220 C.2   417  HEM417      0.0000
     28  C3C       49.1740   50.5460    9.4550 C.2   417  HEM417      0.0000
     29  C4C       48.2630   49.4380    9.3660 C.2   417  HEM417      0.0000
     30  CMC       51.7470   50.8430    9.4750 C.3   417  HEM417      0.0000
     31  CAC       48.6730   52.0220    9.4160 C.2   417  HEM417      0.0000
     32  CBC       48.8020   52.7640   10.5290 C.2   417  HEM417      0.0000
     33  ND        46.3740   47.1320    8.9930 N.ar  417  HEM417      0.0000
     34  C1D       46.0030   48.4860    8.9420 C.ar  417  HEM417      0.0000
     35  C2D       44.5870   48.5830    8.8160 C.ar  417  HEM417      0.0000
     36  C3D       44.0900   47.3500    8.7520 C.ar  417  HEM417      0.0000
     37  C4D       45.1950   46.4140    8.8680 C.ar  417  HEM417      0.0000
     38  CMD       43.8080   49.9190    8.7580 C.3   417  HEM417      0.0000
     39  CAD       42.6340   46.9460    8.5710 C.3   417  HEM417      0.0000
     40  CBD       42.1110   46.6700    7.1430 C.3   417  HEM417      0.0000
     41  CGD       40.6460   46.1920    7.2170 C.2   417  HEM417      0.0000
     42  O1D       40.0330   46.3010    6.1390 O.co2 417  HEM417      0.0000
     43  O2D       40.2610   45.6330    8.2860 O.co2 417  HEM417      0.0000
@<TRIPOS>BOND
     1    42    41   ar
     2    40    41    1
     3    40    39    1
     4    41    43   ar
     5    39    36    1
     6    15    14   ar
     7    36    35   ar
     8    36    37   ar
     9    38    35    1
    10    12     8    1
    11    12    13    1
    12    35    34   ar
    13     2    37    2
    14     2     7    1
    15    37    33   ar
    16     1    33    1
    17     1     6    1
    18     1    25    1
    19     1    17    1
    20     8     7    1
    21     8     9    2
    22    34    33   ar
    23    34     5    2
    24     7     6    2
    25    11     9    1
    26     9    10    1
    27     6    10    1
    28    10     3    2
    29     5    29    1
    30    22    19    1
    31     3    18    1
    32    18    19   ar
    33    18    17   ar
    34    19    20   ar
    35    23    20    1
    36    23    24    2
    37    29    25    2
    38    29    28    1
    39    26    25    1
    40    26    27    1
    41    26     4    2
    42    17    21   ar
    43    20    21   ar
    44    31    28    1
    45    31    32    2
    46    27    28    2
    47    27    30    1
    48    21     4    1
    49    14    13    1
    50    14    16   ar
