@<TRIPOS>MOLECULE
1phh_DHB_A_1.pdb
 11 11 0 0 0
SMALL
GASTEIGER

@<TRIPOS>ATOM
      1  C1        17.3560   95.3600   46.0900 C.ar  396  DHB396      0.0832
      2  C2        18.2510   94.5370   46.7400 C.ar  396  DHB396      0.0520
      3  C3        18.2150   93.1600   46.5610 C.ar  396  DHB396      0.2345
      4  O3        19.1370   92.4360   47.2330 O.3   396  DHB396     -0.2831
      5  C4        17.2660   92.5850   45.7130 C.ar  396  DHB396      0.2343
      6  O4        17.2870   91.2390   45.5630 O.3   396  DHB396     -0.2831
      7  C5        16.3550   93.4000   45.0400 C.ar  396  DHB396      0.0456
      8  C6        16.4200   94.7840   45.2280 C.ar  396  DHB396      0.0101
      9  C         17.4500   96.8100   46.2960 C.2   396  DHB396      0.3879
     10  O1        16.6100   97.6110   45.6610 O.co2 396  DHB396     -0.2406
     11  O2        18.2900   97.3260   47.0200 O.co2 396  DHB396     -0.2406
@<TRIPOS>BOND
     1     7     8   ar
     2     7     5   ar
     3     8     1   ar
     4     6     5    1
     5    10     9   ar
     6     5     3   ar
     7     1     9    1
     8     1     2   ar
     9     9    11   ar
    10     3     2   ar
    11     3     4    1
