@<TRIPOS>MOLECULE
1phk_ATP_A_1.pdb
 31 33 0 0 0
SMALL
GASTEIGER

@<TRIPOS>ATOM
      1  PG        14.7640   21.6290   14.9470 P.3   381  ATP381      0.5373
      2  O1G       16.1920   21.4280   14.5930 O.3   381  ATP381     -0.1143
      3  O2G       13.9400   22.2210   13.8230 O.2   381  ATP381     -0.2221
      4  O3G       14.6860   22.5480   16.0510 O.3   381  ATP381     -0.1143
      5  PB        14.1700   19.2880   16.7980 P.3   381  ATP381      0.2277
      6  O1B       15.5440   18.9530   17.1980 O.2   381  ATP381     -0.5168
      7  O2B       13.3250   19.9520   17.7820 O.3   381  ATP381     -0.4368
      8  O3B       14.1530   20.1690   15.4440 O.3   381  ATP381     -0.2258
      9  PA        11.8800   17.7790   15.9390 P.3   381  ATP381      0.2189
     10  O1A       11.0180   17.5830   17.1140 O.3   381  ATP381     -0.4371
     11  O2A       11.4370   18.8460   15.0640 O.2   381  ATP381     -0.5170
     12  O3A       13.3950   18.0120   16.3810 O.3   381  ATP381     -0.2700
     13  O5'       12.0360   16.4240   15.1240 O.3   381  ATP381     -0.3112
     14  C5'       13.1550   16.4170   14.1820 C.3   381  ATP381      0.1813
     15  C4'       12.8220   15.6270   12.9190 C.3   381  ATP381      0.1821
     16  O4'       12.6070   14.2380   13.3210 O.3   381  ATP381     -0.3135
     17  C3'       11.5160   15.9870   12.2210 C.3   381  ATP381      0.2184
     18  O3'       11.6580   17.0240   11.3300 O.3   381  ATP381     -0.2174
     19  C2'       11.0670   14.6450   11.6010 C.3   381  ATP381      0.2570
     20  O2'       11.6340   14.3190   10.3600 O.3   381  ATP381     -0.2130
     21  C1'       11.5200   13.6640   12.6140 C.3   381  ATP381      0.3186
     22  N9        10.4590   13.2580   13.5540 N.pl3 381  ATP381     -0.1439
     23  C8        10.1240   14.0500   14.6480 C.3   381  ATP381      0.3377
     24  N7         8.9720   13.7260   15.2180 N.2   381  ATP381     -0.2095
     25  C5         8.5470   12.6090   14.4980 C.2   381  ATP381      0.2526
     26  C6         7.4170   11.6840   14.6200 C.2   381  ATP381      0.4393
     27  N6         6.5250   11.6770   15.6050 N.pl3 381  ATP381      0.2180
     28  N1         7.2630   10.7810   13.6130 N.2   381  ATP381      0.0021
     29  C2         8.1830   10.7410   12.6140 C.3   381  ATP381      0.5254
     30  N3         9.3880   11.2900   12.6070 N.2   381  ATP381     -0.0055
     31  C4         9.4160   12.3830   13.4160 C.2   381  ATP381      0.3518
@<TRIPOS>BOND
     1    20    19    1
     2    18    17    1
     3    19    17    1
     4    19    21    1
     5    17    15    1
     6    30    29    1
     7    30    31    2
     8    29    28    1
     9    21    16    1
    10    21    22    1
    11    15    16    1
    12    15    14    1
    13    31    22    1
    14    31    25    1
    15    22    23    1
    16    28    26    2
    17     3     1    2
    18    14    13    1
    19    25    26    1
    20    25    24    2
    21     2     1    1
    22    26    27    1
    23    23    24    1
    24     1     8    1
    25     1     4    1
    26    11     9    2
    27    13     9    1
    28     8     5    1
    29     9    12    1
    30     9    10    1
    31    12     5    1
    32     5     6    2
    33     5     7    1
