@<TRIPOS>MOLECULE
1phn_PEB_B_1.pdb
 43 46 0 0 0
SMALL
GASTEIGER

@<TRIPOS>ATOM
      1  CHC      -19.3170   -5.1730   17.7200 C.3   182  PEB182      0.1181
      2  NC       -20.0100   -2.8790   17.7640 N.2   182  PEB182     -0.4104
      3  C1C      -19.4720   -1.6340   17.6620 C.2   182  PEB182      0.1114
      4  C2C      -18.0270   -1.7100   17.5440 C.2   182  PEB182      0.0024
      5  C3C      -17.6940   -3.0120   17.5960 C.2   182  PEB182      0.0021
      6  C4C      -18.9450   -3.7380   17.7880 C.2   182  PEB182      0.1114
      7  CMC      -16.2510   -3.5030   17.4310 C.3   182  PEB182      0.0331
      8  CAC      -16.9780   -0.6140   17.3010 C.3   182  PEB182      0.0402
      9  CBC      -17.3330    0.5060   16.3250 C.3   182  PEB182      0.1188
     10  CGC      -17.9790    0.0020   15.0580 C.2   182  PEB182      0.3652
     11  O1C      -19.0540    0.5220   14.6950 O.co2 182  PEB182     -0.2456
     12  O2C      -17.4240   -0.9200   14.4310 O.co2 182  PEB182     -0.2456
     13  ND       -18.7980   -7.4890   18.1930 N.2   182  PEB182     -0.3375
     14  C1D      -18.5350   -6.2990   17.5480 C.2   182  PEB182      0.1254
     15  C2D      -17.5270   -6.4620   16.5060 C.2   182  PEB182      0.0128
     16  C3D      -17.2730   -7.7770   16.4350 C.2   182  PEB182      0.0706
     17  C4D      -18.0590   -8.4070   17.5110 C.1   182  PEB182      0.2000
     18  CMD      -16.8520   -5.3820   15.6790 C.3   182  PEB182      0.0339
     19  CAD      -16.3950   -8.4390   15.3510 C.3   182  PEB182      0.0390
     20  CBD      -17.0510   -9.5940   14.6060 C.3   182  PEB182      0.0058
     21  OD       -18.1080   -9.6590   17.6360 O.2   182  PEB182     -0.2096
     22  NA       -25.9430   -0.1650   20.9420 N.2   182  PEB182     -0.3448
     23  C1A      -27.2070   -0.1980   21.5950 C.1   182  PEB182      0.1788
     24  C2A      -27.5330   -1.5940   21.6710 C.3   182  PEB182      0.1246
     25  C3A      -26.6980   -2.4330   20.7890 C.3   182  PEB182      0.0660
     26  C4A      -25.6310   -1.4120   20.3310 C.2   182  PEB182      0.1070
     27  CMA      -27.7360   -2.1410   22.8940 C.3   182  PEB182      0.0192
     28  CBA      -28.0010   -4.6200   20.2920 C.3   182  PEB182      0.0005
     29  OA       -27.8630    0.6300   22.2470 O.2   182  PEB182     -0.2142
     30  CHA      -24.5870   -1.6310   19.4290 C.3   182  PEB182      0.1138
     31  CAA      -27.3940   -3.3660   19.6760 C.3   182  PEB182      0.0078
     32  NB       -22.3160   -1.3820   18.7240 N.2   182  PEB182     -0.4104
     33  C1B      -23.5230   -0.8290   19.0450 C.2   182  PEB182      0.1111
     34  C2B      -23.4990    0.5540   18.6940 C.2   182  PEB182      0.0021
     35  C3B      -22.2930    0.7930   18.1710 C.2   182  PEB182      0.0024
     36  C4B      -21.5540   -0.3920   18.1970 C.2   182  PEB182      0.1114
     37  CHB      -20.2080   -0.4770   17.8140 C.3   182  PEB182      0.1170
     38  CMB      -24.6050    1.5970   18.7500 C.3   182  PEB182      0.0331
     39  CAB      -21.8250    2.0460   17.4890 C.3   182  PEB182      0.0402
     40  CBB      -21.1760    2.9450   18.5000 C.3   182  PEB182      0.1188
     41  CGB      -20.8340    4.2930   17.9110 C.2   182  PEB182      0.3652
     42  O1B      -21.1860    5.2980   18.5470 O.co2 182  PEB182     -0.2456
     43  O2B      -20.2320    4.3440   16.8130 O.co2 182  PEB182     -0.2456
@<TRIPOS>BOND
     1    12    10   ar
     2    20    19    1
     3    11    10   ar
     4    10     9    1
     5    19    16    1
     6    18    15    1
     7     9     8    1
     8    16    15    2
     9    16    17    1
    10    15    14    1
    11    43    41   ar
    12     8     4    1
    13     7     5    1
    14    39    35    1
    15    39    40    1
    16    17    21    2
    17    17    13    2
    18     4     5    2
    19     4     3    1
    20    14     1    1
    21    14    13    2
    22     5     6    1
    23     3     2    2
    24     3    37    1
    25     1     6    1
    26     2     6    2
    27    37    36    1
    28    41    40    1
    29    41    42   ar
    30    35    36    1
    31    35    34    2
    32    36    32    2
    33    34    38    1
    34    34    33    1
    35    32    33    2
    36    33    30    1
    37    30    26    1
    38    31    28    1
    39    31    25    1
    40    26    25    1
    41    26    22    2
    42    25    24    1
    43    22    23    2
    44    23    24    1
    45    23    29    2
    46    24    27    1
