@<TRIPOS>MOLECULE
1php_ADP_A_1.pdb
 27 29 0 0 0
SMALL
GASTEIGER

@<TRIPOS>ATOM
      1  PB        44.6690    2.9280   38.5560 P.3   396  ADP396      0.5373
      2  O1B       46.0210    3.5080   38.3170 O.3   396  ADP396     -0.1143
      3  O2B       43.7090    3.8120   37.9050 O.2   396  ADP396     -0.2221
      4  O3B       44.4590    1.4490   38.3820 O.3   396  ADP396     -0.1143
      5  PA        43.2300    2.9550   41.1100 P.3   396  ADP396      0.2231
      6  O1A       41.9750    3.4970   40.5730 O.2   396  ADP396     -0.5169
      7  O2A       42.9620    1.5010   41.4010 O.3   396  ADP396     -0.4370
      8  O3A       44.5220    3.2100   40.2120 O.3   396  ADP396     -0.2261
      9  O5'       43.4620    3.8320   42.4070 O.3   396  ADP396     -0.3111
     10  C5'       43.7350    5.2460   42.3350 C.3   396  ADP396      0.1813
     11  C4'       43.0950    5.8100   43.6260 C.3   396  ADP396      0.1821
     12  O4'       43.7640    5.2610   44.7790 O.3   396  ADP396     -0.3135
     13  C3'       43.3370    7.3250   43.6170 C.3   396  ADP396      0.2184
     14  O3'       42.0560    7.9880   43.5600 O.3   396  ADP396     -0.2174
     15  C2'       43.9460    7.5930   45.0830 C.3   396  ADP396      0.2570
     16  O2'       43.5540    8.7260   45.8770 O.3   396  ADP396     -0.2130
     17  C1'       43.6130    6.2750   45.8130 C.3   396  ADP396      0.3186
     18  N9        44.3750    5.7810   46.9910 N.pl3 396  ADP396     -0.1439
     19  C8        45.7110    5.4860   47.0620 C.3   396  ADP396      0.3377
     20  N7        46.2020    5.3790   48.2820 N.2   396  ADP396     -0.2095
     21  C5        45.0670    5.5970   49.0640 C.2   396  ADP396      0.2526
     22  C6        44.8830    5.6230   50.4990 C.2   396  ADP396      0.4393
     23  N6        45.9120    5.4330   51.3250 N.pl3 396  ADP396      0.2180
     24  N1        43.6260    5.8520   50.8960 N.2   396  ADP396      0.0021
     25  C2        42.5900    6.0760   50.0670 C.3   396  ADP396      0.5254
     26  N3        42.6750    6.0670   48.7350 N.2   396  ADP396     -0.0055
     27  C4        43.9510    5.8210   48.3040 C.2   396  ADP396      0.3518
@<TRIPOS>BOND
     1     3     1    2
     2     2     1    1
     3     4     1    1
     4     1     8    1
     5     8     5    1
     6     6     5    2
     7     5     7    1
     8     5     9    1
     9    10     9    1
    10    10    11    1
    11    14    13    1
    12    13    11    1
    13    13    15    1
    14    11    12    1
    15    12    17    1
    16    15    17    1
    17    15    16    1
    18    17    18    1
    19    18    19    1
    20    18    27    1
    21    19    20    1
    22    20    21    2
    23    27    26    2
    24    27    21    1
    25    26    25    1
    26    21    22    1
    27    25    24    1
    28    22    24    2
    29    22    23    1
