@<TRIPOS>MOLECULE
1phq_FPE_A_1.pdb
 11 10 0 0 0
SMALL
GASTEIGER

@<TRIPOS>ATOM
      1  O1         5.5420   -8.0210   43.7700 O.co2 301  FPE301     -0.2370
      2  C1         5.0730   -8.1770   42.5760 C.2   301  FPE301      0.4239
      3  O2'        5.6210   -7.5640   41.5600 O.co2 301  FPE301     -0.2370
      4  C2         3.8360   -9.0580   42.3580 C.2   301  FPE301      0.2577
      5  O5         3.2330   -9.3740   41.1160 O.2   301  FPE301     -0.3905
      6  P1         3.2500   -8.3230   39.9130 P.3   301  FPE301      0.5889
      7  O2         4.6770   -8.4840   39.0680 O.3   301  FPE301     -0.1039
      8  O3         3.0630   -6.7730   40.4280 O.3   301  FPE301     -0.1039
      9  O4         1.9750   -8.7360   38.9510 O.2   301  FPE301     -0.2114
     10  C3         3.2670   -9.5840   43.3900 C.2   301  FPE301      0.2115
     11  F1         3.7810   -9.3380   44.6250 F     301  FPE301     -0.1982
@<TRIPOS>BOND
     1     9     6    2
     2     7     6    1
     3     6     8    1
     4     6     5    1
     5     5     4    1
     6     3     2   ar
     7     4     2    1
     8     4    10    2
     9     2     1   ar
    10    10    11    1
