@<TRIPOS>MOLECULE
1phw_N_A_1.pdb
 13 13 0 0 0
SMALL
GASTEIGER

@<TRIPOS>ATOM
      1  OP3        1.8540   -7.1410   39.4320 O.3    70  N70        -0.1145
      2  P          3.1220   -7.6760   40.2330 P.3    70  N70         0.5327
      3  OP1        4.3040   -8.1030   39.2380 O.2    70  N70        -0.2224
      4  OP2        3.6150   -6.4910   41.1100 O.3    70  N70        -0.1145
      5  O5'        2.6750   -8.8990   41.2190 O.3    70  N70        -0.2675
      6  C5'        3.5470   -9.9180   41.7050 C.3    70  N70         0.1858
      7  C4'        4.3510   -9.5630   43.0090 C.3    70  N70         0.1782
      8  O4'        5.6870  -10.1770   42.8500 O.3    70  N70        -0.3482
      9  C3'        4.6630   -8.0810   43.3510 C.3    70  N70         0.2140
     10  O3'        3.6650   -7.4540   44.0940 O.3    70  N70        -0.2176
     11  C2'        6.0070   -8.2400   44.0600 C.3    70  N70         0.2140
     12  O2'        6.7360   -6.9930   44.1230 O.3    70  N70        -0.2176
     13  C1'        6.7200   -9.2370   43.1190 C.3    70  N70         0.1777
@<TRIPOS>BOND
     1     3     2    2
     2     1     2    1
     3     2     4    1
     4     2     5    1
     5     5     6    1
     6     6     7    1
     7     8     7    1
     8     8    13    1
     9     7     9    1
    10    13    11    1
    11     9    11    1
    12     9    10    1
    13    11    12    1
