@<TRIPOS>MOLECULE
1pi3_TZD_A_1.pdb
 27 28 0 0 0
SMALL
GASTEIGER

@<TRIPOS>ATOM
      1  N1'       91.1100   45.5420  159.1500 N.2   530  TZD530     -0.1861
      2  C2'       90.4520   44.3970  158.8120 C.1   530  TZD530      0.0663
      3  C2A       89.0000   44.4510  158.5570 C.3   530  TZD530      0.1291
      4  N3'       91.0510   43.2470  158.6600 N.2   530  TZD530     -0.3368
      5  C4'       92.3930   43.1850  158.8100 C.2   530  TZD530      0.2294
      6  N4'       92.9810   42.0210  158.5600 N.pl3 530  TZD530     -0.0924
      7  C5'       93.1940   44.3250  159.2330 C.2   530  TZD530      0.0683
      8  C6'       92.4340   45.5180  159.3700 C.2   530  TZD530      0.1117
      9  C35       94.6910   44.3010  159.3960 C.3   530  TZD530      0.1415
     10  N3        95.1490   43.4430  160.4900 N.ar  530  TZD530     -0.2894
     11  C2        95.6120   42.0600  160.3130 C.ar  530  TZD530      0.2920
     12  OC2       95.7510   41.6180  159.1780 O.2   530  TZD530     -0.2594
     13  S1        96.1020   41.2920  161.7320 S.2   530  TZD530     -0.0306
     14  C5        95.6690   42.7410  162.6120 C.ar  530  TZD530      0.0259
     15  C4        95.1940   43.7390  161.8510 C.ar  530  TZD530      0.0432
     16  C4A       94.5830   45.0200  162.3200 C.3   530  TZD530      0.0503
     17  C5A       95.9590   42.6890  164.1490 C.3   530  TZD530      0.0667
     18  C5B       94.8850   41.8770  164.8760 C.3   530  TZD530      0.1544
     19  O5G       95.2140   42.0530  166.2760 O.3   530  TZD530     -0.3134
     20  P1        94.6590   41.0660  167.3660 P.3   530  TZD530      0.2230
     21  O11       95.6230   39.8070  167.2860 O.3   530  TZD530     -0.2261
     22  O12       94.8650   41.7710  168.6720 O.3   530  TZD530     -0.4370
     23  O13       93.3130   40.5900  167.0520 O.2   530  TZD530     -0.5169
     24  P2        97.2360   39.6910  167.4760 P.3   530  TZD530      0.5373
     25  O21       97.6120   40.6130  168.6200 O.3   530  TZD530     -0.1143
     26  O22       97.4750   38.2280  167.8320 O.3   530  TZD530     -0.1143
     27  O23       97.8540   40.0690  166.1360 O.2   530  TZD530     -0.2221
@<TRIPOS>BOND
     1     3     2    1
     2     6     5    1
     3     4     5    2
     4     4     2    2
     5     5     7    1
     6     2     1    2
     7     1     8    1
     8    12    11    2
     9     7     8    2
    10     7     9    1
    11     9    10    1
    12    11    10   ar
    13    11    13   ar
    14    10    15   ar
    15    13    14   ar
    16    15    16    1
    17    15    14   ar
    18    14    17    1
    19    17    18    1
    20    18    19    1
    21    27    24    2
    22    19    20    1
    23    23    20    2
    24    21    20    1
    25    21    24    1
    26    20    22    1
    27    24    26    1
    28    24    25    1
