@<TRIPOS>MOLECULE
1pi4_SM3_A_1.pdb
 19 20 0 0 0
SMALL
GASTEIGER

@<TRIPOS>ATOM
      1  CAF       21.8970    4.8370   10.9300 C.ar  401  SM3401      0.0000
      2  CAC       20.6850    5.5580   11.1030 C.ar  401  SM3401      0.0000
      3  CAB       20.5410    6.0790   12.3380 C.ar  401  SM3401      0.0000
      4  SAD       21.8710    5.7190   13.3310 S.2   401  SM3401      0.0000
      5  CAE       22.6510    4.8470   12.0790 C.ar  401  SM3401      0.0000
      6  CAG       24.0020    4.1940   12.3170 C.3   401  SM3401      0.0000
      7  CAH       24.9630    5.2040   12.9440 C.2   401  SM3401      0.0000
      8  OAI       25.3590    6.1960   12.3040 O.2   401  SM3401      0.0000
      9  NAJ       25.3640    4.9680   14.2360 N.am  401  SM3401      0.0000
     10  CAK       26.2740    5.8260   15.0070 C.3   401  SM3401      0.0000
     11  B         26.7950    5.0610   16.3390 B     401  SM3401      0.0000
     12  OAT       25.7320    4.1650   16.8630 O.3   401  SM3401      0.0000
     13  OAO       27.1730    6.0350   17.3730 O.3   401  SM3401      0.0000
     14  CAL       25.5850    7.1600   15.2880 C.ar  401  SM3401      0.0000
     15  CAQ       24.2510    7.2430   15.8210 C.ar  401  SM3401      0.0000
     16  CAM       26.2630    8.3550   14.9130 C.ar  401  SM3401      0.0000
     17  CAN       25.5880    9.5920   15.0070 C.ar  401  SM3401      0.0000
     18  CAS       24.2600    9.6640   15.4900 C.ar  401  SM3401      0.0000
     19  CAR       23.5860    8.4920   15.9070 C.ar  401  SM3401      0.0000
@<TRIPOS>BOND
     1     1     2   ar
     2     1     5   ar
     3     2     3   ar
     4     5     6    1
     5     5     4   ar
     6     8     7    2
     7     6     7    1
     8     3     4   ar
     9     7     9   am
    10     9    10    1
    11    16    17   ar
    12    16    14   ar
    13    10    14    1
    14    10    11    1
    15    17    18   ar
    16    14    15   ar
    17    18    19   ar
    18    15    19   ar
    19    11    12    1
    20    11    13    1
