@<TRIPOS>MOLECULE
1pi5_SM2_A_1.pdb
 22 23 0 0 0
SMALL
GASTEIGER

@<TRIPOS>ATOM
      1  CAF       22.0130    5.0210   11.1100 C.ar  401  SM2401      0.0000
      2  CAC       20.8260    5.7340   11.4250 C.ar  401  SM2401      0.0000
      3  CAB       20.7500    6.1050   12.7160 C.ar  401  SM2401      0.0000
      4  SAD       22.1220    5.6010   13.5930 S.2   401  SM2401      0.0000
      5  CAE       22.8230    4.8710   12.2060 C.ar  401  SM2401      0.0000
      6  CAG       24.1840    4.1630   12.2910 C.3   401  SM2401      0.0000
      7  CAH       25.2050    5.1340   12.9000 C.2   401  SM2401      0.0000
      8  OAI       25.6580    6.0770   12.2290 O.2   401  SM2401      0.0000
      9  NAJ       25.5620    4.9210   14.2140 N.am  401  SM2401      0.0000
     10  CAK       26.4930    5.7710   14.9710 C.3   401  SM2401      0.0000
     11  B         27.0480    5.0170   16.2990 B     401  SM2401      0.0000
     12  OAT       26.0040    4.1510   16.8580 O.3   401  SM2401      0.0000
     13  OAO       27.4550    6.0130   17.3130 O.3   401  SM2401      0.0000
     14  CAL       25.7760    7.0930   15.2680 C.ar  401  SM2401      0.0000
     15  CAQ       24.4160    7.1440   15.7370 C.ar  401  SM2401      0.0000
     16  CAM       26.4430    8.3030   14.9600 C.ar  401  SM2401      0.0000
     17  CAN       25.7470    9.5300   15.0740 C.ar  401  SM2401      0.0000
     18  CAS       24.4040    9.5730   15.5060 C.ar  401  SM2401      0.0000
     19  CAR       23.7310    8.3800   15.8450 C.ar  401  SM2401      0.0000
     20  CAU       22.2980    8.4030   16.3180 C.2   401  SM2401      0.0000
     21  OAW       21.4130    7.9290   15.5710 O.co2 401  SM2401      0.0000
     22  OAV       22.0420    8.8950   17.4380 O.co2 401  SM2401      0.0000
@<TRIPOS>BOND
     1     1     2   ar
     2     1     5   ar
     3     2     3   ar
     4     5     6    1
     5     5     4   ar
     6     8     7    2
     7     6     7    1
     8     3     4   ar
     9     7     9   am
    10     9    10    1
    11    16    17   ar
    12    16    14   ar
    13    10    14    1
    14    10    11    1
    15    17    18   ar
    16    14    15   ar
    17    18    19   ar
    18    21    20   ar
    19    15    19   ar
    20    19    20    1
    21    11    12    1
    22    11    13    1
    23    20    22   ar
