@<TRIPOS>MOLECULE
1pie_GLA_A_1.pdb
 12 12 0 0 0
SMALL
GASTEIGER

@<TRIPOS>ATOM
      1  C1       116.5380   29.1440   64.8130 C.3   400  GLA400      0.3024
      2  C2       116.6540   30.6030   65.1880 C.3   400  GLA400      0.2434
      3  C3       116.7150   31.5170   63.9970 C.3   400  GLA400      0.2199
      4  C4       117.9660   31.1570   63.2500 C.3   400  GLA400      0.2144
      5  C5       117.8450   29.6780   62.8300 C.3   400  GLA400      0.1836
      6  C6       119.0440   29.1390   62.0760 C.3   400  GLA400      0.2142
      7  O1       115.3220   29.0260   64.0920 O.3   400  GLA400     -0.1869
      8  O2       115.5570   31.0300   65.9590 O.3   400  GLA400     -0.2148
      9  O3       116.8660   32.8540   64.4690 O.3   400  GLA400     -0.2174
     10  O4       119.1280   31.4690   64.0170 O.3   400  GLA400     -0.2176
     11  O5       117.6330   28.7900   63.9420 O.3   400  GLA400     -0.3236
     12  O6       119.0740   29.7490   60.7770 O.3   400  GLA400     -0.2176
@<TRIPOS>BOND
     1    12     6    1
     2     6     5    1
     3     5     4    1
     4     5    11    1
     5     4     3    1
     6     4    10    1
     7    11     1    1
     8     3     9    1
     9     3     2    1
    10     7     1    1
    11     1     2    1
    12     2     8    1
