@<TRIPOS>MOLECULE
1pig_HMC_A_1.pdb
 11 11 0 0 0
SMALL
GASTEIGER

@<TRIPOS>ATOM
      1  C1        35.9770   20.0930   54.2750 C.3   703  HMC703      0.0612
      2  C2        34.6580   20.7910   53.8760 C.3   703  HMC703      0.1893
      3  O2        34.8680   21.8980   53.0220 O.3   703  HMC703     -0.2200
      4  C3        33.9720   21.1780   55.2030 C.3   703  HMC703      0.2165
      5  O3        32.7250   21.8060   54.9510 O.3   703  HMC703     -0.2173
      6  C4        33.7920   19.8860   56.1020 C.3   703  HMC703      0.2052
      7  O4        33.6630   20.2740   57.4410 O.3   703  HMC703     -0.2157
      8  C5        34.8690   18.7750   56.0490 C.2   703  HMC703      0.0167
      9  C6        35.9030   18.8840   55.1900 C.2   703  HMC703     -0.0269
     10  C7        34.7570   17.5630   56.9690 C.3   703  HMC703      0.2066
     11  O7        33.8750   16.6550   56.3670 O.3   703  HMC703     -0.2155
@<TRIPOS>BOND
     1     3     2    1
     2     2     1    1
     3     2     4    1
     4     1     9    1
     5     5     4    1
     6     9     8    2
     7     4     6    1
     8     8     6    1
     9     8    10    1
    10     6     7    1
    11    11    10    1
