@<TRIPOS>MOLECULE
1pig_AGL_A_1.pdb
 10 10 0 0 0
SMALL
GASTEIGER

@<TRIPOS>ATOM
      1  C1        31.1640   19.4360   62.9480 C.3   701  AGL701      0.1775
      2  C2        31.3900   20.3290   64.1530 C.3   701  AGL701      0.2130
      3  C3        32.5680   19.8100   64.9590 C.3   701  AGL701      0.2044
      4  C4        32.3190   18.3690   65.3990 C.3   701  AGL701      0.1517
      5  C5        32.0610   17.5350   64.1340 C.3   701  AGL701      0.1355
      6  C6        31.6980   16.0910   64.4340 C.3   701  AGL701      0.0337
      7  O2        31.6570   21.6510   63.7300 O.3   701  AGL701     -0.2177
      8  O3        32.7570   20.6270   66.0980 O.3   701  AGL701     -0.2187
      9  N4        33.2190   17.8640   66.2420 N.3   701  AGL701     -0.1276
     10  O5        30.9640   18.0940   63.3800 O.3   701  AGL701     -0.3519
@<TRIPOS>BOND
     1     1    10    1
     2     1     2    1
     3    10     5    1
     4     7     2    1
     5     5     6    1
     6     5     4    1
     7     2     3    1
     8     3     4    1
     9     3     8    1
    10     4     9    1
