@<TRIPOS>MOLECULE
1pig_GLC_A_1.pdb
 11 11 0 0 0
SMALL
GASTEIGER

@<TRIPOS>ATOM
      1  C1        32.3980   20.6640   57.9240 C.3   702  GLC702      0.1777
      2  C2        32.5430   21.7770   58.9870 C.3   702  GLC702      0.2141
      3  C3        32.9040   21.2340   60.3780 C.3   702  GLC702      0.2173
      4  C4        31.9360   20.1060   60.7530 C.3   702  GLC702      0.2142
      5  C5        32.0600   19.0340   59.6860 C.3   702  GLC702      0.1810
      6  C6        31.2400   17.7890   59.9710 C.3   702  GLC702      0.2141
      7  O2        33.5450   22.6940   58.5730 O.3   702  GLC702     -0.2176
      8  O3        32.8340   22.2850   61.3330 O.3   702  GLC702     -0.2175
      9  O4        32.2470   19.5580   62.0570 O.3   702  GLC702     -0.2176
     10  O5        31.6290   19.5680   58.4120 O.3   702  GLC702     -0.3481
     11  O6        29.8870   18.1100   60.2460 O.3   702  GLC702     -0.2176
@<TRIPOS>BOND
     1     1    10    1
     2     1     2    1
     3    10     5    1
     4     7     2    1
     5     2     3    1
     6     5     6    1
     7     5     4    1
     8     6    11    1
     9     3     4    1
    10     3     8    1
    11     4     9    1
