@<TRIPOS>MOLECULE
1pig_BGC_A_1.pdb
 12 12 0 0 0
SMALL
GASTEIGER

@<TRIPOS>ATOM
      1  C2        47.3930   27.6390   57.3160 C.3   706  BGC706      0.2434
      2  C3        46.4980   26.5100   56.8430 C.3   706  BGC706      0.2199
      3  C4        45.4270   26.3210   57.8970 C.3   706  BGC706      0.2144
      4  C5        44.6500   27.6270   58.0810 C.3   706  BGC706      0.1836
      5  C6        43.6400   27.5170   59.2070 C.3   706  BGC706      0.2142
      6  C1        46.5630   28.9230   57.4410 C.3   706  BGC706      0.3024
      7  O1        47.3840   29.9010   57.9900 O.3   706  BGC706     -0.1869
      8  O2        48.4660   27.8100   56.4090 O.3   706  BGC706     -0.2148
      9  O3        47.2660   25.3240   56.6900 O.3   706  BGC706     -0.2174
     10  O4        44.5420   25.2470   57.5180 O.3   706  BGC706     -0.2176
     11  O5        45.5550   28.6970   58.4340 O.3   706  BGC706     -0.3236
     12  O6        44.2230   26.8900   60.3420 O.3   706  BGC706     -0.2176
@<TRIPOS>BOND
     1     8     1    1
     2     9     2    1
     3     2     1    1
     4     2     3    1
     5     1     6    1
     6     6     7    1
     7     6    11    1
     8    10     3    1
     9     3     4    1
    10     4    11    1
    11     4     5    1
    12     5    12    1
