@<TRIPOS>MOLECULE
1pip_III_B_1.pdb
 50 50 0 0 0
SMALL
GASTEIGER

@<TRIPOS>ATOM
      1  C1        59.2760   58.8230   18.5060 C.2   213  SIN213      0.3650
      2  O1        60.1470   58.8340   19.3580 O.co2 213  SIN213     -0.2457
      3  O2        59.0200   59.8150   17.8640 O.co2 213  SIN213     -0.2457
      4  C2        58.4920   57.5190   18.2210 C.3   213  SIN213      0.1182
      5  C3        57.3980   57.5010   17.0980 C.3   213  SIN213      0.0632
      6  C4        56.1920   56.5100   17.1850 C.3   213  SIN213      0.2265
      7  O3        55.8080   56.1790   18.2830 O.3   213  SIN213     -0.2036
      8  N         56.6960   55.6500   16.2660 N.3   400  GLN400     -0.1813
      9  CA        56.0070   54.3620   16.1980 C.3   400  GLN400      0.1534
     10  C         56.9730   53.5410   16.9990 C.2   400  GLN400      0.2577
     11  O         58.1590   53.7550   16.7490 O.2   400  GLN400     -0.2718
     12  CB        55.9560   53.7110   14.8060 C.3   400  GLN400      0.0365
     13  CG        55.3620   52.2770   14.7840 C.3   400  GLN400      0.0905
     14  CD        55.5650   51.4950   13.4910 C.2   400  GLN400      0.2608
     15  OE1       56.2390   50.4720   13.5140 O.2   400  GLN400     -0.2717
     16  NE2       55.0530   51.8430   12.3170 N.am  400  GLN400     -0.0878
     17  N         56.3960   52.6720   17.8540 N.am  401  VAL401     -0.1966
     18  CA        56.9750   51.7310   18.8350 C.3   401  VAL401      0.1727
     19  C         56.7010   52.2570   20.2620 C.2   401  VAL401      0.2616
     20  O         56.7910   53.4440   20.5980 O.2   401  VAL401     -0.2715
     21  CB        58.4780   51.5040   18.4790 C.3   401  VAL401      0.0290
     22  CG1       59.5030   51.4210   19.5940 C.3   401  VAL401      0.0023
     23  CG2       58.3270   50.2260   17.6540 C.3   401  VAL401      0.0023
     24  N         56.1020   51.2530   20.9270 N.am  402  VAL402     -0.1963
     25  CA        55.3130   51.3350   22.1680 C.3   402  VAL402      0.1727
     26  C         55.0710   49.8700   22.6340 C.2   402  VAL402      0.2616
     27  O         55.4370   48.9650   21.8870 O.2   402  VAL402     -0.2715
     28  CB        53.9790   52.0370   21.7880 C.3   402  VAL402      0.0290
     29  CG1       53.2530   51.0510   20.8320 C.3   402  VAL402      0.0023
     30  CG2       53.1120   52.4220   22.9990 C.3   402  VAL402      0.0023
     31  N         54.4160   49.5650   23.7670 N.am  403  ALA403     -0.1963
     32  CA        54.1270   48.2130   24.2860 C.3   403  ALA403      0.1728
     33  C         53.8190   46.9100   23.4790 C.2   403  ALA403      0.2616
     34  O         52.7120   46.3460   23.5760 O.2   403  ALA403     -0.2715
     35  CB        53.0020   48.4090   25.3250 C.3   403  ALA403      0.0334
     36  N         54.8770   46.4220   22.7950 N.am  404  ALA404     -0.1963
     37  CA        55.0550   45.1740   22.0100 C.3   404  ALA404      0.1732
     38  C         55.3220   45.4510   20.5170 C.2   404  ALA404      0.2654
     39  O         54.4890   46.0640   19.8250 O.2   404  ALA404     -0.2711
     40  CB        53.8600   44.1780   22.0080 C.3   404  ALA404      0.0334
     41  N1        55.9100   44.3510   19.8450 N.am  219  NIT219     -0.1778
     42  C1        57.1900   44.4220   19.4760 C.ar  219  NIT219      0.0735
     43  C2        57.6950   45.4980   18.7310 C.ar  219  NIT219      0.0183
     44  C3        59.0430   45.5790   18.3500 C.ar  219  NIT219      0.0254
     45  C4        59.9790   44.5750   18.6510 C.ar  219  NIT219      0.1430
     46  N4        61.2590   44.6690   18.2960 N.pl3 219  NIT219      0.0577
     47  ON1       61.6710   45.7540   17.6410 O.2   219  NIT219     -0.1261
     48  ON2       62.0920   43.6780   18.6070 O.2   219  NIT219     -0.1261
     49  C5        59.4680   43.4580   19.3340 C.ar  219  NIT219      0.0254
     50  C6        58.1200   43.3900   19.7230 C.ar  219  NIT219      0.0183
@<TRIPOS>BOND
     1    16    14   am
     2    14    15    2
     3    14    13    1
     4    13    12    1
     5    12     9    1
     6     9     8    1
     7     9    10    1
     8     8     6    1
     9    11    10    2
    10    10    17   am
    11     5     6    1
    12     5     4    1
    13     6     7    1
    14    47    46    2
    15    23    21    1
    16    17    18    1
    17     3     1   ar
    18     4     1    1
    19    46    48    2
    20    46    45    1
    21    44    45   ar
    22    44    43   ar
    23    21    18    1
    24    21    22    1
    25     1     2   ar
    26    45    49   ar
    27    43    42   ar
    28    18    19    1
    29    49    50   ar
    30    42    50   ar
    31    42    41    1
    32    39    38    2
    33    41    38   am
    34    19    20    2
    35    19    24   am
    36    38    37    1
    37    29    28    1
    38    24    25    1
    39    28    25    1
    40    28    30    1
    41    27    26    2
    42    40    37    1
    43    37    36    1
    44    25    26    1
    45    26    31   am
    46    36    33   am
    47    33    34    2
    48    33    32    1
    49    31    32    1
    50    32    35    1
