@<TRIPOS>MOLECULE
1piv_W71_1_1.pdb
 25 27 0 0 0
SMALL
GASTEIGER

@<TRIPOS>ATOM
      1  O1        29.9560   51.4470  114.8980 O.2   303  W71303     -0.3581
      2  N2        31.1450   51.1150  115.4360 N.ar  303  W71303     -0.0817
      3  C3        31.6630   52.2200  116.0020 C.ar  303  W71303      0.1007
      4  C31       33.0020   52.2560  116.7200 C.3   303  W71303      0.0557
      5  C4        30.8100   53.2500  115.8360 C.ar  303  W71303      0.0536
      6  C5        29.7300   52.8470  115.1430 C.ar  303  W71303      0.1541
      7  C1C       28.5980   53.7500  114.6930 C.3   303  W71303      0.0673
      8  C2C       29.1130   54.7720  113.7030 C.3   303  W71303      0.0081
      9  C3C       28.0660   55.7680  113.2540 C.3   303  W71303      0.0005
     10  C4C       28.8670   56.9180  112.6900 C.3   303  W71303      0.0001
     11  C5C       27.9920   58.0660  112.2910 C.3   303  W71303      0.0038
     12  C6C       28.8590   59.2860  112.0310 C.3   303  W71303      0.0473
     13  C7C       27.9730   60.4470  111.6380 C.3   303  W71303      0.2054
     14  O1B       26.9750   60.6590  112.6370 O.3   303  W71303     -0.4755
     15  C1B       26.1040   61.6860  112.4370 C.ar  303  W71303      0.1386
     16  C2B       26.1870   62.5450  111.3390 C.ar  303  W71303      0.0370
     17  C3B       25.2760   63.5830  111.1980 C.ar  303  W71303      0.0077
     18  C4B       24.2750   63.7820  112.1500 C.ar  303  W71303      0.0530
     19  C5B       24.1840   62.9220  113.2520 C.ar  303  W71303      0.0077
     20  C6B       25.0980   61.8770  113.3930 C.ar  303  W71303      0.0370
     21  C2A       23.3990   64.8430  112.0210 C.2   303  W71303      0.2204
     22  N3A       23.4590   65.6990  111.0040 N.2   303  W71303     -0.2338
     23  C4A       22.4810   66.7480  111.1120 C.3   303  W71303      0.1759
     24  C5A       22.1020   66.6230  112.5890 C.3   303  W71303      0.2334
     25  O1A       22.3970   65.2370  112.9390 O.2   303  W71303     -0.4582
@<TRIPOS>BOND
     1    22    23    1
     2    22    21    2
     3    23    24    1
     4    17    16   ar
     5    17    18   ar
     6    16    15   ar
     7    13    12    1
     8    13    14    1
     9    21    18    1
    10    21    25    1
    11    12    11    1
    12    18    19   ar
    13    11    10    1
    14    15    14    1
    15    15    20   ar
    16    24    25    1
    17    10     9    1
    18    19    20   ar
    19     9     8    1
    20     8     7    1
    21     7     6    1
    22     1     6   ar
    23     1     2   ar
    24     6     5   ar
    25     2     3   ar
    26     5     3   ar
    27     3     4    1
