@<TRIPOS>MOLECULE
1piv_III_0_1.pdb
 30 29 0 0 0
SMALL
GASTEIGER

@<TRIPOS>ATOM
      1  N          7.0670   48.6580   86.8940 N.3     7  ILE7       -0.1231
      2  CA         7.2070   48.1980   88.2720 C.3     7  ILE7        0.1692
      3  C          8.0680   46.9380   88.3920 C.2     7  ILE7        0.2593
      4  O          8.4520   46.3140   87.3950 O.2     7  ILE7       -0.2718
      5  CB         5.8090   47.8920   88.9110 C.3     7  ILE7        0.0266
      6  CG1        5.1170   46.7030   88.2550 C.3     7  ILE7        0.0019
      7  CG2        4.9700   49.1420   88.7900 C.3     7  ILE7        0.0020
      8  CD1        3.9610   46.1510   89.1000 C.3     7  ILE7        0.0001
      9  N          8.3830   46.5190   89.6140 N.am    8  SER8       -0.1938
     10  CA         9.1240   45.2780   89.8170 C.3     8  SER8        0.2055
     11  C          8.4360   44.3700   90.8470 C.2     8  SER8        0.2643
     12  O          8.3830   44.6260   92.0530 O.2     8  SER8       -0.2714
     13  CB        10.5610   45.6220   90.2560 C.3     8  SER8        0.2130
     14  OG        11.4040   44.4910   90.4770 O.3     8  SER8       -0.2179
     15  N          7.7920   43.3330   90.3260 N.am    9  GLU9       -0.1963
     16  CA         7.0810   42.3240   91.1210 C.3     9  GLU9        0.1733
     17  C          7.9210   41.1070   91.4990 C.2     9  GLU9        0.2616
     18  O          8.2500   40.2670   90.6520 O.2     9  GLU9       -0.2715
     19  CB         5.8270   41.9130   90.3200 C.3     9  GLU9        0.0429
     20  CG         5.1360   40.5760   90.5970 C.3     9  GLU9        0.1163
     21  CD         4.5700   40.3820   91.9930 C.2     9  GLU9        0.3649
     22  OE1        3.5540   40.9970   92.3100 O.co2   9  GLU9       -0.2457
     23  OE2        5.1340   39.6010   92.7560 O.co2   9  GLU9       -0.2457
     24  N          8.2700   40.9540   92.7720 N.am   10  VAL10      -0.1977
     25  CA         9.0620   39.8010   93.1960 C.3    10  VAL10       0.1596
     26  C          8.3540   38.7210   94.0160 C.2    10  VAL10       0.2287
     27  O          7.8160   38.9380   95.1090 O.2    10  VAL10      -0.2864
     28  CB        10.3140   40.2930   93.9880 C.3    10  VAL10       0.0276
     29  CG1       11.2180   41.0370   92.9980 C.3    10  VAL10       0.0022
     30  CG2        9.9480   41.1940   95.1690 C.3    10  VAL10       0.0022
@<TRIPOS>BOND
     1     1     2    1
     2     4     3    2
     3     6     5    1
     4     6     8    1
     5     2     3    1
     6     2     5    1
     7     3     9   am
     8     7     5    1
     9     9    10    1
    10    10    13    1
    11    10    11    1
    12    13    14    1
    13    19    20    1
    14    19    16    1
    15    15    11   am
    16    15    16    1
    17    20    21    1
    18    18    17    2
    19    11    12    2
    20    16    17    1
    21    17    24   am
    22    21    22   ar
    23    21    23   ar
    24    24    25    1
    25    29    28    1
    26    25    28    1
    27    25    26    1
    28    28    30    1
    29    26    27    2
