@<TRIPOS>MOLECULE
1piw_NAP_A_1.pdb
 48 52 0 0 0
SMALL
GASTEIGER

@<TRIPOS>ATOM
      1  PA       176.6660   59.4750    2.3160 P.3   4292  NAP4292     0.2189
      2  O1A      177.5040   59.2890    1.1860 O.2   4292  NAP4292    -0.5170
      3  O2A      175.1370   59.5340    2.3190 O.3   4292  NAP4292    -0.4371
      4  O5B      177.1640   60.7880    3.0790 O.3   4292  NAP4292    -0.3112
      5  C5B      178.5590   60.8800    3.4750 C.3   4292  NAP4292     0.1813
      6  C4B      178.4940   62.0190    4.5080 C.3   4292  NAP4292     0.1820
      7  O4B      179.8780   62.2410    5.0490 O.3   4292  NAP4292    -0.3136
      8  C3B      178.1050   63.4240    3.9680 C.3   4292  NAP4292     0.2157
      9  O3B      176.6840   63.5760    4.1100 O.3   4292  NAP4292    -0.2175
     10  C2B      178.9330   64.3620    4.8250 C.3   4292  NAP4292     0.2314
     11  O2B      178.3710   64.6410    6.1020 O.3   4292  NAP4292    -0.2630
     12  C1B      180.2840   63.6100    4.9820 C.3   4292  NAP4292     0.3158
     13  N9A      181.2140   64.0010    3.8850 N.pl3 4292  NAP4292    -0.1439
     14  C8A      181.1390   63.9210    2.5050 C.3   4292  NAP4292     0.3377
     15  N7A      182.2020   64.4000    1.8670 N.2   4292  NAP4292    -0.2095
     16  C5A      183.0320   64.8250    2.8950 C.2   4292  NAP4292     0.2526
     17  C6A      184.3110   65.4290    2.8420 C.2   4292  NAP4292     0.4393
     18  N6A      185.0180   65.7310    1.7430 N.pl3 4292  NAP4292     0.2180
     19  N1A      184.9230   65.7550    4.0580 N.2   4292  NAP4292     0.0021
     20  C2A      184.2820   65.4880    5.2760 C.3   4292  NAP4292     0.5254
     21  N3A      183.0220   64.8960    5.3650 N.2   4292  NAP4292    -0.0055
     22  C4A      182.4320   64.5790    4.1440 C.2   4292  NAP4292     0.3518
     23  O3       176.9790   58.4020    3.4190 O.3   4292  NAP4292    -0.2703
     24  PN       177.4720   56.9200    3.3860 P.3   4292  NAP4292     0.2189
     25  O1N      176.8210   56.1700    2.3080 O.2   4292  NAP4292    -0.5170
     26  O2N      177.2650   56.4350    4.7570 O.3   4292  NAP4292    -0.4371
     27  O5D      178.9910   57.0830    3.0480 O.3   4292  NAP4292    -0.3112
     28  C5D      179.6690   55.9330    2.5340 C.3   4292  NAP4292     0.1813
     29  C4D      181.0650   55.9530    3.0450 C.3   4292  NAP4292     0.1799
     30  O4D      181.1860   54.8510    3.9770 O.3   4292  NAP4292    -0.3327
     31  C3D      182.0950   55.6870    1.9190 C.3   4292  NAP4292     0.2158
     32  O3D      183.2840   56.4860    2.0650 O.3   4292  NAP4292    -0.2175
     33  C2D      182.3400   54.2000    2.0300 C.3   4292  NAP4292     0.2309
     34  O2D      183.5960   53.8110    1.5350 O.3   4292  NAP4292    -0.2158
     35  C1D      182.2160   53.9300    3.4860 C.3   4292  NAP4292     0.2263
     36  N1N      181.7320   52.5700    3.8440 N.pl3 4292  NAP4292    -0.2787
     37  C2N      182.5710   51.6160    4.4740 C.3   4292  NAP4292     0.1244
     38  C3N      182.0450   50.3610    4.7720 C.2   4292  NAP4292     0.0544
     39  C7N      182.9410   49.3210    5.4530 C.2   4292  NAP4292     0.2818
     40  O7N      182.4370   48.2500    5.6890 O.2   4292  NAP4292    -0.2670
     41  N7N      184.1810   49.5880    5.7590 N.am  4292  NAP4292    -0.0839
     42  C4N      180.6560   50.0220    4.4450 C.2   4292  NAP4292     0.0033
     43  C5N      179.8510   51.0080    3.8150 C.2   4292  NAP4292     0.0157
     44  C6N      180.3640   52.2930    3.5010 C.2   4292  NAP4292     0.0633
     45  P2B      178.4260   66.0820    6.8020 P.3   4292  NAP4292     0.5328
     46  O1X      179.7810   66.1570    7.4790 O.3   4292  NAP4292    -0.1145
     47  O2X      178.2980   66.9870    5.6350 O.2   4292  NAP4292    -0.2224
     48  O3X      177.3070   66.0820    7.7930 O.3   4292  NAP4292    -0.1145
@<TRIPOS>BOND
     1     2     1    2
     2    34    33    1
     3    18    17    1
     4    15    14    1
     5    15    16    2
     6    31    33    1
     7    31    32    1
     8    31    29    1
     9    33    35    1
    10    25    24    2
    11     1     3    1
    12     1     4    1
    13     1    23    1
    14    14    13    1
    15    28    29    1
    16    28    27    1
    17    17    16    1
    18    17    19    2
    19    16    22    1
    20    29    30    1
    21    27    24    1
    22     4     5    1
    23    24    23    1
    24    24    26    1
    25     5     6    1
    26    35    36    1
    27    35    30    1
    28    44    43    2
    29    44    36    1
    30    43    42    1
    31    36    37    1
    32    13    22    1
    33    13    12    1
    34     8     9    1
    35     8     6    1
    36     8    10    1
    37    19    20    1
    38    22    21    2
    39    42    38    2
    40    37    38    1
    41     6     7    1
    42    38    39    1
    43    10    12    1
    44    10    11    1
    45    12     7    1
    46    20    21    1
    47    39    40    2
    48    39    41   am
    49    47    45    2
    50    11    45    1
    51    45    46    1
    52    45    48    1
