@<TRIPOS>MOLECULE
1pj2_NAI_A_1.pdb
 44 48 0 0 0
SMALL
GASTEIGER

@<TRIPOS>ATOM
      1  PA        13.1180   32.0040   31.1930 P.3   601  NAI601      0.2189
      2  O1A       14.3090   32.8860   31.1380 O.3   601  NAI601     -0.4371
      3  O2A       12.7460   31.2080   29.9900 O.2   601  NAI601     -0.5170
      4  O5B       11.8550   32.8450   31.6200 O.3   601  NAI601     -0.3112
      5  C5B       11.8580   33.6060   32.8180 C.3   601  NAI601      0.1813
      6  C4B       10.5370   34.3210   32.9090 C.3   601  NAI601      0.1821
      7  O4B       10.4140   34.9850   34.2120 O.3   601  NAI601     -0.3135
      8  C3B       10.4390   35.3870   31.8560 C.3   601  NAI601      0.2184
      9  O3B        9.1050   35.3760   31.2460 O.3   601  NAI601     -0.2174
     10  C2B       10.6490   36.6670   32.5900 C.3   601  NAI601      0.2570
     11  O2B        9.9810   37.7570   31.9230 O.3   601  NAI601     -0.2130
     12  C1B       10.0810   36.3660   33.9610 C.3   601  NAI601      0.3186
     13  N9A       10.5630   37.2540   35.0240 N.pl3 601  NAI601     -0.1439
     14  C8A       11.8620   37.6430   35.2850 C.3   601  NAI601      0.3377
     15  N7A       11.8400   38.5360   36.3060 N.2   601  NAI601     -0.2095
     16  C5A       10.5700   38.6470   36.6160 C.2   601  NAI601      0.2526
     17  C6A       10.1240   39.4850   37.6210 C.2   601  NAI601      0.4393
     18  N6A       10.9550   40.2610   38.3120 N.pl3 601  NAI601      0.2180
     19  N1A        8.7750   39.5080   37.8540 N.2   601  NAI601      0.0021
     20  C2A        7.9290   38.7260   37.1070 C.3   601  NAI601      0.5254
     21  N3A        8.4230   37.9170   36.1180 N.2   601  NAI601     -0.0055
     22  C4A        9.7720   37.8870   35.8770 C.2   601  NAI601      0.3518
     23  O3        13.2680   30.9980   32.4240 O.3   601  NAI601     -0.2703
     24  PN        12.7030   29.5410   32.7170 P.3   601  NAI601      0.2189
     25  O1N       13.5120   28.5690   31.9480 O.2   601  NAI601     -0.5170
     26  O2N       11.2350   29.5720   32.5030 O.3   601  NAI601     -0.4371
     27  O5D       12.9830   29.3450   34.2830 O.3   601  NAI601     -0.3112
     28  C5D       12.6500   30.3880   35.2350 C.3   601  NAI601      0.1813
     29  C4D       12.8760   29.8890   36.6730 C.3   601  NAI601      0.1799
     30  O4D       12.1230   28.6520   36.8700 O.3   601  NAI601     -0.3327
     31  C3D       14.3390   29.5710   36.9320 C.3   601  NAI601      0.2158
     32  O3D       14.7660   30.1120   38.1900 O.3   601  NAI601     -0.2175
     33  C2D       14.4240   28.0840   36.9840 C.3   601  NAI601      0.2309
     34  O2D       15.4310   27.6470   37.9200 O.3   601  NAI601     -0.2158
     35  C1D       13.0350   27.6470   37.3810 C.3   601  NAI601      0.2263
     36  N1N       12.6960   26.3030   36.8620 N.pl3 601  NAI601     -0.2787
     37  C2N       12.2480   25.3360   37.7910 C.3   601  NAI601      0.1244
     38  C3N       11.9650   24.0310   37.3800 C.2   601  NAI601      0.0544
     39  C7N       11.4740   22.9860   38.4110 C.2   601  NAI601      0.2818
     40  O7N       11.2450   21.8250   38.0800 O.2   601  NAI601     -0.2670
     41  N7N       11.3440   23.4340   39.6670 N.am  601  NAI601     -0.0839
     42  C4N       12.1280   23.6840   36.0110 C.2   601  NAI601      0.0033
     43  C5N       12.5700   24.6440   35.0490 C.2   601  NAI601      0.0157
     44  C6N       12.8560   25.9530   35.4630 C.2   601  NAI601      0.0633
@<TRIPOS>BOND
     1     3     1    2
     2     2     1    1
     3     1     4    1
     4     1    23    1
     5     9     8    1
     6     4     5    1
     7     8    10    1
     8     8     6    1
     9    11    10    1
    10    25    24    2
    11    23    24    1
    12    26    24    1
    13    10    12    1
    14    24    27    1
    15     5     6    1
    16     6     7    1
    17    12     7    1
    18    12    13    1
    19    27    28    1
    20    13    14    1
    21    13    22    1
    22    43    44    2
    23    43    42    1
    24    28    29    1
    25    14    15    1
    26    44    36    1
    27    22    21    2
    28    22    16    1
    29    42    38    2
    30    21    20    1
    31    15    16    2
    32    16    17    1
    33    29    30    1
    34    29    31    1
    35    36    35    1
    36    36    37    1
    37    30    35    1
    38    31    33    1
    39    31    32    1
    40    33    35    1
    41    33    34    1
    42    20    19    1
    43    38    37    1
    44    38    39    1
    45    17    19    2
    46    17    18    1
    47    40    39    2
    48    39    41   am
