@<TRIPOS>MOLECULE
1pj3_NAD_A_1.pdb
 44 48 0 0 0
SMALL
GASTEIGER

@<TRIPOS>ATOM
      1  PA        13.0170   31.8270   30.9960 P.3   601  NAD601      0.2189
      2  O1A       14.1670   32.7540   30.9280 O.3   601  NAD601     -0.4371
      3  O2A       12.6160   31.0770   29.7780 O.2   601  NAD601     -0.5170
      4  O5B       11.7420   32.5870   31.5250 O.3   601  NAD601     -0.3112
      5  C5B       11.8040   33.4110   32.6720 C.3   601  NAD601      0.1813
      6  C4B       10.4810   34.1360   32.7790 C.3   601  NAD601      0.1821
      7  O4B       10.3950   34.8000   34.0840 O.3   601  NAD601     -0.3135
      8  C3B       10.3730   35.2090   31.7340 C.3   601  NAD601      0.2184
      9  O3B        9.0490   35.2010   31.1300 O.3   601  NAD601     -0.2174
     10  C2B       10.5830   36.4850   32.4810 C.3   601  NAD601      0.2570
     11  O2B        9.9000   37.5760   31.8540 O.3   601  NAD601     -0.2130
     12  C1B       10.0500   36.1760   33.8380 C.3   601  NAD601      0.3186
     13  N9A       10.5330   37.0790   34.8920 N.pl3 601  NAD601     -0.1439
     14  C8A       11.8380   37.4290   35.2010 C.3   601  NAD601      0.3377
     15  N7A       11.8030   38.3240   36.2340 N.2   601  NAD601     -0.2095
     16  C5A       10.5230   38.4680   36.4920 C.2   601  NAD601      0.2526
     17  C6A       10.0530   39.3110   37.4870 C.2   601  NAD601      0.4393
     18  N6A       10.8670   40.0550   38.2280 N.pl3 601  NAD601      0.2180
     19  N1A        8.6990   39.3650   37.6600 N.2   601  NAD601      0.0021
     20  C2A        7.8640   38.6110   36.8730 C.3   601  NAD601      0.5254
     21  N3A        8.3770   37.7950   35.8960 N.2   601  NAD601     -0.0055
     22  C4A        9.7330   37.7320   35.7120 C.2   601  NAD601      0.3518
     23  O3        13.2660   30.7740   32.1780 O.3   601  NAD601     -0.2703
     24  PN        12.7010   29.3210   32.4830 P.3   601  NAD601      0.2189
     25  O1N       13.4630   28.3520   31.6650 O.2   601  NAD601     -0.5170
     26  O2N       11.2280   29.3550   32.3300 O.3   601  NAD601     -0.4371
     27  O5D       13.0730   29.1100   34.0350 O.3   601  NAD601     -0.3112
     28  C5D       12.5540   30.0020   35.0550 C.3   601  NAD601      0.1813
     29  C4D       12.7330   29.3810   36.4410 C.3   601  NAD601      0.1799
     30  O4D       12.0580   28.0730   36.4830 O.3   601  NAD601     -0.3327
     31  C3D       14.2050   29.1240   36.7650 C.3   601  NAD601      0.2158
     32  O3D       14.5600   29.7000   38.0240 O.3   601  NAD601     -0.2175
     33  C2D       14.3390   27.6330   36.8520 C.3   601  NAD601      0.2309
     34  O2D       15.2920   27.2410   37.8500 O.3   601  NAD601     -0.2158
     35  C1D       12.9540   27.1600   37.1710 C.3   601  NAD601      0.2263
     36  N1N       12.7320   25.7520   36.7710 N.pl3 601  NAD601     -0.2787
     37  C2N       12.1910   24.8590   37.7300 C.3   601  NAD601      0.1244
     38  C3N       12.0350   23.5100   37.4220 C.2   601  NAD601      0.0544
     39  C7N       11.4090   22.5380   38.4440 C.2   601  NAD601      0.2818
     40  O7N       11.2910   21.3390   38.1860 O.2   601  NAD601     -0.2670
     41  N7N       11.0340   23.0820   39.6020 N.am  601  NAD601     -0.0839
     42  C4N       12.4220   23.0470   36.1390 C.2   601  NAD601      0.0033
     43  C5N       12.9570   23.9320   35.1630 C.2   601  NAD601      0.0157
     44  C6N       13.1110   25.2780   35.4710 C.2   601  NAD601      0.0633
@<TRIPOS>BOND
     1     3     1    2
     2     2     1    1
     3     1     4    1
     4     1    23    1
     5     9     8    1
     6     4     5    1
     7    25    24    2
     8     8    10    1
     9     8     6    1
    10    11    10    1
    11    23    24    1
    12    26    24    1
    13    10    12    1
    14    24    27    1
    15     5     6    1
    16     6     7    1
    17    12     7    1
    18    12    13    1
    19    27    28    1
    20    13    14    1
    21    13    22    1
    22    28    29    1
    23    43    44    2
    24    43    42    1
    25    14    15    1
    26    44    36    1
    27    22    21    2
    28    22    16    1
    29    21    20    1
    30    42    38    2
    31    15    16    2
    32    29    30    1
    33    29    31    1
    34    30    35    1
    35    16    17    1
    36    31    33    1
    37    31    32    1
    38    36    35    1
    39    36    37    1
    40    33    35    1
    41    33    34    1
    42    20    19    1
    43    38    37    1
    44    38    39    1
    45    17    19    2
    46    17    18    1
    47    40    39    2
    48    39    41   am
