@<TRIPOS>MOLECULE
1pj4_ATP_A_1.pdb
 31 33 0 0 0
SMALL
GASTEIGER

@<TRIPOS>ATOM
      1  PG        13.0130   29.6410   36.0320 P.3   4601  ATP4601     0.5373
      2  O1G       13.5120   28.2980   35.5900 O.2   4601  ATP4601    -0.2221
      3  O2G       14.1170   30.5420   36.5140 O.3   4601  ATP4601    -0.1143
      4  O3G       11.8530   29.5460   36.9660 O.3   4601  ATP4601    -0.1143
      5  PB        12.3620   29.9520   33.0830 P.3   4601  ATP4601     0.2277
      6  O1B       10.9870   30.1130   32.5640 O.2   4601  ATP4601    -0.5168
      7  O2B       13.0010   28.6410   32.9240 O.3   4601  ATP4601    -0.4368
      8  O3B       12.4170   30.3590   34.6510 O.3   4601  ATP4601    -0.2258
      9  PA        13.1260   32.0950   31.1940 P.3   4601  ATP4601     0.2189
     10  O1A       14.3100   32.9790   31.1220 O.3   4601  ATP4601    -0.4371
     11  O2A       12.7280   31.3480   29.9790 O.2   4601  ATP4601    -0.5170
     12  O3A       13.2980   31.0660   32.4030 O.3   4601  ATP4601    -0.2700
     13  O5'       11.8630   32.9340   31.6870 O.3   4601  ATP4601    -0.3112
     14  C5'       11.9640   33.8820   32.7590 C.3   4601  ATP4601     0.1813
     15  C4'       10.6790   34.7020   32.7720 C.3   4601  ATP4601     0.1821
     16  O4'       10.5530   35.4380   34.0360 O.3   4601  ATP4601    -0.3135
     17  C3'       10.6840   35.7250   31.6570 C.3   4601  ATP4601     0.2184
     18  O3'        9.4370   35.6650   30.9050 O.3   4601  ATP4601    -0.2174
     19  C2'       10.8250   37.0620   32.3530 C.3   4601  ATP4601     0.2570
     20  O2'       10.1280   38.1000   31.6580 O.3   4601  ATP4601    -0.2130
     21  C1'       10.2520   36.8270   33.7120 C.3   4601  ATP4601     0.3186
     22  N9        10.7630   37.7690   34.7310 N.pl3 4601  ATP4601    -0.1439
     23  C8        12.0790   38.1140   34.9870 C.3   4601  ATP4601     0.3377
     24  N7        12.0970   39.0090   36.0130 N.2   4601  ATP4601    -0.2095
     25  C5        10.8380   39.1650   36.3310 C.2   4601  ATP4601     0.2526
     26  C6        10.4340   40.0200   37.3400 C.2   4601  ATP4601     0.4393
     27  N6        11.3050   40.7390   38.0470 N.pl3 4601  ATP4601     0.2180
     28  N1         9.0850   40.1030   37.5740 N.2   4601  ATP4601     0.0021
     29  C2         8.2000   39.3690   36.8170 C.3   4601  ATP4601     0.5254
     30  N3         8.6490   38.5360   35.8230 N.2   4601  ATP4601    -0.0055
     31  C4         9.9990   38.4440   35.5790 C.2   4601  ATP4601     0.3518
@<TRIPOS>BOND
     1    11     9    2
     2    18    17    1
     3    10     9    1
     4     9    13    1
     5     9    12    1
     6    17    19    1
     7    17    15    1
     8    20    19    1
     9    13    14    1
    10    19    21    1
    11    12     5    1
    12     6     5    2
    13    14    15    1
    14    15    16    1
    15     7     5    1
    16     5     8    1
    17    21    16    1
    18    21    22    1
    19     8     1    1
    20    22    23    1
    21    22    31    1
    22    23    24    1
    23    31    30    2
    24    31    25    1
    25     2     1    2
    26    30    29    1
    27    24    25    2
    28     1     3    1
    29     1     4    1
    30    25    26    1
    31    29    28    1
    32    26    28    2
    33    26    27    1
