@<TRIPOS>MOLECULE
1pj6_FOL_A_1.pdb
 32 34 0 0 0
SMALL
GASTEIGER

@<TRIPOS>ATOM
      1  N1        49.9370   86.8010   44.5550 N.2   2887  FOL2887    -0.2672
      2  C2        48.7000   86.2310   44.7840 C.1   2887  FOL2887     0.2609
      3  NA2       48.0030   86.5070   45.8790 N.pl3 2887  FOL2887    -0.0220
      4  N3        48.1410   85.3770   43.8670 N.2   2887  FOL2887    -0.2466
      5  C4        48.7800   85.0910   42.6850 C.1   2887  FOL2887     0.2569
      6  O4        48.1570   84.4500   41.8150 O.2   2887  FOL2887    -0.2052
      7  C4A       50.0300   85.6350   42.4490 C.2   2887  FOL2887     0.2988
      8  N5        50.7000   85.3370   41.2980 N.2   2887  FOL2887    -0.3839
      9  C6        51.9330   85.9170   41.0930 C.2   2887  FOL2887     0.1356
     10  C7        52.5110   86.7780   42.0250 C.3   2887  FOL2887     0.1931
     11  N8        51.8420   87.0750   43.1950 N.2   2887  FOL2887    -0.1992
     12  C8A       50.6220   86.5030   43.4010 C.1   2887  FOL2887     0.1401
     13  C9        52.6320   85.6670   39.7860 C.3   2887  FOL2887     0.1683
     14  N10       53.0790   84.2970   39.7180 N.pl3 2887  FOL2887    -0.2303
     15  C11       56.4900   82.6610   41.2070 C.ar  2887  FOL2887     0.0551
     16  C12       56.3840   84.0560   41.2640 C.ar  2887  FOL2887     0.0059
     17  C13       55.1860   84.6490   40.8610 C.ar  2887  FOL2887     0.0162
     18  C14       54.1420   83.8340   40.4000 C.ar  2887  FOL2887     0.0658
     19  C15       54.2790   82.4660   40.3670 C.ar  2887  FOL2887     0.0162
     20  C16       55.4530   81.8580   40.7490 C.ar  2887  FOL2887     0.0059
     21  C         57.7430   81.9740   41.5930 C.2   2887  FOL2887     0.2652
     22  O         58.9100   82.7220   41.6840 O.2   2887  FOL2887    -0.2684
     23  N         57.7750   80.6660   41.7800 N.am  2887  FOL2887    -0.1918
     24  CA        59.1230   80.1490   41.9410 C.3   2887  FOL2887     0.1986
     25  CB        59.3680   80.2440   43.4320 C.3   2887  FOL2887     0.0451
     26  CG        58.7810   79.0700   44.1600 C.3   2887  FOL2887     0.1164
     27  CD        59.5860   78.9300   45.4220 C.2   2887  FOL2887     0.3649
     28  OE1       60.8290   79.5790   45.5820 O.co2 2887  FOL2887    -0.2457
     29  OE2       59.1130   78.1800   46.3810 O.co2 2887  FOL2887    -0.2457
     30  CT        59.4080   78.7970   41.3600 C.2   2887  FOL2887     0.3842
     31  O1        58.3870   77.9690   40.8260 O.co2 2887  FOL2887    -0.2437
     32  O2        60.6560   78.3680   41.3340 O.co2 2887  FOL2887    -0.2437
@<TRIPOS>BOND
     1    14    13    1
     2    14    18    1
     3    13     9    1
     4    19    18   ar
     5    19    20   ar
     6    18    17   ar
     7    20    15   ar
     8    31    30   ar
     9    17    16   ar
    10     9     8    2
    11     9    10    1
    12    15    16   ar
    13    15    21    1
    14     8     7    2
    15    32    30   ar
    16    30    24    1
    17    21    22    2
    18    21    23   am
    19    23    24    1
    20     6     5    2
    21    24    25    1
    22    10    11    1
    23     7     5    1
    24     7    12    1
    25     5     4    2
    26    11    12    2
    27    12     1    2
    28    25    26    1
    29     4     2    2
    30    26    27    1
    31     1     2    2
    32     2     3    1
    33    27    28   ar
    34    27    29   ar
