@<TRIPOS>MOLECULE
1pj7_FFO_A_1.pdb
 34 36 0 0 0
SMALL
GASTEIGER

@<TRIPOS>ATOM
      1  N1        46.7090   85.0680   45.8440 N.2   2887  FFO2887    -0.2723
      2  C2        47.5220   85.8630   46.5500 C.1   2887  FFO2887     0.2603
      3  NA2       47.9310   85.3540   47.7630 N.pl3 2887  FFO2887    -0.0221
      4  N3        47.9450   87.0880   46.0850 N.2   2887  FFO2887    -0.2512
      5  C4        47.5130   87.5680   44.8820 C.1   2887  FFO2887     0.2256
      6  O4        47.8910   88.6830   44.4200 O.2   2887  FFO2887    -0.2106
      7  C4A       46.5720   86.7290   44.0770 C.3   2887  FFO2887     0.2939
      8  N5        45.9800   87.0550   42.8020 N.am  2887  FFO2887    -0.2448
      9  C6        45.4610   86.0180   41.8860 C.3   2887  FFO2887     0.1243
     10  C7        44.6100   85.1010   42.7840 C.3   2887  FFO2887     0.1586
     11  N8        45.3630   84.6810   43.9410 N.2   2887  FFO2887    -0.2090
     12  C8A       46.2130   85.4490   44.6590 C.1   2887  FFO2887     0.1088
     13  C9        46.6370   85.1660   41.3830 C.3   2887  FFO2887     0.1340
     14  N10       47.4790   85.8490   40.4420 N.pl3 2887  FFO2887    -0.2358
     15  C11       51.6030   85.9410   40.9050 C.ar  2887  FFO2887     0.0551
     16  C12       51.0560   85.9000   39.6210 C.ar  2887  FFO2887     0.0059
     17  C13       49.6520   85.9110   39.4720 C.ar  2887  FFO2887     0.0162
     18  C14       48.8130   85.8980   40.6040 C.ar  2887  FFO2887     0.0654
     19  C15       49.3720   85.8960   41.8820 C.ar  2887  FFO2887     0.0162
     20  C16       50.7530   85.9530   42.0230 C.ar  2887  FFO2887     0.0059
     21  C         53.1080   85.8650   41.1400 C.2   2887  FFO2887     0.2652
     22  O         53.6450   86.1960   42.1980 O.2   2887  FFO2887    -0.2684
     23  N         53.8360   85.2880   40.1790 N.am  2887  FFO2887    -0.1918
     24  CA        55.2290   84.9550   40.3340 C.3   2887  FFO2887     0.1986
     25  CB        55.2510   83.5990   41.0130 C.3   2887  FFO2887     0.0451
     26  CG        56.6610   83.2350   41.4270 C.3   2887  FFO2887     0.1164
     27  CD        56.8320   81.7850   41.8680 C.2   2887  FFO2887     0.3649
     28  OE1       57.9660   81.4100   42.1690 O.co2 2887  FFO2887    -0.2457
     29  OE2       55.8050   80.9260   41.9640 O.co2 2887  FFO2887    -0.2457
     30  CT        55.7900   84.8920   38.9350 C.2   2887  FFO2887     0.3842
     31  O1        56.9710   85.0960   38.6790 O.co2 2887  FFO2887    -0.2437
     32  O2        54.9550   84.6220   37.9350 O.co2 2887  FFO2887    -0.2437
     33  C5A       45.8350   88.2890   42.5120 C.2   2887  FFO2887     0.3045
     34  O5B       45.2660   88.7450   41.5310 O.2   2887  FFO2887    -0.2649
@<TRIPOS>BOND
     1    32    30   ar
     2    31    30   ar
     3    30    24    1
     4    17    16   ar
     5    17    18   ar
     6    16    15   ar
     7    23    24    1
     8    23    21   am
     9    24    25    1
    10    14    18    1
    11    14    13    1
    12    18    19   ar
    13    15    21    1
    14    15    20   ar
    15    25    26    1
    16    21    22    2
    17    13     9    1
    18    26    27    1
    19    34    33    2
    20    27    29   ar
    21    27    28   ar
    22    19    20   ar
    23     9    10    1
    24     9     8    1
    25    33     8   am
    26    10    11    1
    27     8     7    1
    28    11    12    2
    29     7    12    1
    30     7     5    1
    31     6     5    2
    32    12     1    2
    33     5     4    2
    34     1     2    2
    35     4     2    2
    36     2     3    1
