@<TRIPOS>MOLECULE
1pj8_III_I_1.pdb
 30 32 0 0 0
SMALL
GASTEIGER

@<TRIPOS>ATOM
      1  N        -25.4850   16.1920   10.9360 N.3   280  PRO280     -0.2102
      2  CA       -24.1860   16.3580   10.2410 C.3   280  PRO280      0.1504
      3  C        -23.3190   15.1930   10.3520 C.2   280  PRO280      0.2576
      4  O        -23.6680   14.2760   11.0790 O.2   280  PRO280     -0.2718
      5  CB       -23.4140   17.2790   11.1850 C.3   280  PRO280      0.0282
      6  CG       -24.1070   17.1360   12.5430 C.3   280  PRO280      0.0208
      7  CD       -25.3070   16.2520   12.3940 C.3   280  PRO280      0.0893
      8  N        -22.2050   15.1870    9.6310 N.am  281  ALA281     -0.1967
      9  CA       -21.0910   14.5100   10.2430 C.3   281  ALA281      0.1713
     10  C        -19.6100   14.9230   10.0920 C.2   281  ALA281      0.2458
     11  O        -18.9610   14.7250    9.0570 O.2   281  ALA281     -0.2730
     12  CB       -21.3400   13.1410   10.3800 C.3   281  ALA281      0.0333
     13  N        -19.0860   15.0640   11.3010 N.am  282  PRO282     -0.2716
     14  CA       -17.9780   15.8620   11.8670 C.3   282  PRO282      0.1536
     15  C        -16.8750   16.5780   11.1280 C.2   282  PRO282      0.2598
     16  O        -16.6130   16.4360    9.9360 O.2   282  PRO282     -0.2715
     17  CB       -17.3150   14.8940   12.8590 C.3   282  PRO282      0.0310
     18  CG       -18.2530   13.7660   13.0290 C.3   282  PRO282      0.0237
     19  CD       -19.4420   13.9620   12.1880 C.3   282  PRO282      0.0939
     20  N        -16.1890   17.3350   11.9960 N.am  283  PHE283     -0.1974
     21  CA       -15.2340   18.3440   11.6560 C.3   283  PHE283      0.1639
     22  C        -13.9670   18.3340   12.5190 C.2   283  PHE283      0.2290
     23  O        -13.8480   17.5770   13.4770 O.2   283  PHE283     -0.2864
     24  CB       -15.8690   19.6750   12.0100 C.3   283  PHE283      0.0560
     25  CG       -15.9410   20.3520   13.3580 C.ar  283  PHE283     -0.0200
     26  CD1      -17.1010   20.3670   14.0660 C.ar  283  PHE283     -0.0042
     27  CD2      -14.8620   21.0460   13.8560 C.ar  283  PHE283     -0.0042
     28  CE1      -17.1990   21.0110   15.2710 C.ar  283  PHE283     -0.0003
     29  CE2      -14.9390   21.7030   15.0830 C.ar  283  PHE283     -0.0003
     30  CZ       -16.1110   21.6880   15.7850 C.ar  283  PHE283     -0.0000
@<TRIPOS>BOND
     1    11    10    2
     2     8     9    1
     3     8     3   am
     4    16    15    2
     5    10     9    1
     6    10    13   am
     7     2     3    1
     8     2     1    1
     9     2     5    1
    10     9    12    1
    11     3     4    2
    12     1     7    1
    13    15    14    1
    14    15    20   am
    15     5     6    1
    16    13    14    1
    17    13    19    1
    18    21    20    1
    19    21    24    1
    20    21    22    1
    21    14    17    1
    22    24    25    1
    23    19    18    1
    24     7     6    1
    25    22    23    2
    26    17    18    1
    27    25    27   ar
    28    25    26   ar
    29    27    29   ar
    30    26    28   ar
    31    29    30   ar
    32    28    30   ar
