@<TRIPOS>MOLECULE
1pj9_MAL_A_1.pdb
 23 24 0 0 0
SMALL
GASTEIGER

@<TRIPOS>ATOM
      1  C1        62.0370   97.2660    9.7000 C.3   887  MAL887      0.2695
      2  C2        62.5970   96.3400   10.7790 C.3   887  MAL887      0.2406
      3  C3        64.0910   96.1430   10.5820 C.3   887  MAL887      0.2198
      4  C4        64.3230   95.5800    9.1850 C.3   887  MAL887      0.2144
      5  C5        63.7420   96.5360    8.1340 C.3   887  MAL887      0.1835
      6  C6        63.9010   96.0620    6.7600 C.3   887  MAL887      0.2142
      7  O1        62.6150   98.5520    9.8540 O.3   887  MAL887     -0.3257
      8  O2        62.3770   96.8480   12.0900 O.3   887  MAL887     -0.2149
      9  O3        64.6090   95.2620   11.5900 O.3   887  MAL887     -0.2174
     10  O4        65.7140   95.4620    8.9020 O.3   887  MAL887     -0.2176
     11  O5        62.3160   96.7560    8.3690 O.3   887  MAL887     -0.3256
     12  O6        63.3450   96.9930    5.8190 O.3   887  MAL887     -0.2176
     13  C1'       61.4640  102.5870   10.1120 C.3   887  MAL887      0.3023
     14  C2'       60.9330  101.6510   11.1870 C.3   887  MAL887      0.2433
     15  C3'       61.8050  100.3990   11.2310 C.3   887  MAL887      0.2168
     16  C4'       61.7820   99.7310    9.8550 C.3   887  MAL887      0.1804
     17  C5'       62.3200  100.7050    8.7820 C.3   887  MAL887      0.1804
     18  C6'       62.2560  100.0590    7.4120 C.3   887  MAL887      0.2141
     19  O1'       62.7330  103.0370   10.4700 O.3   887  MAL887     -0.1869
     20  O2'       60.9410  102.3080   12.4580 O.3   887  MAL887     -0.2148
     21  O3'       61.2910   99.5160   12.2250 O.3   887  MAL887     -0.2175
     22  O5'       61.4700  101.8790    8.8390 O.3   887  MAL887     -0.3237
     23  O6'       62.7480  100.9510    6.4140 O.3   887  MAL887     -0.2176
@<TRIPOS>BOND
     1    12     6    1
     2    23    18    1
     3     6     5    1
     4    18    17    1
     5     5    11    1
     6     5     4    1
     7    11     1    1
     8    17    22    1
     9    17    16    1
    10    22    13    1
    11    10     4    1
    12     4     3    1
    13     1     7    1
    14     1     2    1
    15     7    16    1
    16    16    15    1
    17    13    19    1
    18    13    14    1
    19     3     2    1
    20     3     9    1
    21     2     8    1
    22    14    15    1
    23    14    20    1
    24    15    21    1
