@<TRIPOS>MOLECULE
1pj9_GLC_A_1.pdb
 12 12 0 0 0
SMALL
GASTEIGER

@<TRIPOS>ATOM
      1  C1        51.1250   92.3080   44.5880 C.3   693  GLC693      0.3024
      2  C2        51.6830   90.9730   45.1030 C.3   693  GLC693      0.2434
      3  C3        50.7480   89.8240   44.7190 C.3   693  GLC693      0.2199
      4  C4        49.3390   90.1240   45.2290 C.3   693  GLC693      0.2144
      5  C5        48.8770   91.4590   44.6430 C.3   693  GLC693      0.1836
      6  C6        47.4850   91.8550   45.0940 C.3   693  GLC693      0.2142
      7  O1        51.1110   92.3090   43.2030 O.3   693  GLC693     -0.1869
      8  O2        52.9690   90.7460   44.5450 O.3   693  GLC693     -0.2148
      9  O3        51.2200   88.6090   45.2780 O.3   693  GLC693     -0.2174
     10  O4        48.4400   89.0690   44.8400 O.3   693  GLC693     -0.2176
     11  O5        49.7790   92.5110   45.0540 O.3   693  GLC693     -0.3236
     12  O6        46.4930   91.2190   44.3020 O.3   693  GLC693     -0.2176
@<TRIPOS>BOND
     1     7     1    1
     2    12     6    1
     3     8     2    1
     4     1    11    1
     5     1     2    1
     6     5    11    1
     7     5     6    1
     8     5     4    1
     9     3     2    1
    10     3     4    1
    11     3     9    1
    12    10     4    1
