@<TRIPOS>MOLECULE
1pjc_NAD_A_1.pdb
 44 48 0 0 0
SMALL
GASTEIGER

@<TRIPOS>ATOM
      1  PA        12.2990   10.6720   21.2190 P.3   500  NAD500      0.2189
      2  O1A       12.5660   10.1120   22.6110 O.3   500  NAD500     -0.4371
      3  O2A       10.8480   10.5270   20.6650 O.2   500  NAD500     -0.5170
      4  O5B       13.3810   10.0310   20.1360 O.3   500  NAD500     -0.3112
      5  C5B       14.7940    9.8410   20.4840 C.3   500  NAD500      0.1813
      6  C4B       15.1730    8.4720   20.1790 C.3   500  NAD500      0.1821
      7  O4B       16.6140    8.3760   20.2000 O.3   500  NAD500     -0.3135
      8  C3B       14.7420    7.2520   21.1120 C.3   500  NAD500      0.2184
      9  O3B       13.9310    6.3010   20.2540 O.3   500  NAD500     -0.2174
     10  C2B       16.0410    6.5700   21.6570 C.3   500  NAD500      0.2570
     11  O2B       16.0320    5.1930   21.8290 O.3   500  NAD500     -0.2130
     12  C1B       16.9570    7.0570   20.5250 C.3   500  NAD500      0.3186
     13  N9A       18.3270    7.1080   20.9040 N.pl3 500  NAD500     -0.1439
     14  C8A       18.9380    7.4130   22.1240 C.3   500  NAD500      0.3377
     15  N7A       20.2100    7.1340   22.1580 N.2   500  NAD500     -0.2095
     16  C5A       20.5000    6.6090   20.9470 C.2   500  NAD500      0.2526
     17  C6A       21.7540    6.0680   20.3940 C.2   500  NAD500      0.4393
     18  N6A       22.9210    6.0170   21.0140 N.pl3 500  NAD500      0.2180
     19  N1A       21.6130    5.6790   19.0690 N.2   500  NAD500      0.0021
     20  C2A       20.5380    5.7150   18.3410 C.3   500  NAD500      0.5254
     21  N3A       19.3590    6.1640   18.8340 N.2   500  NAD500     -0.0055
     22  C4A       19.3660    6.6340   20.1460 C.2   500  NAD500      0.3518
     23  O3        12.7190   12.1720   21.1770 O.3   500  NAD500     -0.2703
     24  PN        12.3180   13.2570   20.0250 P.3   500  NAD500      0.2189
     25  O1N       12.4680   12.4360   18.7770 O.2   500  NAD500     -0.5170
     26  O2N       11.0380   13.8660   20.4640 O.3   500  NAD500     -0.4371
     27  O5D       13.5530   14.3250   20.0420 O.3   500  NAD500     -0.3112
     28  C5D       14.7530   14.1430   19.1870 C.3   500  NAD500      0.1813
     29  C4D       15.7760   15.1360   19.4430 C.3   500  NAD500      0.1799
     30  O4D       15.3950   16.3820   18.6290 O.3   500  NAD500     -0.3327
     31  C3D       15.9230   15.7460   20.9100 C.3   500  NAD500      0.2158
     32  O3D       17.3030   15.8670   21.0880 O.3   500  NAD500     -0.2175
     33  C2D       15.1570   17.1370   20.9060 C.3   500  NAD500      0.2309
     34  O2D       15.7010   18.0500   21.8070 O.3   500  NAD500     -0.2158
     35  C1D       15.4010   17.5660   19.4130 C.3   500  NAD500      0.2263
     36  N1N       14.3810   18.6340   18.7500 N.pl3 500  NAD500     -0.2787
     37  C2N       14.8170   19.8020   17.9890 C.3   500  NAD500      0.1244
     38  C3N       13.7420   20.6850   17.6100 C.2   500  NAD500      0.0544
     39  C7N       14.2450   22.0030   16.7660 C.2   500  NAD500      0.2818
     40  O7N       13.3630   22.8160   16.3710 O.2   500  NAD500     -0.2670
     41  N7N       15.5880   22.1590   16.5310 N.am  500  NAD500     -0.0839
     42  C4N       12.3650   20.5090   17.8860 C.2   500  NAD500      0.0033
     43  C5N       12.0780   19.3020   18.6430 C.2   500  NAD500      0.0157
     44  C6N       13.0610   18.3900   19.0580 C.2   500  NAD500      0.0633
@<TRIPOS>BOND
     1    40    39    2
     2    41    39   am
     3    39    38    1
     4    38    42    2
     5    38    37    1
     6    42    43    1
     7    37    36    1
     8    20    21    1
     9    20    19    1
    10    30    35    1
    11    30    29    1
    12    43    44    2
    13    36    44    1
    14    36    35    1
    15    25    24    2
    16    21    22    2
    17    19    17    2
    18    28    29    1
    19    28    27    1
    20    35    33    1
    21    29    31    1
    22    24    27    1
    23    24    26    1
    24    24    23    1
    25     4     5    1
    26     4     1    1
    27    22    13    1
    28    22    16    1
    29     6     7    1
    30     6     5    1
    31     6     8    1
    32     7    12    1
    33     9     8    1
    34    17    16    1
    35    17    18    1
    36    12    13    1
    37    12    10    1
    38     3     1    2
    39    13    14    1
    40    33    31    1
    41    33    34    1
    42    31    32    1
    43    16    15    2
    44     8    10    1
    45    23     1    1
    46     1     2    1
    47    10    11    1
    48    14    15    1
