@<TRIPOS>MOLECULE
1pjk_ANP_A_1.pdb
 31 33 0 0 0
SMALL
GASTEIGER

@<TRIPOS>ATOM
      1  PG        15.8140  -56.1170  -36.9070 P.3   340  ANP340      0.4884
      2  O1G       14.6630  -56.0850  -37.6800 O.2   340  ANP340     -0.2331
      3  O2G       16.3790  -54.7900  -37.0500 O.3   340  ANP340     -0.1240
      4  O3G       15.7530  -56.8980  -35.7130 O.3   340  ANP340     -0.1240
      5  PB        16.5050  -58.2490  -38.9010 P.3   340  ANP340      0.4669
      6  O1B       17.6140  -59.3610  -38.4900 O.3   340  ANP340     -0.1253
      7  O2B       15.1230  -58.5710  -38.9890 O.2   340  ANP340     -0.2351
      8  N3B       16.8090  -57.0560  -38.0050 N.3   340  ANP340     -0.0163
      9  PA        16.1590  -56.9170  -41.5600 P.3   340  ANP340      0.2220
     10  O1A       16.7590  -57.3510  -42.7640 O.2   340  ANP340     -0.5170
     11  O2A       14.6530  -56.8160  -41.2970 O.3   340  ANP340     -0.4370
     12  O3A       16.9710  -57.4650  -40.3850 O.3   340  ANP340     -0.2360
     13  O5'       16.5410  -55.2130  -41.3960 O.3   340  ANP340     -0.3111
     14  C5'       15.5790  -54.2560  -41.8630 C.3   340  ANP340      0.1813
     15  C4'       16.2010  -52.9520  -41.9840 C.3   340  ANP340      0.1821
     16  O4'       17.6070  -53.2290  -42.6470 O.3   340  ANP340     -0.3135
     17  C3'       15.5570  -51.8590  -42.8690 C.3   340  ANP340      0.2184
     18  O3'       14.8190  -50.9150  -42.1630 O.3   340  ANP340     -0.2174
     19  C2'       16.7310  -51.0870  -43.6650 C.3   340  ANP340      0.2570
     20  O2'       17.2390  -50.0550  -42.9130 O.3   340  ANP340     -0.2130
     21  C1'       17.6420  -52.1450  -43.7700 C.3   340  ANP340      0.3186
     22  N9        17.6450  -53.1020  -45.1250 N.pl3 340  ANP340     -0.1439
     23  C8        17.6350  -54.5110  -45.1220 C.3   340  ANP340      0.3377
     24  N7        17.6460  -54.9930  -46.3610 N.2   340  ANP340     -0.2095
     25  C5        17.6660  -53.8910  -47.1690 C.2   340  ANP340      0.2526
     26  C6        17.6860  -53.7190  -48.6060 C.2   340  ANP340      0.4393
     27  N6        17.6850  -54.7130  -49.4480 N.pl3 340  ANP340      0.2180
     28  N1        17.7000  -52.4260  -49.0520 N.2   340  ANP340      0.0021
     29  C2        17.7000  -51.3420  -48.2090 C.3   340  ANP340      0.5254
     30  N3        17.6840  -51.4310  -46.9000 N.2   340  ANP340     -0.0055
     31  C4        17.6660  -52.6960  -46.4400 C.2   340  ANP340      0.3518
@<TRIPOS>BOND
     1    27    26    1
     2    28    26    2
     3    28    29    1
     4    26    25    1
     5    29    30    1
     6    25    31    1
     7    25    24    2
     8    30    31    2
     9    31    22    1
    10    24    23    1
    11    22    23    1
    12    22    21    1
    13    21    19    1
    14    21    16    1
    15    19    20    1
    16    19    17    1
    17    17    18    1
    18    17    15    1
    19    10     9    2
    20    16    15    1
    21    15    14    1
    22    14    13    1
    23     9    13    1
    24     9    11    1
    25     9    12    1
    26    12     5    1
    27     7     5    2
    28     5     6    1
    29     5     8    1
    30     8     1    1
    31     2     1    2
    32     3     1    1
    33     1     4    1
