@<TRIPOS>MOLECULE
1pjl_NAD_A_1.pdb
 44 48 0 0 0
SMALL
GASTEIGER

@<TRIPOS>ATOM
      1  PA        47.0760   -7.2500  -15.7800 P.3   601  NAD601      0.2189
      2  O1A       47.4990   -7.9680  -14.5530 O.3   601  NAD601     -0.4371
      3  O2A       46.0530   -7.8740  -16.6460 O.2   601  NAD601     -0.5170
      4  O5B       48.3640   -6.9160  -16.6580 O.3   601  NAD601     -0.3112
      5  C5B       49.6040   -6.5550  -16.0470 C.3   601  NAD601      0.1813
      6  C4B       50.7260   -6.9710  -16.9740 C.3   601  NAD601      0.1821
      7  O4B       51.9870   -6.3900  -16.5350 O.3   601  NAD601     -0.3135
      8  C3B       50.8920   -8.4690  -16.9750 C.3   601  NAD601      0.2184
      9  O3B       50.7850   -8.9920  -18.3170 O.3   601  NAD601     -0.2174
     10  C2B       52.2620   -8.7390  -16.4330 C.3   601  NAD601      0.2570
     11  O2B       52.9170   -9.7560  -17.2020 O.3   601  NAD601     -0.2130
     12  C1B       52.9970   -7.4350  -16.5200 C.3   601  NAD601      0.3186
     13  N9A       53.9240   -7.2300  -15.3880 N.pl3 601  NAD601     -0.1439
     14  C8A       53.6710   -7.4570  -14.0520 C.3   601  NAD601      0.3377
     15  N7A       54.7590   -7.1060  -13.3390 N.2   601  NAD601     -0.2095
     16  C5A       55.6130   -6.6940  -14.2320 C.2   601  NAD601      0.2526
     17  C6A       56.8610   -6.2420  -13.8790 C.2   601  NAD601      0.4393
     18  N6A       57.2610   -6.2270  -12.6000 N.pl3 601  NAD601      0.2180
     19  N1A       57.6820   -5.8280  -14.9070 N.2   601  NAD601      0.0021
     20  C2A       57.2390   -5.8780  -16.2100 C.3   601  NAD601      0.5254
     21  N3A       55.9810   -6.3400  -16.4970 N.2   601  NAD601     -0.0055
     22  C4A       55.1580   -6.7480  -15.4800 C.2   601  NAD601      0.3518
     23  O3        46.5830   -5.7910  -15.3960 O.3   601  NAD601     -0.2703
     24  PN        46.0210   -4.5720  -16.2370 P.3   601  NAD601      0.2189
     25  O1N       44.5490   -4.6830  -16.3230 O.3   601  NAD601     -0.4371
     26  O2N       46.7950   -4.5210  -17.4960 O.2   601  NAD601     -0.5170
     27  O5D       46.3700   -3.2780  -15.3220 O.3   601  NAD601     -0.3112
     28  C5D       47.7390   -2.9300  -15.0330 C.3   601  NAD601      0.1813
     29  C4D       47.8390   -1.4710  -14.5950 C.3   601  NAD601      0.1799
     30  O4D       47.2200   -0.6130  -15.6010 O.3   601  NAD601     -0.3327
     31  C3D       47.0980   -1.2250  -13.2800 C.3   601  NAD601      0.2158
     32  O3D       48.0130   -1.0180  -12.1900 O.3   601  NAD601     -0.2175
     33  C2D       46.2400    0.0060  -13.5040 C.3   601  NAD601      0.2309
     34  O2D       46.5370    1.0240  -12.5630 O.3   601  NAD601     -0.2158
     35  C1D       46.5270    0.4850  -14.8910 C.3   601  NAD601      0.2263
     36  N1N       45.2510    0.9040  -15.5760 N.pl3 601  NAD601     -0.2787
     37  C2N       44.9270    2.2920  -15.6560 C.3   601  NAD601      0.1244
     38  C3N       43.7110    2.7030  -16.2580 C.2   601  NAD601      0.0544
     39  C7N       43.3390    4.2160  -16.3290 C.2   601  NAD601      0.2818
     40  O7N       44.0850    5.0860  -15.8590 O.2   601  NAD601     -0.2670
     41  N7N       42.1740    4.4880  -16.9200 N.am  601  NAD601     -0.0839
     42  C4N       42.8260    1.7240  -16.7820 C.2   601  NAD601      0.0033
     43  C5N       43.1360    0.3420  -16.7130 C.2   601  NAD601      0.0157
     44  C6N       44.3340   -0.0760  -16.1160 C.2   601  NAD601      0.0633
@<TRIPOS>BOND
     1     9     8    1
     2    26    24    2
     3    11    10    1
     4     8     6    1
     5     8    10    1
     6     6     7    1
     7     6     5    1
     8    41    39   am
     9    42    43    1
    10    42    38    2
    11    43    44    2
    12     4     5    1
    13     4     1    1
    14     3     1    2
    15     7    12    1
    16    12    10    1
    17    12    13    1
    18    21    20    1
    19    21    22    2
    20    39    38    1
    21    39    40    2
    22    25    24    1
    23    38    37    1
    24    24    23    1
    25    24    27    1
    26    20    19    1
    27    44    36    1
    28     1    23    1
    29     1     2    1
    30    37    36    1
    31    30    35    1
    32    30    29    1
    33    36    35    1
    34    22    13    1
    35    22    16    1
    36    13    14    1
    37    27    28    1
    38    28    29    1
    39    19    17    2
    40    35    33    1
    41    29    31    1
    42    16    17    1
    43    16    15    2
    44    14    15    1
    45    17    18    1
    46    33    31    1
    47    33    34    1
    48    31    32    1
