@<TRIPOS>MOLECULE
1pjp_III_I_1.pdb
 29 30 0 0 0
SMALL
GASTEIGER

@<TRIPOS>ATOM
      1  N         58.5160   65.4290   -8.8780 N.3     2  ALA2       -0.1231
      2  CA        58.4710   64.0420   -8.3340 C.3     2  ALA2        0.1694
      3  C         59.7830   63.3250   -8.6470 C.2     2  ALA2        0.2592
      4  O         60.1560   63.1980   -9.8140 O.2     2  ALA2       -0.2718
      5  CB        57.2860   63.2850   -8.9520 C.3     2  ALA2        0.0304
      6  N         60.4870   62.8830   -7.6080 N.am    3  ALA3       -0.1966
      7  CA        61.7620   62.1880   -7.7640 C.3     3  ALA3        0.1713
      8  C         61.6440   60.7640   -7.2160 C.2     3  ALA3        0.2458
      9  O         61.2420   60.5740   -6.0680 O.2     3  ALA3       -0.2730
     10  CB        62.8600   62.9340   -7.0110 C.3     3  ALA3        0.0333
     11  N         61.9240   59.7430   -8.0460 N.am    4  PRO4       -0.2716
     12  CA        61.8530   58.3470   -7.6110 C.3     4  PRO4        0.1535
     13  C         62.9410   58.0840   -6.5680 C.2     4  PRO4        0.2595
     14  O         64.0990   58.4730   -6.7550 O.2     4  PRO4       -0.2716
     15  CB        62.1240   57.5810   -8.9040 C.3     4  PRO4        0.0310
     16  CG        61.6620   58.4990   -9.9720 C.3     4  PRO4        0.0237
     17  CD        62.1790   59.8160   -9.4930 C.3     4  PRO4        0.0939
     18  C         63.9500   55.6170   -4.4210 C.3     5  PHE5        0.1722
     19  O         64.9570   55.3090   -3.7700 O.3     5  PHE5       -0.2213
     20  CA        63.4950   57.0950   -4.4000 C.3     5  PHE5        0.1299
     21  N         62.5680   57.4250   -5.4760 N.am    5  PHE5       -0.2028
     22  CB        62.8530   57.3920   -3.0390 C.3     5  PHE5        0.0506
     23  CG        62.5810   58.8520   -2.7700 C.ar    5  PHE5       -0.0204
     24  CD1       63.1970   59.8590   -3.5150 C.ar    5  PHE5       -0.0042
     25  CD2       61.7100   59.2100   -1.7410 C.ar    5  PHE5       -0.0042
     26  CE1       62.9590   61.2020   -3.2420 C.ar    5  PHE5       -0.0003
     27  CE2       61.4630   60.5530   -1.4580 C.ar    5  PHE5       -0.0003
     28  CZ        62.0930   61.5510   -2.2180 C.ar    5  PHE5       -0.0000
     29  C1        64.1510   55.0390   -5.8370 C.3     6  0QE6        0.0374
@<TRIPOS>BOND
     1    16    17    1
     2    16    15    1
     3     4     3    2
     4    17    11    1
     5     5     2    1
     6    15    12    1
     7     1     2    1
     8     3     2    1
     9     3     6   am
    10    11    12    1
    11    11     8   am
    12     7     6    1
    13     7     8    1
    14     7    10    1
    15    12    13    1
    16     8     9    2
    17    14    13    2
    18    13    21   am
    19    29    18    1
    20    21    20    1
    21    18    20    1
    22    18    19    1
    23    20    22    1
    24    24    26   ar
    25    24    23   ar
    26    26    28   ar
    27    22    23    1
    28    23    25   ar
    29    28    27   ar
    30    25    27   ar
