@<TRIPOS>MOLECULE
1pjq_SAH_B_1.pdb
 26 28 0 0 0
SMALL
GASTEIGER

@<TRIPOS>ATOM
      1  N        -13.2220  146.3130   48.2480 N.3   501  SAH501     -0.1208
      2  CA       -12.2130  145.5270   47.5180 C.3   501  SAH501      0.1952
      3  CB       -10.8590  145.6020   48.2500 C.3   501  SAH501      0.0422
      4  CG       -10.3260  147.0460   48.3140 C.3   501  SAH501      0.0597
      5  SD        -8.7510  147.2000   49.2510 S.3   501  SAH501     -0.1375
      6  C        -12.6720  144.0590   47.4170 C.2   501  SAH501      0.3819
      7  O        -13.7080  143.7340   48.0370 O.co2 501  SAH501     -0.2441
      8  OXT      -11.9740  143.2970   46.7170 O.co2 501  SAH501     -0.2441
      9  C5'       -7.5190  147.1860   47.8960 C.3   501  SAH501      0.0899
     10  C4'       -6.8680  145.8150   47.6860 C.3   501  SAH501      0.1630
     11  O4'       -7.7600  144.8310   47.0750 O.3   501  SAH501     -0.3153
     12  C3'       -5.6760  145.8620   46.7550 C.3   501  SAH501      0.2168
     13  O3'       -4.5240  146.3200   47.4760 O.3   501  SAH501     -0.2175
     14  C2'       -5.5050  144.4140   46.3700 C.3   501  SAH501      0.2569
     15  O2'       -4.7880  143.7090   47.3860 O.3   501  SAH501     -0.2130
     16  C1'       -6.9360  143.8730   46.2950 C.3   501  SAH501      0.3185
     17  N9        -7.4100  143.8550   44.8730 N.pl3 501  SAH501     -0.1439
     18  C8        -8.3850  144.6160   44.3440 C.3   501  SAH501      0.3377
     19  N7        -8.5620  144.2750   43.0620 N.2   501  SAH501     -0.2095
     20  C5        -7.6950  143.3080   42.7640 C.2   501  SAH501      0.2526
     21  C6        -7.4490  142.5660   41.6010 C.2   501  SAH501      0.4393
     22  N6        -8.1460  142.7960   40.4920 N.pl3 501  SAH501      0.2180
     23  N1        -6.4860  141.6220   41.6050 N.2   501  SAH501      0.0021
     24  C2        -5.7310  141.3560   42.8340 C.3   501  SAH501      0.5254
     25  N3        -5.9980  142.0780   43.9260 N.2   501  SAH501     -0.0055
     26  C4        -6.9720  143.0250   43.9230 C.2   501  SAH501      0.3518
@<TRIPOS>BOND
     1    22    21    1
     2    21    23    2
     3    21    20    1
     4    23    24    1
     5    20    19    2
     6    20    26    1
     7    24    25    1
     8    19    18    1
     9    26    25    2
    10    26    17    1
    11    18    17    1
    12    17    16    1
    13    16    14    1
    14    16    11    1
    15    14    12    1
    16    14    15    1
    17     8     6   ar
    18    12    13    1
    19    12    10    1
    20    11    10    1
    21     6     2    1
    22     6     7   ar
    23     2     1    1
    24     2     3    1
    25    10     9    1
    26     9     5    1
    27     3     4    1
    28     4     5    1
