@<TRIPOS>MOLECULE
1pjs_NAD_A_1.pdb
 44 48 0 0 0
SMALL
GASTEIGER

@<TRIPOS>ATOM
      1  PA       -62.3080  154.3540   15.1890 P.3   502  NAD502      0.2189
      2  O1A      -61.7340  155.5300   14.5500 O.2   502  NAD502     -0.5170
      3  O2A      -61.5590  153.1220   15.0870 O.3   502  NAD502     -0.4371
      4  O5B      -63.8690  154.1870   14.6100 O.3   502  NAD502     -0.3112
      5  C5B      -64.7540  153.1530   14.9520 C.3   502  NAD502      0.1813
      6  C4B      -65.2030  152.1750   13.7560 C.3   502  NAD502      0.1821
      7  O4B      -66.1460  151.1350   14.1600 O.3   502  NAD502     -0.3135
      8  C3B      -65.8120  152.8470   12.5310 C.3   502  NAD502      0.2184
      9  O3B      -64.8070  152.8540   11.4970 O.3   502  NAD502     -0.2174
     10  C2B      -66.9870  151.9580   12.0910 C.3   502  NAD502      0.2570
     11  O2B      -66.8040  151.5540   10.7260 O.3   502  NAD502     -0.2130
     12  C1B      -66.9240  150.7160   12.9950 C.3   502  NAD502      0.3186
     13  N9A      -68.2490  150.2360   13.5660 N.pl3 502  NAD502     -0.1439
     14  C8A      -68.7490  150.7330   14.7060 C.3   502  NAD502      0.3377
     15  N7A      -69.7620  149.9820   15.1220 N.2   502  NAD502     -0.2095
     16  C5A      -69.9340  149.0010   14.2570 C.2   502  NAD502      0.2526
     17  C6A      -70.8370  147.9450   14.2050 C.2   502  NAD502      0.4393
     18  N6A      -71.6820  147.7440   15.2180 N.pl3 502  NAD502      0.2180
     19  N1A      -70.7990  147.0830   13.1640 N.2   502  NAD502      0.0021
     20  C2A      -69.9040  147.2440   12.1770 C.3   502  NAD502      0.5254
     21  N3A      -69.0080  148.2570   12.2110 N.2   502  NAD502     -0.0055
     22  C4A      -69.0040  149.1540   13.2360 C.2   502  NAD502      0.3518
     23  O3       -62.3410  154.7840   16.7350 O.3   502  NAD502     -0.2703
     24  PN       -62.9250  154.0640   17.7930 P.3   502  NAD502      0.2189
     25  O1N      -62.9220  152.6210   17.5380 O.2   502  NAD502     -0.5170
     26  O2N      -62.2540  154.2810   19.0350 O.3   502  NAD502     -0.4371
     27  O5D      -64.2290  154.6480   17.9040 O.3   502  NAD502     -0.3112
     28  C5D      -64.2640  156.0030   17.9710 C.3   502  NAD502      0.1813
     29  C4D      -65.6350  156.7240   17.9320 C.3   502  NAD502      0.1799
     30  O4D      -65.7920  157.3360   16.5980 O.3   502  NAD502     -0.3327
     31  C3D      -65.6410  157.9550   18.8880 C.3   502  NAD502      0.2158
     32  O3D      -67.0150  158.0760   19.3000 O.3   502  NAD502     -0.2175
     33  C2D      -65.3400  159.1580   18.0080 C.3   502  NAD502      0.2309
     34  O2D      -65.9850  160.3110   18.5680 O.3   502  NAD502     -0.2158
     35  C1D      -66.0410  158.7820   16.7250 C.3   502  NAD502      0.2263
     36  N1N      -65.4860  159.5030   15.2770 N.pl3 502  NAD502     -0.2787
     37  C2N      -65.7840  158.8440   14.1640 C.3   502  NAD502      0.1244
     38  C3N      -65.4390  159.2730   12.8980 C.2   502  NAD502      0.0544
     39  C7N      -65.8000  158.4630   11.8220 C.2   502  NAD502      0.2818
     40  O7N      -66.5950  157.3740   12.0510 O.2   502  NAD502     -0.2670
     41  N7N      -65.3840  158.7260   10.5890 N.am  502  NAD502     -0.0839
     42  C4N      -64.7380  160.4780   12.7590 C.2   502  NAD502      0.0033
     43  C5N      -64.4100  161.1960   13.9250 C.2   502  NAD502      0.0157
     44  C6N      -64.8040  160.6790   15.1870 C.2   502  NAD502      0.0633
@<TRIPOS>BOND
     1    41    39   am
     2    11    10    1
     3     9     8    1
     4    39    40    2
     5    39    38    1
     6    10     8    1
     7    10    12    1
     8    20    21    1
     9    20    19    1
    10    21    22    2
    11     8     6    1
    12    42    38    2
    13    42    43    1
    14    38    37    1
    15    12    13    1
    16    12     7    1
    17    19    17    2
    18    22    13    1
    19    22    16    1
    20    13    14    1
    21     6     7    1
    22     6     5    1
    23    43    44    2
    24    37    36    1
    25    17    16    1
    26    17    18    1
    27    16    15    2
    28     2     1    2
    29     4     5    1
    30     4     1    1
    31    14    15    1
    32     3     1    1
    33    44    36    1
    34     1    23    1
    35    36    35    1
    36    30    35    1
    37    30    29    1
    38    35    33    1
    39    23    24    1
    40    25    24    2
    41    24    27    1
    42    24    26    1
    43    27    28    1
    44    29    28    1
    45    29    31    1
    46    33    34    1
    47    33    31    1
    48    31    32    1
