@<TRIPOS>MOLECULE
1pjs_SAH_A_1.pdb
 26 28 0 0 0
SMALL
GASTEIGER

@<TRIPOS>ATOM
      1  N        -20.5470  127.3510   48.2670 N.3   501  SAH501     -0.1208
      2  CA       -21.5300  128.0820   49.0870 C.3   501  SAH501      0.1952
      3  CB       -21.6690  127.3900   50.4530 C.3   501  SAH501      0.0422
      4  CG       -22.2230  125.9660   50.3020 C.3   501  SAH501      0.0597
      5  SD       -22.2060  124.9990   51.8670 S.3   501  SAH501     -0.1375
      6  C        -21.0660  129.5380   49.2830 C.2   501  SAH501      0.3819
      7  O        -19.9770  129.8710   48.7650 O.co2 501  SAH501     -0.2441
      8  OXT      -21.8160  130.2870   49.9500 O.co2 501  SAH501     -0.2441
      9  C5'      -23.9330  125.2030   52.4390 C.3   501  SAH501      0.0899
     10  C4'      -24.0920  126.3510   53.4380 C.3   501  SAH501      0.1630
     11  O4'      -23.9650  127.6770   52.8370 O.3   501  SAH501     -0.3153
     12  C3'      -25.4400  126.3850   54.1160 C.3   501  SAH501      0.2168
     13  O3'      -25.4660  125.4260   55.1740 O.3   501  SAH501     -0.2175
     14  C2'      -25.4690  127.7640   54.6950 C.3   501  SAH501      0.2569
     15  O2'      -24.7160  127.7890   55.9110 O.3   501  SAH501     -0.2130
     16  C1'      -24.7760  128.6290   53.6320 C.3   501  SAH501      0.3185
     17  N9       -25.8070  129.2620   52.7420 N.pl3 501  SAH501     -0.1439
     18  C8       -26.0030  129.0230   51.4320 C.3   501  SAH501      0.3377
     19  N7       -26.9980  129.8090   50.9910 N.2   501  SAH501     -0.2095
     20  C5       -27.4290  130.5380   52.0150 C.2   501  SAH501      0.2526
     21  C6       -28.4150  131.5110   52.1660 C.2   501  SAH501      0.4393
     22  N6       -29.1480  131.8920   51.1240 N.pl3 501  SAH501      0.2180
     23  N1       -28.6150  132.0760   53.3830 N.2   501  SAH501      0.0021
     24  C2       -27.8760  131.7190   54.4390 C.3   501  SAH501      0.5254
     25  N3       -26.9210  130.7900   54.3150 N.2   501  SAH501     -0.0055
     26  C4       -26.6790  130.1950   53.1220 C.2   501  SAH501      0.3518
@<TRIPOS>BOND
     1     1     2    1
     2     7     6   ar
     3     2     6    1
     4     2     3    1
     5     6     8   ar
     6     4     3    1
     7     4     5    1
     8    19    18    1
     9    19    20    2
    10    22    21    1
    11    18    17    1
    12     5     9    1
    13    20    21    1
    14    20    26    1
    15    21    23    2
    16     9    10    1
    17    17    26    1
    18    17    16    1
    19    11    10    1
    20    11    16    1
    21    26    25    2
    22    23    24    1
    23    10    12    1
    24    16    14    1
    25    12    14    1
    26    12    13    1
    27    25    24    1
    28    14    15    1
