@<TRIPOS>MOLECULE
1pjt_SAH_A_1.pdb
 26 28 0 0 0
SMALL
GASTEIGER

@<TRIPOS>ATOM
      1  N        -20.4340  127.5130   48.5760 N.3   501  SAH501     -0.1208
      2  CA       -21.3210  128.1850   49.5380 C.3   501  SAH501      0.1952
      3  CB       -21.3640  127.3680   50.8440 C.3   501  SAH501      0.0422
      4  CG       -21.8940  125.9450   50.5910 C.3   501  SAH501      0.0597
      5  SD       -21.8560  124.8530   52.0700 S.3   501  SAH501     -0.1375
      6  C        -20.7870  129.5970   49.8050 C.2   501  SAH501      0.3819
      7  O        -19.7420  129.9320   49.2120 O.co2 501  SAH501     -0.2441
      8  OXT      -21.4370  130.3080   50.5890 O.co2 501  SAH501     -0.2441
      9  C5'      -23.5810  125.0250   52.6770 C.3   501  SAH501      0.0899
     10  C4'      -23.6930  125.7210   54.0500 C.3   501  SAH501      0.1630
     11  O4'      -23.1760  127.0940   54.0430 O.3   501  SAH501     -0.3153
     12  C3'      -25.1370  125.8050   54.5330 C.3   501  SAH501      0.2168
     13  O3'      -25.4160  124.7080   55.4120 O.3   501  SAH501     -0.2175
     14  C2'      -25.1820  127.0860   55.3170 C.3   501  SAH501      0.2569
     15  O2'      -24.8320  126.8760   56.6770 O.3   501  SAH501     -0.2130
     16  C1'      -24.1790  128.0020   54.6220 C.3   501  SAH501      0.3185
     17  N9       -24.9360  128.6230   53.5150 N.pl3 501  SAH501     -0.1439
     18  C8       -24.8150  128.3700   52.2000 C.3   501  SAH501      0.3377
     19  N7       -25.7250  129.0930   51.5360 N.2   501  SAH501     -0.2095
     20  C5       -26.4190  129.7900   52.4300 C.2   501  SAH501      0.2526
     21  C6       -27.4610  130.7100   52.3490 C.2   501  SAH501      0.4393
     22  N6       -27.9950  131.0140   51.1740 N.pl3 501  SAH501      0.2180
     23  N1       -27.9540  131.2600   53.4850 N.2   501  SAH501      0.0021
     24  C2       -27.4300  130.9650   54.6800 C.3   501  SAH501      0.5254
     25  N3       -26.4280  130.0880   54.7790 N.2   501  SAH501     -0.0055
     26  C4       -25.8960  129.5150   53.6740 C.2   501  SAH501      0.3518
@<TRIPOS>BOND
     1     1     2    1
     2     7     6   ar
     3     2     6    1
     4     2     3    1
     5     6     8   ar
     6     4     3    1
     7     4     5    1
     8    22    21    1
     9    19    18    1
    10    19    20    2
    11     5     9    1
    12    18    17    1
    13    21    20    1
    14    21    23    2
    15    20    26    1
    16     9    10    1
    17    23    24    1
    18    17    26    1
    19    17    16    1
    20    26    25    2
    21    11    10    1
    22    11    16    1
    23    10    12    1
    24    12    14    1
    25    12    13    1
    26    16    14    1
    27    24    25    1
    28    14    15    1
