@<TRIPOS>MOLECULE
1pk0_EMA_A_1.pdb
 26 27 0 0 0
SMALL
GASTEIGER

@<TRIPOS>ATOM
      1  PG        31.8310   72.3580   44.6520 P.3   1999  EMA1999     0.5373
      2  O1G       30.6500   71.5090   44.8280 O.3   1999  EMA1999    -0.1143
      3  O2G       32.5140   72.7120   45.9040 O.3   1999  EMA1999    -0.1143
      4  O3G       31.5690   73.4940   43.6980 O.2   1999  EMA1999    -0.2221
      5  PB        33.0080   70.5340   42.5560 P.3   1999  EMA1999     0.2296
      6  O1B       31.6760   69.8730   42.3120 O.3   1999  EMA1999    -0.4368
      7  O2B       33.5120   71.4410   41.5240 O.2   1999  EMA1999    -0.5167
      8  O3B       32.9580   71.3470   44.0090 O.3   1999  EMA1999    -0.2258
      9  PA        34.1100   68.0690   43.6200 P.3   1999  EMA1999     0.4175
     10  O1A       34.0740   68.4610   45.0350 O.3   1999  EMA1999    -0.1365
     11  O2A       33.0750   67.1140   43.1360 O.2   1999  EMA1999    -0.2513
     12  O3A       34.0580   69.4140   42.8250 O.3   1999  EMA1999    -0.2458
     13  C5'       35.6010   67.5400   43.3490 C.3   1999  EMA1999     0.3227
     14  O5'       36.1030   66.9960   42.1030 O.2   1999  EMA1999    -0.4561
     15  C4'       35.1390   65.9460   41.7350 C.2   1999  EMA1999     0.2170
     16  C1'       35.5920   64.7750   40.8530 C.2   1999  EMA1999     0.2180
     17  N9        36.9850   64.6300   40.3220 N.pl3 1999  EMA1999    -0.1408
     18  C8        37.6780   65.3810   39.3950 C.3   1999  EMA1999     0.3408
     19  N7        38.8760   64.9470   39.1140 N.2   1999  EMA1999    -0.2093
     20  C5        38.9530   63.8190   39.8850 C.2   1999  EMA1999     0.2529
     21  C6        40.0270   62.8550   40.0700 C.2   1999  EMA1999     0.4393
     22  N6        41.1110   62.9700   39.3620 N.pl3 1999  EMA1999     0.2180
     23  N1        39.8090   61.8460   40.9160 N.2   1999  EMA1999     0.0021
     24  C2        38.6660   61.7440   41.6040 C.3   1999  EMA1999     0.5254
     25  N3        37.6050   62.5970   41.5370 N.2   1999  EMA1999    -0.0051
     26  C4        37.8370   63.6110   40.6420 C.2   1999  EMA1999     0.3545
@<TRIPOS>BOND
     1    19    18    1
     2    19    20    2
     3    22    21    1
     4    18    17    1
     5    20    21    1
     6    20    26    1
     7    21    23    2
     8    17    26    1
     9    17    16    1
    10    26    25    2
    11    16    15    2
    12    23    24    1
    13     7     5    2
    14    25    24    1
    15    15    14    1
    16    14    13    1
    17     6     5    1
    18     5    12    1
    19     5     8    1
    20    12     9    1
    21    11     9    2
    22    13     9    1
    23     9    10    1
    24     4     1    2
    25     8     1    1
    26     1     2    1
    27     1     3    1
