@<TRIPOS>MOLECULE
1pk2_ACA_A_1.pdb
 22 21 0 0 0
SMALL
GASTEIGER

@<TRIPOS>ATOM
      1  C1        -8.8410   -4.0850    5.3080 C.2    91  ACA91       0.3560
      2  O1        -8.7990   -5.2620    4.9980 O.co2  91  ACA91      -0.2464
      3  O2        -9.7440   -3.5030    5.8790 O.co2  91  ACA91      -0.2464
      4  C2        -7.6230   -3.2380    4.9210 C.3    91  ACA91       0.0492
      5  C3        -7.2340   -2.3230    6.0840 C.3    91  ACA91      -0.0429
      6  C4        -5.7830   -1.8720    5.9100 C.3    91  ACA91      -0.0543
      7  C5        -5.0510   -1.9690    7.2570 C.3    91  ACA91      -0.0689
      8  C6        -3.6080   -1.5160    7.0620 C.3    91  ACA91      -0.0963
      9  N6        -2.8030   -1.7430    8.2920 N.4    91  ACA91       0.3781
     10  H21       -7.8670   -2.6490    4.0600 H      91  ACA91       0.0379
     11  H22       -6.8060   -3.8910    4.6820 H      91  ACA91       0.0379
     12  H31       -7.3410   -2.8570    7.0170 H      91  ACA91       0.0270
     13  H32       -7.8820   -1.4590    6.0990 H      91  ACA91       0.0270
     14  H41       -5.7630   -0.8510    5.5600 H      91  ACA91       0.0265
     15  H42       -5.2910   -2.5020    5.1850 H      91  ACA91       0.0265
     16  H51       -5.0700   -2.9880    7.6090 H      91  ACA91       0.0247
     17  H52       -5.5380   -1.3330    7.9820 H      91  ACA91       0.0247
     18  H61       -3.5980   -0.4640    6.8270 H      91  ACA91       0.0049
     19  H62       -3.1640   -2.0650    6.2400 H      91  ACA91       0.0049
     20 HN61       -3.3870   -2.2130    9.0120 H      91  ACA91      -0.0901
     21 HN62       -2.4690   -0.8160    8.6610 H      91  ACA91      -0.0901
     22 HN63       -1.9770   -2.3450    8.0630 H      91  ACA91      -0.0901
@<TRIPOS>BOND
     1    10     4    1
     2    11     4    1
     3     4     1    1
     4     4     5    1
     5     2     1   ar
     6    15     6    1
     7     1     3   ar
     8    14     6    1
     9     6     5    1
    10     6     7    1
    11     5    13    1
    12     5    12    1
    13    19     8    1
    14    18     8    1
    15     8     7    1
    16     8     9    1
    17     7    16    1
    18     7    17    1
    19    22     9    1
    20     9    21    1
    21     9    20    1
