@<TRIPOS>MOLECULE
1pk7_ADN_A_1.pdb
 19 21 0 0 0
SMALL
GASTEIGER

@<TRIPOS>ATOM
      1  O5'       94.5940   66.7240   17.3130 O.3   1245  ADN1245    -0.2176
      2  C5'       94.0440   65.5760   17.9590 C.3   1245  ADN1245     0.2143
      3  C4'       94.2990   65.6180   19.4670 C.3   1245  ADN1245     0.1851
      4  O4'       93.7420   66.7850   20.1060 O.3   1245  ADN1245    -0.3134
      5  C3'       93.7480   64.4400   20.2470 C.3   1245  ADN1245     0.2186
      6  O3'       94.6640   64.1850   21.3210 O.3   1245  ADN1245    -0.2174
      7  C2'       92.3610   64.9630   20.7120 C.3   1245  ADN1245     0.2570
      8  O2'       92.1120   64.7220   22.0970 O.3   1245  ADN1245    -0.2130
      9  C1'       92.4050   66.4940   20.5890 C.3   1245  ADN1245     0.3186
     10  N9        91.3690   67.2470   19.7920 N.pl3 1245  ADN1245    -0.1439
     11  C8        91.3380   68.6380   19.6360 C.3   1245  ADN1245     0.3377
     12  N7        90.2820   69.0210   18.8560 N.2   1245  ADN1245    -0.2095
     13  C5        89.6390   67.8780   18.5140 C.2   1245  ADN1245     0.2526
     14  C6        88.4810   67.7700   17.7050 C.2   1245  ADN1245     0.4393
     15  N6        87.8240   68.7830   17.1390 N.pl3 1245  ADN1245     0.2180
     16  N1        88.0410   66.4860   17.5200 N.2   1245  ADN1245     0.0021
     17  C2        88.6910   65.4380   18.0830 C.3   1245  ADN1245     0.5254
     18  N3        89.8030   65.4710   18.8660 N.2   1245  ADN1245    -0.0055
     19  C4        90.2470   66.7680   19.0510 C.2   1245  ADN1245     0.3518
@<TRIPOS>BOND
     1    15    14    1
     2     1     2    1
     3    16    14    2
     4    16    17    1
     5    14    13    1
     6     2     3    1
     7    17    18    1
     8    13    12    2
     9    13    19    1
    10    12    11    1
    11    18    19    2
    12    19    10    1
    13     3     4    1
    14     3     5    1
    15    11    10    1
    16    10     9    1
    17     4     9    1
    18     5     7    1
    19     5     6    1
    20     9     7    1
    21     7     8    1
