@<TRIPOS>MOLECULE
1pk8_ATP_A_1.pdb
 31 33 0 0 0
SMALL
GASTEIGER

@<TRIPOS>ATOM
      1  PG         5.1640   35.0430   34.3090 P.3   800  ATP800      0.5373
      2  O1G        3.7360   35.0060   34.7130 O.3   800  ATP800     -0.1143
      3  O2G        6.1540   34.2870   35.1200 O.3   800  ATP800     -0.1143
      4  O3G        5.5210   34.5780   32.9360 O.2   800  ATP800     -0.2221
      5  PB         7.0430   37.2620   34.2320 P.3   800  ATP800      0.2277
      6  O1B        7.8890   36.4400   33.3150 O.2   800  ATP800     -0.5168
      7  O2B        7.5720   37.6340   35.5670 O.3   800  ATP800     -0.4368
      8  O3B        5.6070   36.5780   34.3840 O.3   800  ATP800     -0.2258
      9  PA         6.3440   38.8610   31.9190 P.3   800  ATP800      0.2189
     10  O1A        7.5330   39.5480   31.3570 O.3   800  ATP800     -0.4371
     11  O2A        5.8380   37.6280   31.2830 O.2   800  ATP800     -0.5170
     12  O3A        6.5880   38.5900   33.4760 O.3   800  ATP800     -0.2700
     13  O5'        5.1460   39.9060   32.0410 O.3   800  ATP800     -0.3112
     14  C5'        3.8870   39.5230   32.5990 C.3   800  ATP800      0.1813
     15  C4'        2.7510   40.1780   31.8480 C.3   800  ATP800      0.1821
     16  O4'        2.8770   41.6260   31.9140 O.3   800  ATP800     -0.3135
     17  C3'        2.6530   39.8780   30.3590 C.3   800  ATP800      0.2184
     18  O3'        1.9760   38.6550   30.1070 O.3   800  ATP800     -0.2174
     19  C2'        1.8300   41.0620   29.8750 C.3   800  ATP800      0.2570
     20  O2'        0.4540   40.9120   30.1750 O.3   800  ATP800     -0.2130
     21  C1'        2.4610   42.1980   30.6830 C.3   800  ATP800      0.3186
     22  N9         3.6340   42.7660   30.0160 N.pl3 800  ATP800     -0.1439
     23  C8         4.9490   42.3690   30.1310 C.3   800  ATP800      0.3377
     24  N7         5.7780   43.0520   29.3800 N.2   800  ATP800     -0.2095
     25  C5         4.9600   43.9670   28.7310 C.2   800  ATP800      0.2526
     26  C6         5.2300   44.9830   27.7890 C.2   800  ATP800      0.4393
     27  N6         6.4420   45.2570   27.3090 N.pl3 800  ATP800      0.2180
     28  N1         4.1900   45.7130   27.3470 N.2   800  ATP800      0.0021
     29  C2         2.9650   45.4400   27.8150 C.3   800  ATP800      0.5254
     30  N3         2.5830   44.5190   28.6930 N.2   800  ATP800     -0.0055
     31  C4         3.6380   43.8060   29.1190 C.2   800  ATP800      0.3518
@<TRIPOS>BOND
     1    27    26    1
     2    28    26    2
     3    28    29    1
     4    26    25    1
     5    29    30    1
     6    30    31    2
     7    25    31    1
     8    25    24    2
     9    31    22    1
    10    24    23    1
    11    19    20    1
    12    19    17    1
    13    19    21    1
    14    22    23    1
    15    22    21    1
    16    18    17    1
    17    17    15    1
    18    21    16    1
    19    11     9    2
    20    10     9    1
    21    15    16    1
    22    15    14    1
    23     9    13    1
    24     9    12    1
    25    13    14    1
    26     4     1    2
    27     6     5    2
    28    12     5    1
    29     5     8    1
    30     5     7    1
    31     1     8    1
    32     1     2    1
    33     1     3    1
