@<TRIPOS>MOLECULE
1pk9_2FA_A_1.pdb
 20 22 0 0 0
SMALL
GASTEIGER

@<TRIPOS>ATOM
      1  O5'       94.2360   66.0700   17.2030 O.3   306  2FA306     -0.2176
      2  C5'       93.7440   65.0540   18.1070 C.3   306  2FA306      0.2142
      3  C4'       94.2310   65.2630   19.5480 C.3   306  2FA306      0.1828
      4  O4'       93.8630   66.5550   20.1320 O.3   306  2FA306     -0.3325
      5  C1'       92.6220   66.4420   20.8330 C.3   306  2FA306      0.2293
      6  N9        91.5490   67.0970   20.0070 N.pl3 306  2FA306     -0.2359
      7  C4        90.4880   66.5670   19.2300 C.2   306  2FA306      0.2224
      8  N3        90.1420   65.2480   19.0220 N.2   306  2FA306     -0.3001
      9  C2        89.0660   65.1200   18.2150 C.1   306  2FA306      0.2998
     10  F         88.6350   63.9180   17.9340 F     306  2FA306     -0.0976
     11  N1        88.3570   66.1080   17.6400 N.2   306  2FA306     -0.2971
     12  C6        88.7270   67.3890   17.8670 C.2   306  2FA306      0.2545
     13  N6        88.0380   68.3590   17.3070 N.pl3 306  2FA306     -0.0903
     14  C5        89.8350   67.6590   18.6930 C.2   306  2FA306      0.1707
     15  N7        90.4310   68.8420   19.0970 N.2   306  2FA306     -0.2401
     16  C8        91.4100   68.4290   19.8510 C.3   306  2FA306      0.2238
     17  C2'       92.4580   64.9150   21.1710 C.3   306  2FA306      0.2310
     18  O2'       92.1550   64.6120   22.5710 O.3   306  2FA306     -0.2158
     19  C3'       93.7320   64.2300   20.5720 C.3   306  2FA306      0.2159
     20  O3'       94.7430   64.0680   21.5550 O.3   306  2FA306     -0.2175
@<TRIPOS>BOND
     1     1     2    1
     2    13    12    1
     3    11    12    2
     4    11     9    2
     5    12    14    1
     6    10     9    1
     7     2     3    1
     8     9     8    2
     9    14    15    2
    10    14     7    1
    11     8     7    2
    12    15    16    1
    13     7     6    1
    14     3     4    1
    15     3    19    1
    16    16     6    1
    17     6     5    1
    18     4     5    1
    19    19    17    1
    20    19    20    1
    21     5    17    1
    22    17    18    1
