@<TRIPOS>MOLECULE
1pkd_UCN_A_1.pdb
 36 43 0 0 0
SMALL
GASTEIGER

@<TRIPOS>ATOM
      1  O37       10.5500  113.8300   52.8020 O.3   410  UCN410     -0.1902
      2  C9         9.9070  113.7140   51.5270 C.3   410  UCN410      0.2876
      3  N1        10.4930  112.7320   50.6070 N.2   410  UCN410     -0.1663
      4  C8         9.5940  112.0120   49.9250 C.1   410  UCN410      0.1525
      5  O5         9.7830  111.2190   49.0260 O.2   410  UCN410     -0.2222
      6  C7         8.2600  112.3790   50.4150 C.ar  410  UCN410      0.0847
      7  C6         6.9130  111.8970   50.0910 C.ar  410  UCN410      0.0294
      8  C5         6.3990  110.8740   49.1750 C.ar  410  UCN410      0.0180
      9  C20        4.9380  110.8970   49.3470 C.ar  410  UCN410      0.0618
     10  C1         4.1350  110.0220   48.6040 C.ar  410  UCN410      0.0172
     11  C2         4.7850  109.1420   47.7270 C.ar  410  UCN410      0.0015
     12  C3         6.1870  109.1260   47.5860 C.ar  410  UCN410      0.0001
     13  C4         7.0240  109.9880   48.3150 C.ar  410  UCN410      0.0015
     14  N3         4.5850  111.8910   50.2910 N.ar  410  UCN410     -0.3039
     15  C19        5.7620  112.4960   50.7750 C.ar  410  UCN410      0.0783
     16  C18        5.9100  113.5290   51.7130 C.ar  410  UCN410      0.0774
     17  N2         5.0660  114.2370   52.5020 N.ar  410  UCN410     -0.3054
     18  C17        5.6660  115.1340   53.3190 C.ar  410  UCN410      0.0617
     19  C12        7.1230  115.0300   53.0640 C.ar  410  UCN410      0.0171
     20  C13        8.0830  115.8200   53.7760 C.ar  410  UCN410      0.0015
     21  C14        7.6090  116.7340   54.7150 C.ar  410  UCN410      0.0001
     22  C15        6.2420  116.8710   54.9790 C.ar  410  UCN410      0.0015
     23  C16        5.2770  116.0960   54.3230 C.ar  410  UCN410      0.0172
     24  C11        7.2950  113.9840   52.0310 C.ar  410  UCN410      0.0197
     25  C10        8.4230  113.4340   51.4080 C.ar  410  UCN410      0.0442
     26  C21        3.6070  113.9150   52.4870 C.3   410  UCN410      0.1915
     27  O4         3.2140  113.6290   51.1320 O.3   410  UCN410     -0.3186
     28  C25        3.2100  112.2820   50.6300 C.3   410  UCN410      0.2078
     29  C24        2.5800  111.2730   51.6100 C.3   410  UCN410      0.0739
     30  C23        2.1940  111.9570   52.9300 C.3   410  UCN410      0.1086
     31  N4         1.6810  111.0620   53.9500 N.3   410  UCN410     -0.2152
     32  C28        1.7760  109.6400   53.6930 C.3   410  UCN410      0.1075
     33  C22        3.3930  112.7480   53.4540 C.3   410  UCN410      0.1761
     34  O6         4.5650  111.9060   53.5350 O.3   410  UCN410     -0.3478
     35  C27        5.2140  111.8720   54.8070 C.3   410  UCN410      0.1743
     36  C26        2.7190  115.0940   52.8890 C.3   410  UCN410      0.0566
@<TRIPOS>BOND
     1    12    11   ar
     2    12    13   ar
     3    11    10   ar
     4    13     8   ar
     5    10     9   ar
     6     5     4    2
     7     8     9   ar
     8     8     7   ar
     9     9    14   ar
    10     4     6    1
    11     4     3    2
    12     7     6   ar
    13     7    15   ar
    14    14    28    1
    15    14    15   ar
    16     6    25   ar
    17     3     2    1
    18    28    27    1
    19    28    29    1
    20    15    16   ar
    21    27    26    1
    22    25     2    1
    23    25    24   ar
    24     2     1    1
    25    29    30    1
    26    16    24   ar
    27    16    17   ar
    28    24    19   ar
    29    26    17    1
    30    26    36    1
    31    26    33    1
    32    17    18   ar
    33    30    33    1
    34    30    31    1
    35    19    18   ar
    36    19    20   ar
    37    18    23   ar
    38    33    34    1
    39    34    35    1
    40    32    31    1
    41    20    21   ar
    42    23    22   ar
    43    21    22   ar
