@<TRIPOS>MOLECULE
1pke_2FD_A_1.pdb
 19 21 0 0 0
SMALL
GASTEIGER

@<TRIPOS>ATOM
      1  O5'       94.5270   66.3570   17.3320 O.3   446  2FD446     -0.2176
      2  C5'       94.0360   65.4530   18.3220 C.3   446  2FD446      0.2141
      3  C4'       94.5800   65.8150   19.7210 C.3   446  2FD446      0.1802
      4  O4'       94.2750   67.1810   20.1830 O.3   446  2FD446     -0.3346
      5  C1'       93.0610   67.2110   20.9620 C.3   446  2FD446      0.1981
      6  N9        91.9710   67.7270   20.0430 N.pl3 446  2FD446     -0.2380
      7  C4        90.9580   67.0990   19.3130 C.2   446  2FD446      0.2223
      8  N3        90.6640   65.7740   19.2340 N.2   446  2FD446     -0.3001
      9  C2        89.6150   65.5010   18.4310 C.1   446  2FD446      0.2998
     10  F         89.2540   64.2570   18.2840 F     446  2FD446     -0.0976
     11  N1        88.8860   66.3790   17.7480 N.2   446  2FD446     -0.2971
     12  C6        89.1910   67.6810   17.8380 C.2   446  2FD446      0.2545
     13  N6        88.4610   68.5360   17.1570 N.pl3 446  2FD446     -0.0903
     14  C5        90.2750   68.0860   18.6550 C.2   446  2FD446      0.1707
     15  N7        90.8110   69.3150   18.9380 N.2   446  2FD446     -0.2401
     16  C8        91.7780   69.0100   19.7410 C.3   446  2FD446      0.2238
     17  C2'       92.9080   65.7350   21.4120 C.3   446  2FD446      0.0865
     18  C3'       94.0710   64.8950   20.8290 C.3   446  2FD446      0.1858
     19  O3'       95.1310   64.7200   21.7340 O.3   446  2FD446     -0.2203
@<TRIPOS>BOND
     1    13    12    1
     2     1     2    1
     3    11    12    2
     4    11     9    2
     5    12    14    1
     6    10     9    1
     7     2     3    1
     8     9     8    2
     9    14    15    2
    10    14     7    1
    11    15    16    1
    12     8     7    2
    13     7     6    1
    14     3     4    1
    15     3    18    1
    16    16     6    1
    17     6     5    1
    18     4     5    1
    19    18    17    1
    20    18    19    1
    21     5    17    1
