@<TRIPOS>MOLECULE
1pkf_HEM_A_1.pdb
 43 50 0 0 0
SMALL
GASTEIGER

@<TRIPOS>ATOM
      1 FE          9.3610   38.1030   21.8600 Fe    440  HEM440      0.0000
      2  CHA        7.4790   41.1090   21.9790 C.2   440  HEM440      0.0000
      3  CHB       11.5020   39.7330   19.9110 C.2   440  HEM440      0.0000
      4  CHC       11.0100   35.1750   21.5010 C.2   440  HEM440      0.0000
      5  CHD        6.8350   36.4630   23.2830 C.2   440  HEM440      0.0000
      6  NA         9.4460   40.0530   21.0840 N.ar  440  HEM440      0.0000
      7  C1A        8.6820   41.1420   21.3630 C.ar  440  HEM440      0.0000
      8  C2A        9.2910   42.3220   20.7920 C.ar  440  HEM440      0.0000
      9  C3A       10.4020   41.9330   20.1990 C.ar  440  HEM440      0.0000
     10  C4A       10.5180   40.5090   20.3780 C.ar  440  HEM440      0.0000
     11  CMA       11.3600   42.8810   19.4790 C.3   440  HEM440      0.0000
     12  CAA        8.7400   43.7530   20.8600 C.3   440  HEM440      0.0000
     13  CBA        8.0620   44.0900   19.5250 C.3   440  HEM440      0.0000
     14  CGA        7.5810   45.5250   19.5560 C.2   440  HEM440      0.0000
     15  O1A        6.8560   45.9530   18.6180 O.co2 440  HEM440      0.0000
     16  O2A        7.8980   46.2650   20.5350 O.co2 440  HEM440      0.0000
     17  NB        10.7510   37.6020   20.9340 N.2   440  HEM440      0.0000
     18  C1B       11.6150   38.3990   20.1630 C.2   440  HEM440      0.0000
     19  C2B       12.7200   37.6170   19.6530 C.2   440  HEM440      0.0000
     20  C3B       12.5780   36.4020   20.1380 C.2   440  HEM440      0.0000
     21  C4B       11.3790   36.3460   20.8920 C.2   440  HEM440      0.0000
     22  CMB       13.9200   38.0750   18.7510 C.3   440  HEM440      0.0000
     23  CAB       13.4270   35.1720   19.8640 C.2   440  HEM440      0.0000
     24  CBB       14.7350   35.1900   19.9260 C.2   440  HEM440      0.0000
     25  NC         9.0070   36.1050   22.2960 N.ar  440  HEM440      0.0000
     26  C1C        9.8810   35.0700   22.1930 C.ar  440  HEM440      0.0000
     27  C2C        9.3840   33.9390   22.9490 C.ar  440  HEM440      0.0000
     28  C3C        8.2080   34.3140   23.4380 C.ar  440  HEM440      0.0000
     29  C4C        7.9480   35.7070   23.0510 C.ar  440  HEM440      0.0000
     30  CMC       10.0440   32.5740   23.1220 C.3   440  HEM440      0.0000
     31  CAC        7.3490   33.3880   24.2670 C.2   440  HEM440      0.0000
     32  CBC        6.4170   33.9200   24.9950 C.2   440  HEM440      0.0000
     33  ND         7.5610   38.6800   22.4500 N.2   440  HEM440      0.0000
     34  C1D        6.6320   37.7800   22.9930 C.2   440  HEM440      0.0000
     35  C2D        5.3820   38.4410   23.2900 C.2   440  HEM440      0.0000
     36  C3D        5.5790   39.8760   22.9010 C.2   440  HEM440      0.0000
     37  C4D        6.9170   39.9330   22.3890 C.2   440  HEM440      0.0000
     38  CMD        4.0990   37.9040   23.9320 C.3   440  HEM440      0.0000
     39  CAD        4.5790   41.0080   23.0480 C.3   440  HEM440      0.0000
     40  CBD        5.0550   41.7990   24.2650 C.3   440  HEM440      0.0000
     41  CGD        4.2070   43.0170   24.4590 C.2   440  HEM440      0.0000
     42  O1D        3.6810   43.5800   23.4760 O.co2 440  HEM440      0.0000
     43  O2D        4.0320   43.4560   25.6110 O.co2 440  HEM440      0.0000
@<TRIPOS>BOND
     1    15    14   ar
     2    22    19    1
     3    11     9    1
     4    13    14    1
     5    13    12    1
     6    14    16   ar
     7    19    20    2
     8    19    18    1
     9    23    24    2
    10    23    20    1
    11     3    18    1
    12     3    10    2
    13    20    21    1
    14    18    17    2
    15     9    10   ar
    16     9     8   ar
    17    10     6   ar
    18     8    12    1
    19     8     7   ar
    20    21    17    1
    21    21     4    2
    22    17     1    1
    23     6     7   ar
    24     6     1    1
    25     7     2    2
    26     4    26    1
    27     1    25    1
    28     1    33    1
    29     2    37    1
    30    26    25   ar
    31    26    27   ar
    32    25    29   ar
    33    37    33    2
    34    37    36    1
    35    33    34    1
    36    36    39    1
    37    36    35    2
    38    27    30    1
    39    27    28   ar
    40    34     5    2
    41    34    35    1
    42    39    40    1
    43    29     5    1
    44    29    28   ar
    45    35    38    1
    46    28    31    1
    47    42    41   ar
    48    40    41    1
    49    31    32    2
    50    41    43   ar
