@<TRIPOS>MOLECULE
1pkf_EPD_A_1.pdb
 34 35 0 0 0
SMALL
GASTEIGER

@<TRIPOS>ATOM
      1  C51        9.8770   38.8450   17.0040 C.3   450  EPD450      0.0260
      2  C5         8.4650   39.3670   17.1630 C.2   450  EPD450     -0.0480
      3  C4         7.5840   38.4710   17.5620 C.2   450  EPD450     -0.0305
      4  C3         6.1940   38.8430   17.9840 C.3   450  EPD450      0.0733
      5  C2         5.1190   38.0610   17.1600 C.3   450  EPD450      0.1916
      6  C20        3.6170   38.3950   17.5970 C.2   450  EPD450     -0.0020
      7  C21        2.5170   38.0170   16.6140 C.3   450  EPD450      0.0301
      8  C22        3.4770   39.0460   18.7680 C.2   450  EPD450      0.0234
      9  C23        2.2310   39.4570   19.3070 C.2   450  EPD450      0.1200
     10  C24        1.8950   39.9450   20.4580 C.3   450  EPD450      0.1230
     11  S1         0.1960   40.3190   20.5710 S.3   450  EPD450     -0.0791
     12  C25        0.0760   39.7760   18.9370 C.2   450  EPD450      0.1348
     13  C27       -1.2880   39.8210   18.3090 C.3   450  EPD450      0.0735
     14  N26        1.1340   39.3860   18.3930 N.2   450  EPD450     -0.4035
     15  C6         8.2070   40.8740   17.3890 C.3   450  EPD450      0.0217
     16  C7         8.7970   41.7700   16.3080 C.3   450  EPD450      0.0044
     17  C8         7.9280   41.6370   15.0440 C.3   450  EPD450      0.0029
     18  C9         6.8760   42.6040   14.5620 C.3   450  EPD450      0.0309
     19  C91        5.5730   42.7620   15.2390 C.3   450  EPD450      0.0026
     20  C10        6.4790   41.8110   13.2160 C.3   450  EPD450      0.1587
     21  O10        7.7120   41.7730   12.3970 O.3   450  EPD450     -0.2227
     22  C11        5.1660   42.3050   12.4820 C.3   450  EPD450      0.0880
     23  C28        5.2450   43.7150   11.9170 C.3   450  EPD450      0.0104
     24  C12        4.7770   41.3620   11.3450 C.2   450  EPD450      0.1543
     25  O12        5.4670   41.4750   10.3210 O.2   450  EPD450     -0.2959
     26  C13        3.6100   40.3800   11.6060 C.3   450  EPD450      0.0802
     27  C30        2.3030   41.0550   11.9450 C.3   450  EPD450      0.0099
     28  C29        3.4590   39.3370   10.4970 C.3   450  EPD450      0.0099
     29  C14        3.9140   39.5660   12.9630 C.3   450  EPD450      0.1694
     30  O14        2.8010   38.7970   13.4340 O.3   450  EPD450     -0.2221
     31  C15        4.9930   38.5220   12.8860 C.3   450  EPD450      0.1427
     32  C16        5.2650   37.9150   14.3070 C.2   450  EPD450      0.3198
     33  O16        5.8750   36.8730   14.4020 O.2   450  EPD450     -0.2500
     34  O1         4.7990   38.6050   15.5110 O.3   450  EPD450     -0.4476
@<TRIPOS>BOND
     1    25    24    2
     2    28    26    1
     3    24    26    1
     4    24    22    1
     5    26    27    1
     6    26    29    1
     7    23    22    1
     8    21    20    1
     9    22    20    1
    10    31    29    1
    11    31    32    1
    12    29    30    1
    13    20    18    1
    14    32    33    2
    15    32    34    1
    16    18    17    1
    17    18    19    1
    18    17    16    1
    19    34     5    1
    20    16    15    1
    21     7     6    1
    22     1     2    1
    23     5     6    1
    24     5     4    1
    25     2    15    1
    26     2     3    2
    27     3     4    1
    28     6     8    2
    29    13    12    1
    30    14    12    2
    31    14     9    2
    32     8     9    1
    33    12    11    1
    34     9    10    1
    35    10    11    1
