@<TRIPOS>MOLECULE
1pkg_ADP_A_1.pdb
 27 29 0 0 0
SMALL
GASTEIGER

@<TRIPOS>ATOM
      1  PB        24.0900   26.5680   24.2870 P.3   1480  ADP1480     0.5373
      2  O1B       23.3170   27.7270   23.7830 O.3   1480  ADP1480    -0.1143
      3  O2B       24.1470   25.4840   23.1760 O.2   1480  ADP1480    -0.2221
      4  O3B       25.4970   26.9290   24.8270 O.3   1480  ADP1480    -0.1143
      5  PA        23.8150   25.0470   26.6150 P.3   1480  ADP1480     0.2231
      6  O1A       23.2210   23.6960   26.3880 O.2   1480  ADP1480    -0.5169
      7  O2A       25.3690   25.0520   26.5540 O.3   1480  ADP1480    -0.4370
      8  O3A       23.2150   26.0060   25.4880 O.3   1480  ADP1480    -0.2261
      9  O5'       23.2230   25.7900   27.9130 O.3   1480  ADP1480    -0.3111
     10  C5'       23.3320   27.1850   27.9910 C.3   1480  ADP1480     0.1813
     11  C4'       23.4210   27.4740   29.4670 C.3   1480  ADP1480     0.1821
     12  O4'       22.1960   27.0950   30.0620 O.3   1480  ADP1480    -0.3135
     13  C3'       24.4620   26.6080   30.1660 C.3   1480  ADP1480     0.2184
     14  O3'       25.7730   27.1300   30.1410 O.3   1480  ADP1480    -0.2174
     15  C2'       23.8900   26.4910   31.5580 C.3   1480  ADP1480     0.2570
     16  O2'       24.1290   27.6740   32.2880 O.3   1480  ADP1480    -0.2130
     17  C1'       22.4030   26.4260   31.2900 C.3   1480  ADP1480     0.3186
     18  N9        21.8800   25.0530   31.2060 N.pl3 1480  ADP1480    -0.1439
     19  C8        21.7930   24.2640   30.0890 C.3   1480  ADP1480     0.3377
     20  N7        21.2390   23.0790   30.4330 N.2   1480  ADP1480    -0.2095
     21  C5        20.9540   23.1160   31.7560 C.2   1480  ADP1480     0.2526
     22  C6        20.3720   22.1890   32.6250 C.2   1480  ADP1480     0.4393
     23  N6        20.1600   20.9370   32.2340 N.pl3 1480  ADP1480     0.2180
     24  N1        20.1930   22.5240   33.9580 N.2   1480  ADP1480     0.0021
     25  C2        20.6130   23.7600   34.4110 C.3   1480  ADP1480     0.5254
     26  N3        21.1990   24.6650   33.5480 N.2   1480  ADP1480    -0.0055
     27  C4        21.3550   24.3520   32.2470 C.2   1480  ADP1480     0.3518
@<TRIPOS>BOND
     1     3     1    2
     2     2     1    1
     3     1     4    1
     4     1     8    1
     5     8     5    1
     6     6     5    2
     7     7     5    1
     8     5     9    1
     9     9    10    1
    10    10    11    1
    11    11    12    1
    12    11    13    1
    13    12    17    1
    14    19    20    1
    15    19    18    1
    16    14    13    1
    17    13    15    1
    18    20    21    2
    19    18    17    1
    20    18    27    1
    21    17    15    1
    22    15    16    1
    23    21    27    1
    24    21    22    1
    25    23    22    1
    26    27    26    2
    27    22    24    2
    28    26    25    1
    29    24    25    1
