@<TRIPOS>MOLECULE
1pkj_DUT_B_1.pdb
 28 29 0 0 0
SMALL
GASTEIGER

@<TRIPOS>ATOM
      1  N1        69.0860  108.5840   39.9910 N.am  250  DUT250     -0.1790
      2  C2        67.9110  108.9990   39.2940 C.1   250  DUT250      0.2844
      3  N3        66.6980  108.8080   40.0060 N.2   250  DUT250     -0.2452
      4  C4        66.5650  108.2630   41.2920 C.1   250  DUT250      0.2182
      5  C5        67.8150  107.8660   41.9260 C.2   250  DUT250      0.1242
      6  C6        68.9960  108.0310   41.2810 C.2   250  DUT250      0.0928
      7  O2        67.9130  109.4890   38.1650 O.2   250  DUT250     -0.1918
      8  O4        65.4630  108.1520   41.7970 O.2   250  DUT250     -0.2085
      9  C1'       70.4110  108.7690   39.2590 C.3   250  DUT250      0.2090
     10  C2'       71.0140  110.1240   39.6220 C.3   250  DUT250      0.0874
     11  C3'       72.3460  109.8430   40.2870 C.3   250  DUT250      0.1857
     12  C4'       72.5940  108.3490   40.0900 C.3   250  DUT250      0.1773
     13  O4'       71.3660  107.7370   39.5350 O.3   250  DUT250     -0.3339
     14  O3'       73.4050  110.5820   39.6770 O.3   250  DUT250     -0.2203
     15  C5'       72.9460  107.7340   41.4260 C.3   250  DUT250      0.1812
     16  O5'       73.1930  106.3450   41.3700 O.3   250  DUT250     -0.3112
     17  PA        73.7280  105.4820   42.6660 P.3   250  DUT250      0.2189
     18  O1A       72.5750  105.2900   43.8080 O.3   250  DUT250     -0.4371
     19  O2A       74.4390  104.0800   42.1690 O.2   250  DUT250     -0.5170
     20  O3A       74.9260  106.4110   43.2930 O.3   250  DUT250     -0.2700
     21  PB        75.3800  107.2550   44.6100 P.3   250  DUT250      0.2277
     22  O1B       75.6000  108.8210   44.1480 O.2   250  DUT250     -0.5168
     23  O2B       74.2120  107.1210   45.7460 O.3   250  DUT250     -0.4368
     24  O3B       76.7670  106.6430   45.2280 O.3   250  DUT250     -0.2258
     25  PG        77.6780  107.5990   46.2190 P.3   250  DUT250      0.5373
     26  O1G       78.4390  108.7600   45.3370 O.2   250  DUT250     -0.2221
     27  O2G       78.7550  106.5680   46.9250 O.3   250  DUT250     -0.1143
     28  O3G       76.7660  108.3060   47.3870 O.3   250  DUT250     -0.1143
@<TRIPOS>BOND
     1     7     2    2
     2     9    13    1
     3     9    10    1
     4     9     1    1
     5     2     1   am
     6     2     3    2
     7    13    12    1
     8    10    11    1
     9    14    11    1
    10     1     6    1
    11     3     4    2
    12    12    11    1
    13    12    15    1
    14     6     5    2
    15     4     8    2
    16     4     5    1
    17    16    15    1
    18    16    17    1
    19    19    17    2
    20    17    20    1
    21    17    18    1
    22    20    21    1
    23    22    21    2
    24    21    24    1
    25    21    23    1
    26    24    25    1
    27    26    25    2
    28    25    27    1
    29    25    28    1
