@<TRIPOS>MOLECULE
1pkk_DCP_B_1.pdb
 28 29 0 0 0
SMALL
GASTEIGER

@<TRIPOS>ATOM
      1  N1        30.9070   69.1420  -12.1290 N.am  293  DCP293     -0.1802
      2  C2        30.0900   70.1630  -11.3650 C.1   293  DCP293      0.2756
      3  N3        29.7480   71.4090  -12.0930 N.2   293  DCP293     -0.3024
      4  C4        30.1240   71.5830  -13.3410 C.2   293  DCP293      0.2346
      5  C5        30.8880   70.6220  -14.0340 C.2   293  DCP293      0.0687
      6  C6        31.2410   69.4200  -13.4030 C.2   293  DCP293      0.0835
      7  O2        29.7360   70.0010  -10.1910 O.2   293  DCP293     -0.1925
      8  N4        29.7900   72.7050  -13.9430 N.pl3 293  DCP293     -0.0921
      9  C1'       31.3100   67.8220  -11.4540 C.3   293  DCP293      0.2090
     10  C2'       30.3020   66.6820  -11.6860 C.3   293  DCP293      0.0874
     11  C3'       31.0140   65.7220  -12.6250 C.3   293  DCP293      0.1857
     12  C4'       32.5140   65.9620  -12.3600 C.3   293  DCP293      0.1773
     13  O4'       32.6080   67.3320  -11.8790 O.3   293  DCP293     -0.3339
     14  O3'       30.6310   64.3700  -12.4180 O.3   293  DCP293     -0.2203
     15  C5'       33.4370   65.8120  -13.5890 C.3   293  DCP293      0.1812
     16  O5'       33.7760   64.4390  -13.8950 O.3   293  DCP293     -0.3112
     17  PA        34.7330   63.9790  -15.1390 P.3   293  DCP293      0.2189
     18  O1A       35.0200   62.4850  -14.9230 O.3   293  DCP293     -0.4371
     19  O2A       36.0210   64.7970  -14.9880 O.2   293  DCP293     -0.5170
     20  O3A       33.9820   64.3650  -16.4180 O.3   293  DCP293     -0.2700
     21  PB        33.5940   63.2270  -17.3570 P.3   293  DCP293      0.2277
     22  O1B       34.8260   62.4470  -17.8330 O.3   293  DCP293     -0.4368
     23  O2B       32.8500   63.7340  -18.5910 O.2   293  DCP293     -0.5168
     24  O3B       32.6320   62.2430  -16.6350 O.3   293  DCP293     -0.2258
     25  PG        31.1970   62.7440  -16.3630 P.3   293  DCP293      0.5373
     26  O1G       30.5400   61.8120  -15.3450 O.3   293  DCP293     -0.1143
     27  O2G       30.3450   62.7350  -17.6240 O.2   293  DCP293     -0.2221
     28  O3G       31.2010   64.1530  -15.7640 O.3   293  DCP293     -0.1143
@<TRIPOS>BOND
     1    23    21    2
     2    22    21    1
     3    27    25    2
     4    21    24    1
     5    21    20    1
     6    24    25    1
     7    20    17    1
     8    25    28    1
     9    25    26    1
    10    17    19    2
    11    17    18    1
    12    17    16    1
    13     5     6    2
    14     5     4    1
    15     8     4    1
    16    16    15    1
    17    15    12    1
    18     6     1    1
    19     4     3    2
    20    11    14    1
    21    11    12    1
    22    11    10    1
    23    12    13    1
    24     1     9    1
    25     1     2   am
    26     3     2    2
    27    13     9    1
    28    10     9    1
    29     2     7    2
