@<TRIPOS>MOLECULE
1pkv_RBF_A_1.pdb
 27 29 0 0 0
SMALL
GASTEIGER

@<TRIPOS>ATOM
      1  N1        23.3300   25.9570   38.5480 N.2   100  RBF100     -0.2887
      2  C2        23.7100   26.1960   37.2520 C.1   100  RBF100      0.3669
      3  O2        24.2180   25.2370   36.5650 O.2   100  RBF100     -0.1744
      4  N3        23.5690   27.4310   36.6950 N.2   100  RBF100     -0.2300
      5  C4        23.0480   28.4840   37.3310 C.1   100  RBF100      0.2513
      6  O4        22.9040   29.5810   36.7230 O.2   100  RBF100     -0.2057
      7  C4A       22.6020   28.2920   38.7280 C.2   100  RBF100      0.2706
      8  N5        22.0850   29.2810   39.4850 N.2   100  RBF100     -0.3841
      9  C5A       21.7270   29.0560   40.7460 C.2   100  RBF100      0.1452
     10  C6        21.2040   30.0980   41.4980 C.2   100  RBF100      0.0252
     11  C7        20.8230   29.9010   42.8220 C.2   100  RBF100     -0.0375
     12  C7M       20.2650   31.0500   43.5890 C.3   100  RBF100      0.0268
     13  C8        20.9240   28.5270   43.4360 C.3   100  RBF100      0.0417
     14  C8M       20.5210   28.2360   44.8720 C.3   100  RBF100      0.0091
     15  C9        21.4640   27.4750   42.6630 C.2   100  RBF100     -0.0049
     16  C9A       21.8600   27.7010   41.3530 C.2   100  RBF100      0.0795
     17  N10       22.4290   26.6560   40.6010 N.pl3 100  RBF100     -0.2545
     18  C10       22.8120   26.9320   39.2840 C.2   100  RBF100      0.2449
     19  C1'       22.6370   25.3150   41.1020 C.3   100  RBF100      0.1336
     20  C2'       21.6250   24.3830   40.5000 C.3   100  RBF100      0.2048
     21  O2'       20.3020   24.8170   40.8980 O.3   100  RBF100     -0.2185
     22  C3'       21.9280   22.9820   41.0550 C.3   100  RBF100      0.2166
     23  O3'       23.2220   22.5910   40.6420 O.3   100  RBF100     -0.2175
     24  C4'       20.9340   21.9010   40.5550 C.3   100  RBF100      0.2175
     25  O4'       19.6030   22.1270   41.0660 O.3   100  RBF100     -0.2175
     26  C5'       21.4730   20.5280   40.9380 C.3   100  RBF100      0.2175
     27  O5'       21.3050   20.3980   42.3660 O.3   100  RBF100     -0.2175
@<TRIPOS>BOND
     1     3     2    2
     2     4     2    2
     3     4     5    2
     4     6     5    2
     5     2     1    2
     6     5     7    1
     7     1    18    2
     8     7    18    1
     9     7     8    2
    10    18    17    1
    11     8     9    2
    12    20    21    1
    13    20    22    1
    14    20    19    1
    15    24    26    1
    16    24    22    1
    17    24    25    1
    18    17    19    1
    19    17    16    1
    20    23    22    1
    21     9    16    1
    22     9    10    1
    23    26    27    1
    24    16    15    2
    25    10    11    2
    26    15    13    1
    27    11    13    1
    28    11    12    1
    29    13    14    1
