@<TRIPOS>MOLECULE
1pkw_GSH_A_1.pdb
 20 19 0 0 0
SMALL
GASTEIGER

@<TRIPOS>ATOM
      1  N1        75.2260   26.0980   13.0800 N.3   654  GSH654     -0.1208
      2  CA1       76.0470   27.2160   12.5210 C.3   654  GSH654      0.1948
      3  C1        76.6650   26.8230   11.2080 C.2   654  GSH654      0.3819
      4  O11       76.9320   25.6200   11.0750 O.co2 654  GSH654     -0.2441
      5  O12       76.9110   27.6630   10.3130 O.co2 654  GSH654     -0.2441
      6  CB1       77.1530   27.6050   13.5070 C.3   654  GSH654      0.0402
      7  CG1       77.8870   28.8750   13.0970 C.3   654  GSH654      0.0889
      8  CD1       78.8610   29.3620   14.1580 C.2   654  GSH654      0.2418
      9  OE1       78.8580   28.9140   15.2960 O.2   654  GSH654     -0.2733
     10  N2        79.6780   30.3360   13.7620 N.am  654  GSH654     -0.1968
     11  CA2       80.6630   30.9590   14.6060 C.3   654  GSH654      0.1843
     12  C2        80.2530   32.3710   14.9250 C.2   654  GSH654      0.2627
     13  O2        79.9670   33.1470   14.0090 O.2   654  GSH654     -0.2714
     14  CB2       81.9710   31.0290   13.8340 C.3   654  GSH654      0.0997
     15  SG2       82.5870   29.3530   13.4870 S.3   654  GSH654     -0.0797
     16  N3        80.2600   32.7180   16.1870 N.am  654  GSH654     -0.1917
     17  CA3       79.8870   34.0420   16.6440 C.3   654  GSH654      0.2285
     18  C3        78.6190   33.9800   17.4790 C.2   654  GSH654      0.3865
     19  O31       78.0540   32.8820   17.7240 O.co2 654  GSH654     -0.2437
     20  O32       78.1820   35.0780   17.9030 O.co2 654  GSH654     -0.2437
@<TRIPOS>BOND
     1     5     3   ar
     2     4     3   ar
     3     3     2    1
     4     2     1    1
     5     2     6    1
     6     7     6    1
     7     7     8    1
     8    15    14    1
     9    10     8   am
    10    10    11    1
    11    14    11    1
    12    13    12    2
    13     8     9    2
    14    11    12    1
    15    12    16   am
    16    16    17    1
    17    17    18    1
    18    18    19   ar
    19    18    20   ar
