@<TRIPOS>MOLECULE
1pl1_ABY_A_1.pdb
 26 26 0 0 0
SMALL
GASTEIGER

@<TRIPOS>ATOM
      1  C7'       88.2970   25.2480   16.7880 C.3   654  ABY654      0.2525
      2  O4'       88.2620   26.3690   15.9270 O.3   654  ABY654     -0.4714
      3  C4'       87.1420   27.1610   15.8020 C.ar  654  ABY654      0.1387
      4  C5'       85.8830   26.7140   16.2340 C.ar  654  ABY654      0.0366
      5  C6'       84.7720   27.5460   16.0820 C.ar  654  ABY654     -0.0003
      6  C1'       84.9150   28.8020   15.4990 C.ar  654  ABY654     -0.0111
      7  C2'       86.1690   29.2680   15.0870 C.ar  654  ABY654     -0.0003
      8  C3'       87.2860   28.4310   15.2220 C.ar  654  ABY654      0.0366
      9  C'        83.6970   29.6820   15.3620 C.3   654  ABY654      0.0838
     10  SG2       82.9490   29.6800   13.7570 S.3   654  ABY654     -0.1331
     11  CB2       82.1570   31.2690   13.8790 C.3   654  ABY654      0.0889
     12  CA2       80.8950   31.2840   14.7420 C.3   654  ABY654      0.1834
     13  N2        79.8660   30.5710   14.0130 N.am  654  ABY654     -0.1969
     14  CD1       79.1180   29.6150   14.5090 C.2   654  ABY654      0.2418
     15  OE1       79.2530   29.2260   15.6540 O.2   654  ABY654     -0.2733
     16  CG1       78.0720   29.0610   13.5500 C.3   654  ABY654      0.0884
     17  CB1       77.4230   27.7670   13.9990 C.3   654  ABY654      0.0301
     18  CA1       76.0100   27.5960   13.4070 C.3   654  ABY654      0.1098
     19  N1        75.5100   26.1720   13.4330 N.3   654  ABY654     -0.1314
     20  C2        80.4150   32.6980   14.9770 C.2   654  ABY654      0.2626
     21  O2        80.1020   33.4090   14.0130 O.2   654  ABY654     -0.2714
     22  N3        80.3940   33.0980   16.2440 N.am  654  ABY654     -0.1917
     23  CA3       79.9060   34.4080   16.6410 C.3   654  ABY654      0.2285
     24  C3        78.6740   34.3250   17.5040 C.2   654  ABY654      0.3865
     25  O31       78.1160   33.2330   17.6380 O.co2 654  ABY654     -0.2437
     26  O32       78.2590   35.3800   18.0290 O.co2 654  ABY654     -0.2437
@<TRIPOS>BOND
     1    18    19    1
     2    18    17    1
     3    16    17    1
     4    16    14    1
     5    10    11    1
     6    10     9    1
     7    11    12    1
     8    13    14   am
     9    13    12    1
    10    21    20    2
    11    14    15    2
    12    12    20    1
    13    20    22   am
    14     7     8   ar
    15     7     6   ar
    16     8     3   ar
    17     9     6    1
    18     6     5   ar
    19     3     2    1
    20     3     4   ar
    21     2     1    1
    22     5     4   ar
    23    22    23    1
    24    23    24    1
    25    24    25   ar
    26    24    26   ar
