@<TRIPOS>MOLECULE
1pl2_ABY_A_1.pdb
 26 26 0 0 0
SMALL
GASTEIGER

@<TRIPOS>ATOM
      1  C7'       88.1430   25.7570   16.7160 C.3   654  ABY654      0.2525
      2  O4'       88.1190   26.9100   15.8760 O.3   654  ABY654     -0.4714
      3  C4'       86.9810   27.6800   15.7350 C.ar  654  ABY654      0.1387
      4  C5'       85.7030   27.1570   16.0060 C.ar  654  ABY654      0.0366
      5  C6'       84.5800   27.9640   15.8790 C.ar  654  ABY654     -0.0003
      6  C1'       84.7160   29.2830   15.4710 C.ar  654  ABY654     -0.0111
      7  C2'       85.9780   29.8260   15.2010 C.ar  654  ABY654     -0.0003
      8  C3'       87.1080   29.0170   15.3330 C.ar  654  ABY654      0.0366
      9  C'        83.4770   30.1250   15.3760 C.3   654  ABY654      0.0838
     10  SG2       82.8140   30.2110   13.7660 S.3   654  ABY654     -0.1331
     11  CB2       82.0090   31.8150   13.8340 C.3   654  ABY654      0.0889
     12  CA2       80.7560   31.7940   14.6990 C.3   654  ABY654      0.1834
     13  N2        79.7500   31.0280   13.9930 N.am  654  ABY654     -0.1969
     14  CD1       79.0140   30.0730   14.4990 C.2   654  ABY654      0.2418
     15  OE1       79.0910   29.6820   15.6570 O.2   654  ABY654     -0.2733
     16  CG1       78.0260   29.5000   13.4940 C.3   654  ABY654      0.0884
     17  CB1       77.2360   28.3320   14.0320 C.3   654  ABY654      0.0301
     18  CA1       75.9130   28.1540   13.2720 C.3   654  ABY654      0.1098
     19  N1        75.3410   26.7630   13.3660 N.3   654  ABY654     -0.1314
     20  C2        80.2560   33.2100   14.9620 C.2   654  ABY654      0.2626
     21  O2        79.9810   33.9740   14.0160 O.2   654  ABY654     -0.2714
     22  N3        80.2160   33.5470   16.2520 N.am  654  ABY654     -0.1917
     23  CA3       79.8660   34.8720   16.7640 C.3   654  ABY654      0.2285
     24  C3        78.5760   34.8410   17.5450 C.2   654  ABY654      0.3865
     25  O31       77.9920   33.7390   17.7040 O.co2 654  ABY654     -0.2437
     26  O32       78.1580   35.9300   18.0110 O.co2 654  ABY654     -0.2437
@<TRIPOS>BOND
     1    18    19    1
     2    18    17    1
     3    16    17    1
     4    16    14    1
     5    10    11    1
     6    10     9    1
     7    11    12    1
     8    13    14   am
     9    13    12    1
    10    21    20    2
    11    14    15    2
    12    12    20    1
    13    20    22   am
    14     7     8   ar
    15     7     6   ar
    16     8     3   ar
    17     9     6    1
    18     6     5   ar
    19     3     2    1
    20     3     4   ar
    21     2     1    1
    22     5     4   ar
    23    22    23    1
    24    23    24    1
    25    24    25   ar
    26    24    26   ar
