@<TRIPOS>MOLECULE
1pl3_HEM_A_1.pdb
 43 50 0 0 0
SMALL
GASTEIGER

@<TRIPOS>ATOM
      1  CHA       40.9870   33.3590   31.2550 C.2   401  HEM401      0.0000
      2  CHB       42.6090   30.2840   34.5390 C.2   401  HEM401      0.0000
      3  CHC       46.6720   32.7690   34.8700 C.2   401  HEM401      0.0000
      4  CHD       45.3240   35.3580   30.9970 C.2   401  HEM401      0.0000
      5  C1A       41.0870   32.3110   32.1320 C.2   401  HEM401      0.0000
      6  C2A       39.9940   31.4110   32.4680 C.2   401  HEM401      0.0000
      7  C3A       40.4170   30.5590   33.3890 C.2   401  HEM401      0.0000
      8  C4A       41.7820   30.9190   33.6620 C.2   401  HEM401      0.0000
      9  CMA       39.5910   29.4080   34.0130 C.3   401  HEM401      0.0000
     10  CAA       38.5840   31.4830   31.8830 C.3   401  HEM401      0.0000
     11  CBA       37.7820   32.4510   32.8060 C.3   401  HEM401      0.0000
     12  CGA       36.3580   32.7540   32.2770 C.2   401  HEM401      0.0000
     13  O1A       35.3600   32.7710   33.0810 O.co2 401  HEM401      0.0000
     14  O2A       36.1630   32.9740   31.0270 O.co2 401  HEM401      0.0000
     15  C1B       43.8100   30.7630   34.9970 C.ar  401  HEM401      0.0000
     16  C2B       44.5790   30.1910   36.0980 C.ar  401  HEM401      0.0000
     17  C3B       45.6990   30.8900   36.2150 C.ar  401  HEM401      0.0000
     18  C4B       45.6850   31.8710   35.1430 C.ar  401  HEM401      0.0000
     19  CMB       44.0500   28.9910   36.9070 C.3   401  HEM401      0.0000
     20  CAB       46.8540   30.8190   37.2140 C.2   401  HEM401      0.0000
     21  CBB       46.9430   29.7430   38.0100 C.2   401  HEM401      0.0000
     22  C1C       46.6440   33.6240   33.7760 C.2   401  HEM401      0.0000
     23  C2C       47.7610   34.4740   33.3630 C.2   401  HEM401      0.0000
     24  C3C       47.3850   35.2010   32.3140 C.2   401  HEM401      0.0000
     25  C4C       46.0320   34.8050   32.0350 C.2   401  HEM401      0.0000
     26  CMC       49.0710   34.4770   34.1330 C.3   401  HEM401      0.0000
     27  CAC       48.0600   36.2940   31.4050 C.2   401  HEM401      0.0000
     28  CBC       49.2640   36.6790   31.6690 C.2   401  HEM401      0.0000
     29  C1D       43.9920   35.1060   30.7770 C.ar  401  HEM401      0.0000
     30  C2D       43.1730   35.8790   29.8340 C.ar  401  HEM401      0.0000
     31  C3D       41.8350   35.2450   29.8950 C.ar  401  HEM401      0.0000
     32  C4D       41.9820   34.2000   30.8950 C.ar  401  HEM401      0.0000
     33  CMD       43.6290   37.0400   28.9290 C.3   401  HEM401      0.0000
     34  CAD       40.6080   35.6900   29.1230 C.3   401  HEM401      0.0000
     35  CBD       40.5120   35.2460   27.6620 C.3   401  HEM401      0.0000
     36  CGD       40.4310   33.7480   27.5600 C.2   401  HEM401      0.0000
     37  O1D       41.4220   33.1350   27.1240 O.co2 401  HEM401      0.0000
     38  O2D       39.3720   33.1440   27.9050 O.co2 401  HEM401      0.0000
     39  NA        42.1510   32.0080   32.9060 N.2   401  HEM401      0.0000
     40  NB        44.5240   31.7770   34.4200 N.ar  401  HEM401      0.0000
     41  NC        45.5970   33.8290   32.9050 N.2   401  HEM401      0.0000
     42  ND        43.2550   34.1430   31.4120 N.ar  401  HEM401      0.0000
     43 FE         43.8770   32.9350   32.8980 Fe    401  HEM401      0.0000
@<TRIPOS>BOND
     1    37    36   ar
     2    36    35    1
     3    36    38   ar
     4    35    34    1
     5    33    30    1
     6    34    31    1
     7    30    31   ar
     8    30    29   ar
     9    31    32   ar
    10    29     4    2
    11    29    42   ar
    12    32     1    2
    13    32    42   ar
    14     4    25    1
    15    14    12   ar
    16     1     5    1
    17    27    28    2
    18    27    24    1
    19    42    43    1
    20    10     6    1
    21    10    11    1
    22    25    24    1
    23    25    41    2
    24     5     6    1
    25     5    39    2
    26    12    11    1
    27    12    13   ar
    28    24    23    2
    29     6     7    2
    30    43    41    1
    31    43    39    1
    32    43    40    1
    33    41    22    1
    34    39     8    1
    35    23    22    1
    36    23    26    1
    37     7     8    1
    38     7     9    1
    39     8     2    2
    40    22     3    2
    41    40    15   ar
    42    40    18   ar
    43     2    15    1
    44     3    18    1
    45    15    16   ar
    46    18    17   ar
    47    16    17   ar
    48    16    19    1
    49    17    20    1
    50    20    21    2
