@<TRIPOS>MOLECULE
1pl6_572_A_1.pdb
 20 21 0 0 0
SMALL
GASTEIGER

@<TRIPOS>ATOM
      1  O30       97.0500   38.4640   36.2210 O.3   405  572405     -0.2016
      2  C14       98.3610   38.7580   35.7890 C.3   405  572405      0.2925
      3  C7        99.0560   37.5230   35.2870 C.1   405  572405      0.0995
      4  N4       100.3060   37.7010   34.8560 N.2   405  572405     -0.3371
      5  C2       101.0440   36.6380   34.3770 C.2   405  572405      0.1962
      6  C5       100.4520   35.3020   34.3360 C.2   405  572405      0.0700
      7  C6        99.1310   35.2210   34.8080 C.2   405  572405      0.1143
      8  N3        98.4270   36.3180   35.2850 N.2   405  572405     -0.1837
      9  N1       102.3140   36.9500   33.9770 N.pl3 405  572405     -0.2799
     10  C19      102.8820   38.3110   34.0330 C.3   405  572405      0.1123
     11  C15      104.0830   38.2580   34.9900 C.3   405  572405      0.1184
     12  N17      105.0710   37.2350   34.4770 N.3   405  572405     -0.1419
     13  S28      106.4500   37.1270   35.5030 S.O2  405  572405      0.1022
     14  O25      107.4250   35.9570   34.9030 O.2   405  572405     -0.1408
     15  N22      105.8360   36.7380   37.1000 N.3   405  572405     -0.1424
     16  C13      106.0450   37.7550   38.0950 C.3   405  572405      0.1161
     17  C11      106.3590   35.4290   37.5380 C.3   405  572405      0.1161
     18  O12      107.1130   38.6070   35.5980 O.2   405  572405     -0.1408
     19  C16      104.3770   35.8330   34.3180 C.3   405  572405      0.1184
     20  C18      103.2540   35.9090   33.4590 C.3   405  572405      0.1123
@<TRIPOS>BOND
     1    20     9    1
     2    20    19    1
     3     9    10    1
     4     9     5    1
     5    10    11    1
     6    19    12    1
     7     6     5    1
     8     6     7    2
     9     5     4    2
    10    12    11    1
    11    12    13    1
    12     7     8    1
    13     4     3    2
    14    14    13    2
    15     8     3    2
    16     3     2    1
    17    13    18    2
    18    13    15    1
    19     2     1    1
    20    15    17    1
    21    15    16    1
