@<TRIPOS>MOLECULE
1pl6_NAD_A_1.pdb
 44 48 0 0 0
SMALL
GASTEIGER

@<TRIPOS>ATOM
      1  PA        96.3680   28.6010   28.8140 P.3   404  NAD404      0.2189
      2  O1A       97.3460   27.5990   29.1390 O.2   404  NAD404     -0.5170
      3  O2A       94.9790   28.4030   29.3950 O.3   404  NAD404     -0.4371
      4  O5B       96.1210   28.7390   27.2300 O.3   404  NAD404     -0.3112
      5  C5B       97.2390   28.6040   26.3310 C.3   404  NAD404      0.1813
      6  C4B       96.6790   27.9850   25.0790 C.3   404  NAD404      0.1821
      7  O4B       97.7290   27.8510   24.0930 O.3   404  NAD404     -0.3135
      8  C3B       96.0770   26.5770   25.2510 C.3   404  NAD404      0.2184
      9  O3B       94.6730   26.5640   24.9690 O.3   404  NAD404     -0.2174
     10  C2B       97.0180   25.7260   24.3700 C.3   404  NAD404      0.2570
     11  O2B       96.3090   24.6070   23.7840 O.3   404  NAD404     -0.2130
     12  C1B       97.4540   26.7430   23.3350 C.3   404  NAD404      0.3186
     13  N9A       98.6680   26.4380   22.5720 N.pl3 404  NAD404     -0.1439
     14  C8A       99.8510   25.9280   23.0320 C.3   404  NAD404      0.3377
     15  N7A      100.7850   25.8090   22.0910 N.2   404  NAD404     -0.2095
     16  C5A      100.1640   26.2710   20.9440 C.2   404  NAD404      0.2526
     17  C6A      100.6290   26.4130   19.6230 C.2   404  NAD404      0.4393
     18  N6A      101.8320   26.0840   19.1890 N.pl3 404  NAD404      0.2180
     19  N1A       99.7270   26.8270   18.6710 N.2   404  NAD404      0.0021
     20  C2A       98.4920   27.2340   19.1090 C.3   404  NAD404      0.5254
     21  N3A       97.9550   27.1780   20.3150 N.2   404  NAD404     -0.0055
     22  C4A       98.8620   26.6800   21.2130 C.2   404  NAD404      0.3518
     23  O3        96.8620   29.9970   29.2140 O.3   404  NAD404     -0.2703
     24  PN        96.2730   31.4870   29.5450 P.3   404  NAD404      0.2189
     25  O1N       95.7380   31.5320   30.8660 O.3   404  NAD404     -0.4371
     26  O2N       95.2460   31.7750   28.4170 O.2   404  NAD404     -0.5170
     27  O5D       97.6810   32.1270   29.3600 O.3   404  NAD404     -0.3112
     28  C5D       98.1980   32.4720   28.0820 C.3   404  NAD404      0.1813
     29  C4D       99.6340   32.8860   28.3050 C.3   404  NAD404      0.1799
     30  O4D       99.7230   34.2800   28.6570 O.3   404  NAD404     -0.3327
     31  C3D      100.3920   32.1400   29.4140 C.3   404  NAD404      0.2158
     32  O3D      101.7440   31.8770   29.0130 O.3   404  NAD404     -0.2175
     33  C2D      100.2920   33.1400   30.5780 C.3   404  NAD404      0.2309
     34  O2D      101.3160   32.8830   31.5640 O.3   404  NAD404     -0.2158
     35  C1D      100.4960   34.4140   29.8220 C.3   404  NAD404      0.2263
     36  N1N      100.0700   35.6420   30.4550 N.pl3 404  NAD404     -0.2787
     37  C2N      100.9020   36.7410   30.3700 C.3   404  NAD404      0.1244
     38  C3N      100.5920   38.0080   31.0390 C.2   404  NAD404      0.0544
     39  C7N      101.5490   39.1060   30.8220 C.2   404  NAD404      0.2818
     40  O7N      101.3250   40.1720   31.4200 O.2   404  NAD404     -0.2670
     41  N7N      102.6320   38.9870   30.0210 N.am  404  NAD404     -0.0839
     42  C4N       99.2790   38.1330   31.7900 C.2   404  NAD404      0.0033
     43  C5N       98.4120   36.9220   31.6350 C.2   404  NAD404      0.0157
     44  C6N       98.7960   35.7710   31.1120 C.2   404  NAD404      0.0633
@<TRIPOS>BOND
     1    19    20    1
     2    19    17    2
     3    20    21    1
     4    18    17    1
     5    17    16    1
     6    21    22    2
     7    16    22    1
     8    16    15    2
     9    22    13    1
    10    15    14    1
    11    13    14    1
    12    13    12    1
    13    12     7    1
    14    12    10    1
    15    11    10    1
    16     7     6    1
    17    10     8    1
    18     9     8    1
    19     6     8    1
    20     6     5    1
    21     5     4    1
    22     4     1    1
    23    28    29    1
    24    28    27    1
    25    29    30    1
    26    29    31    1
    27    26    24    2
    28    30    35    1
    29     1     2    2
    30     1    23    1
    31     1     3    1
    32    32    31    1
    33    23    24    1
    34    27    24    1
    35    31    33    1
    36    24    25    1
    37    35    36    1
    38    35    33    1
    39    41    39   am
    40    37    36    1
    41    37    38    1
    42    36    44    1
    43    33    34    1
    44    39    38    1
    45    39    40    2
    46    38    42    2
    47    44    43    2
    48    43    42    1
