@<TRIPOS>MOLECULE
1pl8_NAD_A_1.pdb
 44 48 0 0 0
SMALL
GASTEIGER

@<TRIPOS>ATOM
      1  PA        95.4620   28.1620   28.6470 P.3   400  NAD400      0.2189
      2  O1A       96.4000   27.1080   28.9340 O.2   400  NAD400     -0.5170
      3  O2A       94.0550   27.9840   29.2160 O.3   400  NAD400     -0.4371
      4  O5B       95.2280   28.3880   27.0630 O.3   400  NAD400     -0.3112
      5  C5B       96.3380   28.2640   26.1490 C.3   400  NAD400      0.1813
      6  C4B       95.7710   27.6680   24.8820 C.3   400  NAD400      0.1821
      7  O4B       96.8200   27.5550   23.8930 O.3   400  NAD400     -0.3135
      8  C3B       95.1810   26.2540   25.0320 C.3   400  NAD400      0.2184
      9  O3B       93.7860   26.2350   24.7210 O.3   400  NAD400     -0.2174
     10  C2B       96.1360   25.4190   24.1570 C.3   400  NAD400      0.2570
     11  O2B       95.4550   24.2750   23.5850 O.3   400  NAD400     -0.2130
     12  C1B       96.5550   26.4430   23.1230 C.3   400  NAD400      0.3186
     13  N9A       97.7750   26.1590   22.3580 N.pl3 400  NAD400     -0.1439
     14  C8A       98.9490   25.6300   22.8140 C.3   400  NAD400      0.3377
     15  N7A       99.8940   25.5380   21.8810 N.2   400  NAD400     -0.2095
     16  C5A       99.2910   26.0380   20.7470 C.2   400  NAD400      0.2526
     17  C6A       99.7750   26.2220   19.4340 C.2   400  NAD400      0.4393
     18  N6A      100.9800   25.9080   19.0020 N.pl3 400  NAD400      0.2180
     19  N1A       98.8880   26.6670   18.4890 N.2   400  NAD400      0.0021
     20  C2A       97.6460   27.0610   18.9270 C.3   400  NAD400      0.5254
     21  N3A       97.0950   26.9700   20.1210 N.2   400  NAD400     -0.0055
     22  C4A       97.9870   26.4420   21.0140 C.2   400  NAD400      0.3518
     23  O3        96.0030   29.5030   29.1070 O.3   400  NAD400     -0.2703
     24  PN        95.4870   31.0190   29.3600 P.3   400  NAD400      0.2189
     25  O1N       94.9210   31.1550   30.6520 O.3   400  NAD400     -0.4371
     26  O2N       94.4880   31.3240   28.1940 O.2   400  NAD400     -0.5170
     27  O5D       96.9040   31.6120   29.1700 O.3   400  NAD400     -0.3112
     28  C5D       97.3630   32.0510   27.9000 C.3   400  NAD400      0.1813
     29  C4D       98.7950   32.4620   28.0750 C.3   400  NAD400      0.1799
     30  O4D       98.8480   33.8460   28.4910 O.3   400  NAD400     -0.3327
     31  C3D       99.6070   31.6870   29.1200 C.3   400  NAD400      0.2158
     32  O3D      100.9370   31.4620   28.6500 O.3   400  NAD400     -0.2175
     33  C2D       99.5500   32.6350   30.3270 C.3   400  NAD400      0.2309
     34  O2D      100.6640   32.3840   31.2040 O.3   400  NAD400     -0.2158
     35  C1D       99.6430   33.9550   29.6310 C.3   400  NAD400      0.2263
     36  N1N       99.2150   35.1230   30.3940 N.pl3 400  NAD400     -0.2787
     37  C2N       99.9710   36.2750   30.2890 C.3   400  NAD400      0.1244
     38  C3N       99.7120   37.4710   31.1030 C.2   400  NAD400      0.0544
     39  C7N      100.6160   38.6170   30.8650 C.2   400  NAD400      0.2818
     40  O7N      100.4380   39.6320   31.5450 O.2   400  NAD400     -0.2670
     41  N7N      101.6070   38.5870   29.9540 N.am  400  NAD400     -0.0839
     42  C4N       98.5330   37.4570   32.0540 C.2   400  NAD400      0.0033
     43  C5N       97.6860   36.2270   31.8880 C.2   400  NAD400      0.0157
     44  C6N       98.0420   35.1390   31.2210 C.2   400  NAD400      0.0633
@<TRIPOS>BOND
     1    19    20    1
     2    19    17    2
     3    20    21    1
     4    18    17    1
     5    17    16    1
     6    21    22    2
     7    16    22    1
     8    16    15    2
     9    22    13    1
    10    15    14    1
    11    13    14    1
    12    13    12    1
    13    12     7    1
    14    12    10    1
    15    11    10    1
    16     7     6    1
    17    10     8    1
    18     9     8    1
    19     6     8    1
    20     6     5    1
    21     5     4    1
    22     4     1    1
    23    28    29    1
    24    28    27    1
    25    29    30    1
    26    29    31    1
    27    26    24    2
    28    30    35    1
    29     1     2    2
    30     1    23    1
    31     1     3    1
    32    32    31    1
    33    23    24    1
    34    31    33    1
    35    27    24    1
    36    24    25    1
    37    35    33    1
    38    35    36    1
    39    41    39   am
    40    37    36    1
    41    37    38    1
    42    33    34    1
    43    36    44    1
    44    39    38    1
    45    39    40    2
    46    38    42    2
    47    44    43    2
    48    43    42    1
