@<TRIPOS>MOLECULE
1pl9_FPE_A_1.pdb
 11 10 0 0 0
SMALL
GASTEIGER

@<TRIPOS>ATOM
      1  O1        71.3560  -51.7590   97.8700 O.co2 300  FPE300     -0.2428
      2  C1        70.2330  -52.3240   97.9110 C.2   300  FPE300      0.3948
      3  O2'       70.1510  -53.5650   98.0650 O.co2 300  FPE300     -0.2428
      4  C2        68.9420  -51.4910   97.7700 C.3   300  FPE300      0.2634
      5  O5        67.5410  -51.8670   97.4420 O.3   300  FPE300     -0.2581
      6  P1        66.9080  -53.3870   97.7570 P.3   300  FPE300      0.5331
      7  O2        66.0920  -54.1620   96.7240 O.2   300  FPE300     -0.2224
      8  O3        68.1150  -54.2260   98.1740 O.3   300  FPE300     -0.1145
      9  O4        66.0280  -53.1410   98.9850 O.3   300  FPE300     -0.1145
     10  C3        69.0090  -50.2950   97.1630 C.3   300  FPE300      0.2348
     11  F1        67.9060  -49.4250   97.0710 F     300  FPE300     -0.2310
@<TRIPOS>BOND
     1     7     6    2
     2    11    10    1
     3    10     4    1
     4     5     6    1
     5     5     4    1
     6     6     8    1
     7     6     9    1
     8     4     2    1
     9     1     2   ar
    10     2     3   ar
