@<TRIPOS>MOLECULE
1plj_CAG_A_1.pdb
 43 46 0 0 0
SMALL
GASTEIGER

@<TRIPOS>ATOM
      1  PG         5.6010   32.0970   22.1690 P.3   167  CAG167      0.2191
      2  O1G        4.7650   32.7370   21.1590 O.2   167  CAG167     -0.5170
      3  O2G        5.3020   30.7210   22.5770 O.3   167  CAG167     -0.4371
      4  O3G        5.7190   33.0480   23.4550 O.3   167  CAG167     -0.3118
      5  PB         7.4660   32.0740   20.0920 P.3   167  CAG167      0.2237
      6  O1B        7.5850   30.6210   19.8130 O.3   167  CAG167     -0.4369
      7  O2B        6.6060   32.9030   19.2230 O.2   167  CAG167     -0.5168
      8  O3B        7.1310   32.2290   21.6760 O.3   167  CAG167     -0.2701
      9  PA         9.3080   34.1890   19.5310 P.3   167  CAG167      0.2189
     10  O1A        9.2610   34.2780   18.0510 O.2   167  CAG167     -0.5170
     11  O2A        8.5830   35.1890   20.3370 O.3   167  CAG167     -0.4371
     12  O3A        8.9530   32.6990   20.0780 O.3   167  CAG167     -0.2701
     13  O5'       10.8700   34.2050   19.9070 O.3   167  CAG167     -0.3112
     14  C5B       11.2570   33.8020   21.2160 C.3   167  CAG167      0.1813
     15  C4B       12.6670   34.2450   21.5680 C.3   167  CAG167      0.1799
     16  O4'       13.6520   33.4270   20.9280 O.3   167  CAG167     -0.3326
     17  C3B       12.8770   35.6940   21.1370 C.3   167  CAG167      0.2158
     18  O3'       13.6900   36.4040   22.0840 O.3   167  CAG167     -0.2175
     19  C2B       13.5320   35.4970   19.7800 C.3   167  CAG167      0.2310
     20  O2'       14.3360   36.5590   19.2630 O.3   167  CAG167     -0.2158
     21  C1B       14.3700   34.2700   20.0380 C.3   167  CAG167      0.2293
     22  N9        14.5420   33.6000   18.7620 N.pl3 167  CAG167     -0.2354
     23  C8        13.6220   33.1770   17.8410 C.3   167  CAG167      0.2246
     24  N7        14.1510   32.7170   16.7410 N.2   167  CAG167     -0.2322
     25  C5        15.5200   32.7600   17.0050 C.2   167  CAG167      0.2182
     26  C6        16.6120   32.3310   16.2190 C.1   167  CAG167      0.2372
     27  O6        16.6120   31.6270   15.2100 O.2   167  CAG167     -0.2069
     28  N1        17.8060   32.6690   16.8190 N.2   167  CAG167     -0.2485
     29  C2        17.9470   33.1850   18.0810 C.1   167  CAG167      0.2531
     30  N2        19.1850   33.4010   18.4860 N.pl3 167  CAG167     -0.0226
     31  N3        16.9350   33.4800   18.8800 N.2   167  CAG167     -0.3074
     32  C4        15.7540   33.2740   18.2550 C.2   167  CAG167      0.2300
     33  C'         5.8210   32.6330   24.8140 C.3   167  CAG167      0.1457
     34  CM'        5.2790   33.7650   25.6600 C.3   167  CAG167      0.0375
     35  C1'        7.1830   32.2380   25.3220 C.ar  167  CAG167      0.0274
     36  C2'        8.3160   32.9870   25.2020 C.ar  167  CAG167      0.1412
     37  N2'        8.3840   34.2180   24.5600 N.pl3 167  CAG167      0.0574
     38  O'L        7.4110   34.6220   23.6430 O.2   167  CAG167     -0.1261
     39  O'M        9.5210   35.0150   24.7580 O.2   167  CAG167     -0.1261
     40  C3'        9.4510   32.6160   25.8370 C.ar  167  CAG167      0.0238
     41  C4'        9.4640   31.5660   26.6880 C.ar  167  CAG167      0.0017
     42  C5'        8.3440   30.8280   26.8370 C.ar  167  CAG167     -0.0001
     43  C6'        7.2260   31.1610   26.1470 C.ar  167  CAG167     -0.0003
@<TRIPOS>BOND
     1    27    26    2
     2    26    28    2
     3    26    25    1
     4    24    25    2
     5    24    23    1
     6    28    29    2
     7    25    32    1
     8    23    22    1
     9    10     9    2
    10    29    30    1
    11    29    31    2
    12    32    22    1
    13    32    31    2
    14    22    21    1
    15     7     5    2
    16    20    19    1
    17     9    13    1
    18     9    12    1
    19     9    11    1
    20    19    21    1
    21    19    17    1
    22     6     5    1
    23    13    14    1
    24    21    16    1
    25    12     5    1
    26     5     8    1
    27    16    15    1
    28    17    15    1
    29    17    18    1
    30     2     1    2
    31    14    15    1
    32     8     1    1
    33     1     3    1
    34     1     4    1
    35     4    33    1
    36    38    37    2
    37    37    39    2
    38    37    36    1
    39    33    35    1
    40    33    34    1
    41    36    35   ar
    42    36    40   ar
    43    35    43   ar
    44    40    41   ar
    45    43    42   ar
    46    41    42   ar
