@<TRIPOS>MOLECULE
1plk_GTP_A_1.pdb
 32 34 0 0 0
SMALL
GASTEIGER

@<TRIPOS>ATOM
      1  PG         5.0630   30.5080   21.5020 P.3   167  GTP167      0.5373
      2  O1G        4.3810   30.2450   22.7760 O.3   167  GTP167     -0.1143
      3  O2G        4.4650   31.5860   20.6860 O.2   167  GTP167     -0.2221
      4  O3G        5.2520   29.2350   20.7500 O.3   167  GTP167     -0.1143
      5  O3B        6.5940   31.2080   21.7030 O.3   167  GTP167     -0.2258
      6  PB         7.5240   31.6720   20.3230 P.3   167  GTP167      0.2277
      7  O1B        7.8790   30.3780   19.6720 O.3   167  GTP167     -0.4368
      8  O2B        6.6950   32.6550   19.5690 O.2   167  GTP167     -0.5168
      9  O3A        8.9530   32.6990   20.0780 O.3   167  GTP167     -0.2700
     10  PA         9.3080   34.1890   19.5310 P.3   167  GTP167      0.2189
     11  O1A        9.2610   34.2780   18.0510 O.2   167  GTP167     -0.5170
     12  O2A        8.5830   35.1890   20.3370 O.3   167  GTP167     -0.4371
     13  O5'       10.8700   34.2050   19.9070 O.3   167  GTP167     -0.3112
     14  C5'       11.2570   33.8020   21.2160 C.3   167  GTP167      0.1813
     15  C4'       12.6670   34.2450   21.5680 C.3   167  GTP167      0.1799
     16  O4'       13.6520   33.4270   20.9280 O.3   167  GTP167     -0.3326
     17  C3'       12.8770   35.6940   21.1370 C.3   167  GTP167      0.2158
     18  O3'       13.6900   36.4040   22.0840 O.3   167  GTP167     -0.2175
     19  C2'       13.5320   35.4970   19.7800 C.3   167  GTP167      0.2310
     20  O2'       14.3360   36.5590   19.2630 O.3   167  GTP167     -0.2158
     21  C1'       14.3700   34.2700   20.0380 C.3   167  GTP167      0.2293
     22  N9        14.5420   33.6000   18.7620 N.pl3 167  GTP167     -0.2354
     23  C8        13.6220   33.1770   17.8410 C.3   167  GTP167      0.2246
     24  N7        14.1510   32.7170   16.7410 N.2   167  GTP167     -0.2322
     25  C5        15.5200   32.7600   17.0050 C.2   167  GTP167      0.2182
     26  C6        16.6120   32.3310   16.2190 C.1   167  GTP167      0.2372
     27  O6        16.6120   31.6270   15.2100 O.2   167  GTP167     -0.2069
     28  N1        17.8060   32.6690   16.8190 N.2   167  GTP167     -0.2485
     29  C2        17.9470   33.1850   18.0810 C.1   167  GTP167      0.2531
     30  N2        19.1850   33.4010   18.4860 N.pl3 167  GTP167     -0.0226
     31  N3        16.9350   33.4800   18.8800 N.2   167  GTP167     -0.3074
     32  C4        15.7540   33.2740   18.2550 C.2   167  GTP167      0.2300
@<TRIPOS>BOND
     1    27    26    2
     2    26    28    2
     3    26    25    1
     4    24    25    2
     5    24    23    1
     6    28    29    2
     7    25    32    1
     8    23    22    1
     9    11    10    2
    10    29    30    1
    11    29    31    2
    12    32    22    1
    13    32    31    2
    14    22    21    1
    15    20    19    1
    16    10    13    1
    17    10     9    1
    18    10    12    1
    19     8     6    2
    20     7     6    1
    21    19    21    1
    22    19    17    1
    23    13    14    1
    24    21    16    1
    25     9     6    1
    26     6     5    1
    27     3     1    2
    28     4     1    1
    29    16    15    1
    30    17    15    1
    31    17    18    1
    32    14    15    1
    33     1     5    1
    34     1     2    1
