@<TRIPOS>MOLECULE
1pll_GDP_A_1.pdb
 28 30 0 0 0
SMALL
GASTEIGER

@<TRIPOS>ATOM
      1  PB         6.5140   30.9110   20.4550 P.3   167  GDP167      0.5373
      2  O1B        6.9160   29.4670   20.2820 O.3   167  GDP167     -0.1143
      3  O2B        5.2110   31.3320   19.8730 O.2   167  GDP167     -0.2221
      4  O3B        6.4630   30.9750   22.0240 O.3   167  GDP167     -0.1143
      5  O3A        7.7390   32.0310   19.9150 O.3   167  GDP167     -0.2261
      6  PA         8.5270   33.4930   20.4310 P.3   167  GDP167      0.2231
      7  O1A        8.7330   34.4240   19.2980 O.2   167  GDP167     -0.5169
      8  O2A        7.9120   34.0840   21.6300 O.3   167  GDP167     -0.4370
      9  O5'        9.9960   33.0220   20.8700 O.3   167  GDP167     -0.3111
     10  C5'       11.0260   33.7310   21.5990 C.3   167  GDP167      0.1813
     11  C4'       12.2410   34.2250   20.7660 C.3   167  GDP167      0.1799
     12  O4'       12.7610   33.6390   19.5360 O.3   167  GDP167     -0.3326
     13  C3'       12.5130   35.7140   20.6620 C.3   167  GDP167      0.2158
     14  O3'       13.4400   35.9730   21.7240 O.3   167  GDP167     -0.2175
     15  C2'       13.2700   35.9120   19.3170 C.3   167  GDP167      0.2310
     16  O2'       14.1090   37.1020   19.4290 O.3   167  GDP167     -0.2158
     17  C1'       13.8850   34.4730   19.1310 C.3   167  GDP167      0.2293
     18  N9        14.3990   34.0070   17.7880 N.pl3 167  GDP167     -0.2354
     19  C8        13.6930   33.6310   16.6450 C.3   167  GDP167      0.2246
     20  N7        14.3240   32.8750   15.7720 N.2   167  GDP167     -0.2322
     21  C5        15.5520   32.6910   16.3810 C.2   167  GDP167      0.2182
     22  C6        16.6600   31.9340   15.9620 C.1   167  GDP167      0.2372
     23  O6        16.7910   31.2870   14.9340 O.2   167  GDP167     -0.2069
     24  N1        17.7420   31.9860   16.8230 N.2   167  GDP167     -0.2485
     25  C2        17.7540   32.6560   18.0240 C.1   167  GDP167      0.2531
     26  N2        18.8930   32.5620   18.7350 N.pl3 167  GDP167     -0.0226
     27  N3        16.6860   33.3810   18.4390 N.2   167  GDP167     -0.3074
     28  C4        15.6210   33.3510   17.5890 C.2   167  GDP167      0.2300
@<TRIPOS>BOND
     1    23    22    2
     2    20    21    2
     3    20    19    1
     4    22    21    1
     5    22    24    2
     6    21    28    1
     7    19    18    1
     8    24    25    2
     9    28    18    1
    10    28    27    2
    11    18    17    1
    12    25    27    2
    13    25    26    1
    14    17    15    1
    15    17    12    1
    16     7     6    2
    17    15    16    1
    18    15    13    1
    19    12    11    1
    20     3     1    2
    21     5     6    1
    22     5     1    1
    23     2     1    1
    24     6     9    1
    25     6     8    1
    26     1     4    1
    27    13    11    1
    28    13    14    1
    29    11    10    1
    30     9    10    1
