@<TRIPOS>MOLECULE
1pm1_HEM_X_1.pdb
 43 50 0 0 0
SMALL
GASTEIGER

@<TRIPOS>ATOM
      1 FE         23.9820   78.1650   27.6140 Fe    180  HEM180      0.0000
      2  CHA       26.5070   75.9180   27.8980 C.2   180  HEM180      0.0000
      3  CHB       24.7470   79.5010   30.6250 C.2   180  HEM180      0.0000
      4  CHC       22.0520   80.7960   26.9310 C.2   180  HEM180      0.0000
      5  CHD       22.7120   76.4730   25.0180 C.2   180  HEM180      0.0000
      6  NA        25.3980   77.8210   28.9470 N.2   180  HEM180      0.0000
      7  C1A       26.3480   76.8420   28.9290 C.2   180  HEM180      0.0000
      8  C2A       27.1280   76.8540   30.1270 C.2   180  HEM180      0.0000
      9  C3A       26.6360   77.8370   30.8910 C.2   180  HEM180      0.0000
     10  C4A       25.5270   78.4440   30.1780 C.2   180  HEM180      0.0000
     11  CMA       27.0700   78.2200   32.2980 C.3   180  HEM180      0.0000
     12  CAA       28.3590   75.9560   30.4270 C.3   180  HEM180      0.0000
     13  CBA       29.6680   76.6340   29.8950 C.3   180  HEM180      0.0000
     14  CGA       30.8660   75.7120   30.0510 C.2   180  HEM180      0.0000
     15  O1A       31.2870   75.5620   31.1870 O.co2 180  HEM180      0.0000
     16  O2A       31.3530   75.0930   29.0730 O.co2 180  HEM180      0.0000
     17  NB        23.5050   79.8170   28.5840 N.ar  180  HEM180      0.0000
     18  C1B       23.9080   80.2020   29.8510 C.ar  180  HEM180      0.0000
     19  C2B       23.3130   81.4830   30.1870 C.ar  180  HEM180      0.0000
     20  C3B       22.6230   81.8770   29.1080 C.ar  180  HEM180      0.0000
     21  C4B       22.7120   80.8350   28.1110 C.ar  180  HEM180      0.0000
     22  CMB       23.4560   82.1280   31.5380 C.3   180  HEM180      0.0000
     23  CAB       21.8840   83.1660   28.8790 C.2   180  HEM180      0.0000
     24  CBB       22.3860   84.3460   29.2480 C.2   180  HEM180      0.0000
     25  NC        22.5710   78.5360   26.2760 N.2   180  HEM180      0.0000
     26  C1C       21.8960   79.7060   26.1060 C.2   180  HEM180      0.0000
     27  C2C       20.9740   79.5950   24.9840 C.2   180  HEM180      0.0000
     28  C3C       21.1470   78.3550   24.4830 C.2   180  HEM180      0.0000
     29  C4C       22.1530   77.7160   25.2690 C.2   180  HEM180      0.0000
     30  CMC       20.0370   80.6870   24.5370 C.3   180  HEM180      0.0000
     31  CAC       20.4150   77.6710   23.3370 C.2   180  HEM180      0.0000
     32  CBC       19.8060   78.2910   22.3420 C.2   180  HEM180      0.0000
     33  ND        24.4930   76.5060   26.6580 N.ar  180  HEM180      0.0000
     34  C1D       23.8220   75.9460   25.5850 C.ar  180  HEM180      0.0000
     35  C2D       24.5190   74.8080   25.1120 C.ar  180  HEM180      0.0000
     36  C3D       25.6180   74.6550   25.9720 C.ar  180  HEM180      0.0000
     37  C4D       25.5710   75.7300   26.8990 C.ar  180  HEM180      0.0000
     38  CMD       24.0990   73.9210   23.9830 C.3   180  HEM180      0.0000
     39  CAD       26.7300   73.6320   25.8050 C.3   180  HEM180      0.0000
     40  CBD       27.8540   74.1370   24.9210 C.3   180  HEM180      0.0000
     41  CGD       29.0440   73.2350   24.7510 C.2   180  HEM180      0.0000
     42  O1D       29.3480   72.4810   25.6680 O.co2 180  HEM180      0.0000
     43  O2D       29.6410   73.2740   23.6540 O.co2 180  HEM180      0.0000
@<TRIPOS>BOND
     1    32    31    2
     2    31    28    1
     3    43    41   ar
     4    38    35    1
     5    28    27    2
     6    28    29    1
     7    30    27    1
     8    41    40    1
     9    41    42   ar
    10    40    39    1
    11    27    26    1
    12     5    29    1
    13     5    34    2
    14    35    34   ar
    15    35    36   ar
    16    29    25    2
    17    34    33   ar
    18    39    36    1
    19    36    37   ar
    20    26    25    1
    21    26     4    2
    22    25     1    1
    23    33    37   ar
    24    33     1    1
    25    37     2    2
    26     4    21    1
    27     1    17    1
    28     1     6    1
    29     2     7    1
    30    21    17   ar
    31    21    20   ar
    32    17    18   ar
    33    23    20    1
    34    23    24    2
    35     7     6    2
    36     7     8    1
    37     6    10    1
    38    16    14   ar
    39    20    19   ar
    40    18    19   ar
    41    18     3    1
    42    13    14    1
    43    13    12    1
    44    14    15   ar
    45     8    12    1
    46     8     9    2
    47    10     3    2
    48    10     9    1
    49    19    22    1
    50     9    11    1
