@<TRIPOS>MOLECULE
1pmb_HEM_A_1.pdb
 43 50 0 0 0
SMALL
GASTEIGER

@<TRIPOS>ATOM
      1 FE         43.8700  -16.5870   50.5120 Fe    154  HEM154      0.0000
      2  CHA       42.4560  -19.1010   52.1210 C.2   154  HEM154      0.0000
      3  CHB       45.4080  -18.8200   48.2770 C.2   154  HEM154      0.0000
      4  CHC       45.3470  -13.9940   48.7700 C.2   154  HEM154      0.0000
      5  CHD       42.5790  -14.3220   52.7320 C.2   154  HEM154      0.0000
      6  NA        43.9280  -18.5680   50.2630 N.ar  154  HEM154      0.0000
      7  C1A       43.2470  -19.4980   51.0430 C.ar  154  HEM154      0.0000
      8  C2A       43.5240  -20.8360   50.5530 C.ar  154  HEM154      0.0000
      9  C3A       44.3560  -20.7420   49.4910 C.ar  154  HEM154      0.0000
     10  C4A       44.6130  -19.3300   49.2850 C.ar  154  HEM154      0.0000
     11  CMA       44.9130  -21.9170   48.6830 C.3   154  HEM154      0.0000
     12  CAA       42.8940  -22.1490   51.1170 C.3   154  HEM154      0.0000
     13  CBA       41.7500  -22.6700   50.2300 C.3   154  HEM154      0.0000
     14  CGA       40.5640  -21.8490   49.7660 C.2   154  HEM154      0.0000
     15  O1A       39.8440  -21.3950   50.7240 O.co2 154  HEM154      0.0000
     16  O2A       40.2760  -21.6650   48.5180 O.co2 154  HEM154      0.0000
     17  NB        45.0760  -16.4290   48.8260 N.2   154  HEM154      0.0000
     18  C1B       45.6070  -17.4450   48.0620 C.2   154  HEM154      0.0000
     19  C2B       46.4420  -16.9170   46.9980 C.2   154  HEM154      0.0000
     20  C3B       46.4090  -15.5960   47.1370 C.2   154  HEM154      0.0000
     21  C4B       45.5580  -15.2760   48.2620 C.2   154  HEM154      0.0000
     22  CMB       47.1310  -17.8740   45.9680 C.3   154  HEM154      0.0000
     23  CAB       47.1030  -14.4560   46.3310 C.2   154  HEM154      0.0000
     24  CBB       48.1900  -14.6830   45.6070 C.2   154  HEM154      0.0000
     25  NC        44.0010  -14.5970   50.7010 N.ar  154  HEM154      0.0000
     26  C1C       44.6720  -13.6690   49.9060 C.ar  154  HEM154      0.0000
     27  C2C       44.4420  -12.3310   50.4170 C.ar  154  HEM154      0.0000
     28  C3C       43.6620  -12.4600   51.5250 C.ar  154  HEM154      0.0000
     29  C4C       43.3600  -13.8670   51.6930 C.ar  154  HEM154      0.0000
     30  CMC       45.0420  -11.0160   49.8500 C.3   154  HEM154      0.0000
     31  CAC       43.0660  -11.4830   52.5600 C.2   154  HEM154      0.0000
     32  CBC       43.7750  -10.6160   53.2680 C.2   154  HEM154      0.0000
     33  ND        42.7100  -16.6830   52.1260 N.2   154  HEM154      0.0000
     34  C1D       42.3390  -15.6610   52.9760 C.2   154  HEM154      0.0000
     35  C2D       41.6440  -16.2060   54.1240 C.2   154  HEM154      0.0000
     36  C3D       41.6160  -17.5190   53.9680 C.2   154  HEM154      0.0000
     37  C4D       42.2550  -17.8560   52.7190 C.2   154  HEM154      0.0000
     38  CMD       41.0740  -15.3080   55.2490 C.3   154  HEM154      0.0000
     39  CAD       41.0880  -18.6670   54.8690 C.3   154  HEM154      0.0000
     40  CBD       42.2420  -19.2900   55.6910 C.3   154  HEM154      0.0000
     41  CGD       41.7170  -19.9370   56.9550 C.2   154  HEM154      0.0000
     42  O1D       41.3960  -19.0570   57.8160 O.co2 154  HEM154      0.0000
     43  O2D       41.6700  -21.1930   56.9340 O.co2 154  HEM154      0.0000
@<TRIPOS>BOND
     1    24    23    2
     2    22    19    1
     3    23    20    1
     4    19    20    2
     5    19    18    1
     6    20    21    1
     7    18     3    1
     8    18    17    2
     9    21     4    2
    10    21    17    1
    11     3    10    2
    12    16    14   ar
    13    11     9    1
    14     4    26    1
    15    17     1    1
    16    10     9   ar
    17    10     6   ar
    18     9     8   ar
    19    14    13    1
    20    14    15   ar
    21    30    27    1
    22    26    27   ar
    23    26    25   ar
    24    13    12    1
    25     6     1    1
    26     6     7   ar
    27    27    28   ar
    28     1    25    1
    29     1    33    1
    30     8     7   ar
    31     8    12    1
    32    25    29   ar
    33     7     2    2
    34    28    29   ar
    35    28    31    1
    36    29     5    1
    37     2    37    1
    38    33    37    2
    39    33    34    1
    40    31    32    2
    41    37    36    1
    42     5    34    2
    43    34    35    1
    44    36    35    2
    45    36    39    1
    46    35    38    1
    47    39    40    1
    48    40    41    1
    49    43    41   ar
    50    41    42   ar
