@<TRIPOS>MOLECULE
1pme_SB2_A_1.pdb
 27 30 0 0 0
SMALL
GASTEIGER

@<TRIPOS>ATOM
      1  O2        -8.3020   18.2160   43.9820 O.2   1001  SB21001    -0.2514
      2  C1        -7.1180   16.0940   45.3480 C.3   1001  SB21001     0.1110
      3  S1        -8.2360   16.7430   44.1980 S.O   1001  SB21001     0.0658
      4  CA1      -10.5340   15.5730   41.1320 C.ar  1001  SB21001     0.0126
      5  CA2       -9.5200   16.1780   41.8690 C.ar  1001  SB21001     0.0094
      6  CA3       -9.3690   15.9000   43.2120 C.ar  1001  SB21001     0.0562
      7  CA4      -10.2160   14.9850   43.7800 C.ar  1001  SB21001     0.0094
      8  CA5      -11.2350   14.3990   43.0680 C.ar  1001  SB21001     0.0126
      9  CA6      -11.4170   14.6840   41.7310 C.ar  1001  SB21001     0.0856
     10  NB1      -18.2890   11.3480   41.2940 N.ar  1001  SB21001    -0.2423
     11  CB2      -17.2620   10.6060   40.8780 C.ar  1001  SB21001     0.0990
     12  CB3      -15.9960   11.0900   40.5670 C.ar  1001  SB21001     0.0233
     13  CB4      -15.7510   12.4420   40.6940 C.ar  1001  SB21001     0.0362
     14  CB5      -16.8120   13.2360   41.1220 C.ar  1001  SB21001     0.0233
     15  CB6      -18.0460   12.6460   41.4050 C.ar  1001  SB21001     0.0990
     16  NC1      -13.7810   13.9180   41.3640 N.2   1001  SB21001    -0.3372
     17  CC2      -12.5420   14.0610   40.9510 C.1   1001  SB21001     0.1379
     18  NC3      -12.3530   13.5720   39.7460 N.2   1001  SB21001    -0.3372
     19  CC4      -13.5270   12.7880   39.4470 C.2   1001  SB21001     0.1740
     20  CC5      -14.4120   13.0090   40.4400 C.2   1001  SB21001     0.1741
     21  CD1      -14.6220   11.8850   37.3820 C.ar  1001  SB21001     0.0050
     22  CD2      -14.6710   10.9760   36.3520 C.ar  1001  SB21001     0.0297
     23  CD3      -13.6740   10.0510   36.2350 C.ar  1001  SB21001     0.1401
     24  CD4      -12.6080   10.0390   37.1000 C.ar  1001  SB21001     0.0297
     25  CD5      -12.5730   10.9480   38.1180 C.ar  1001  SB21001     0.0050
     26  CD6      -13.5780   11.8760   38.2880 C.ar  1001  SB21001     0.0333
     27  FD3      -13.8960    9.0150   35.4600 F     1001  SB21001    -0.2042
@<TRIPOS>BOND
     1    27    23    1
     2    23    22   ar
     3    23    24   ar
     4    22    21   ar
     5    24    25   ar
     6    21    26   ar
     7    25    26   ar
     8    26    19    1
     9    19    18    2
    10    19    20    1
    11    18    17    2
    12    20    13    1
    13    20    16    2
    14    12    13   ar
    15    12    11   ar
    16    13    14   ar
    17    11    10   ar
    18    17    16    2
    19    17     9    1
    20    14    15   ar
    21     4     9   ar
    22     4     5   ar
    23    10    15   ar
    24     9     8   ar
    25     5     6   ar
    26     8     7   ar
    27     6     7   ar
    28     6     3    1
    29     1     3    2
    30     3     2    1
