@<TRIPOS>MOLECULE
1pmh_BMA_X_1.pdb
 11 11 0 0 0
SMALL
GASTEIGER

@<TRIPOS>ATOM
      1  C1        -2.0570   22.8250   24.0500 C.3   187  BMA187      0.1777
      2  C2        -2.7930   23.9860   23.4240 C.3   187  BMA187      0.2141
      3  C3        -1.9010   25.2160   23.5140 C.3   187  BMA187      0.2173
      4  C4        -1.3300   25.3680   24.8900 C.3   187  BMA187      0.2142
      5  C5        -0.6530   24.0900   25.4050 C.3   187  BMA187      0.1810
      6  C6        -0.1240   24.1640   26.8140 C.3   187  BMA187      0.2141
      7  O2        -3.9760   24.2350   24.1600 O.3   187  BMA187     -0.2176
      8  O3        -2.5580   26.3860   23.0380 O.3   187  BMA187     -0.2175
      9  O4        -0.3530   26.3740   24.7650 O.3   187  BMA187     -0.2176
     10  O5        -1.5920   23.0270   25.3480 O.3   187  BMA187     -0.3481
     11  O6        -1.1320   24.5730   27.7120 O.3   187  BMA187     -0.2176
@<TRIPOS>BOND
     1     8     3    1
     2     2     3    1
     3     2     1    1
     4     2     7    1
     5     3     4    1
     6     1    10    1
     7     9     4    1
     8     4     5    1
     9    10     5    1
    10     5     6    1
    11     6    11    1
