@<TRIPOS>MOLECULE
1pmm_PLP_A_1.pdb
 15 15 0 0 0
SMALL
GASTEIGER

@<TRIPOS>ATOM
      1  N1         2.7800   31.1680  -22.2350 N.ar  500  PLP500     -0.2452
      2  C2         4.0620   30.7370  -22.1730 C.ar  500  PLP500      0.0978
      3  C2A        5.1720   31.7300  -22.3390 C.3   500  PLP500      0.0555
      4  C3         4.2780   29.3570  -21.9440 C.ar  500  PLP500      0.2049
      5  O3         5.5140   28.8520  -21.8680 O.3   500  PLP500     -0.2857
      6  C4         3.1740   28.4820  -21.7880 C.ar  500  PLP500      0.0182
      7  C4A        3.4850   27.0030  -21.5240 C.3   500  PLP500      0.0342
      8  C5         1.8610   29.0120  -21.8680 C.ar  500  PLP500      0.0261
      9  C6         1.7040   30.3580  -22.0910 C.ar  500  PLP500      0.0965
     10  C5A        0.6120   28.1520  -21.7130 C.3   500  PLP500      0.1815
     11  O4P        0.4750   27.8520  -20.3160 O.3   500  PLP500     -0.2653
     12  P         -0.3450   26.5350  -19.8830 P.3   500  PLP500      0.5329
     13  O1P        0.0330   26.2780  -18.4520 O.3   500  PLP500     -0.1145
     14  O2P        0.1770   25.3680  -20.7770 O.2   500  PLP500     -0.2224
     15  O3P       -1.7870   26.8100  -20.2080 O.3   500  PLP500     -0.1145
@<TRIPOS>BOND
     1     3     2    1
     2     1     2   ar
     3     1     9   ar
     4     2     4   ar
     5     9     8   ar
     6     4     5    1
     7     4     6   ar
     8     8     6   ar
     9     8    10    1
    10     6     7    1
    11    10    11    1
    12    14    12    2
    13    11    12    1
    14    15    12    1
    15    12    13    1
