@<TRIPOS>MOLECULE
1pmn_984_A_1.pdb
 33 37 0 0 0
SMALL
GASTEIGER

@<TRIPOS>ATOM
      1  N1        22.9290   10.6810   31.0540 N.pl3 501  984501     -0.2768
      2  C2        23.0120   12.0320   30.9590 C.2   501  984501      0.1598
      3  N3        22.0990   12.6890   31.7610 N.2   501  984501     -0.3937
      4  C4        21.2860   11.7150   32.5060 C.2   501  984501      0.1350
      5  C5        21.8180   10.3910   32.0700 C.3   501  984501      0.1809
      6  C6        23.8100    9.7730   30.2840 C.3   501  984501      0.0935
      7  C7        25.0520    9.3460   31.0580 C.3   501  984501      0.0215
      8  C10       26.2730    9.1030   30.1750 C.3   501  984501      0.0018
      9  C16       23.7550   12.8320   30.2590 C.3   501  984501      0.0697
     10  C17       22.9930   13.7550   29.2460 C.3   501  984501      0.0257
     11  C18       23.9490   14.6900   28.4210 C.3   501  984501      0.0726
     12  N19       24.8670   15.4780   29.3040 N.3   501  984501     -0.2715
     13  C20       25.6460   14.6180   30.2170 C.3   501  984501      0.0726
     14  C21       24.7420   13.6940   31.1040 C.3   501  984501      0.0257
     15  C31       25.7710   16.3300   28.4900 C.3   501  984501      0.0896
     16  C35       20.2330   12.1130   33.4840 C.ar  501  984501      0.0284
     17  C36       21.4780    8.9140   32.2260 C.2   501  984501      0.1481
     18  C37       20.1490   11.4870   34.7500 C.ar  501  984501      0.0145
     19  C38       19.1640   11.8230   35.6780 C.ar  501  984501      0.0683
     20  C39       18.1870   12.8000   35.3520 C.ar  501  984501      0.0682
     21  C40       18.2510   13.4610   34.0840 C.ar  501  984501      0.0123
     22  C41       19.2830   13.1020   33.1400 C.ar  501  984501      0.0032
     23 CL45       19.2050   10.9730   37.1650 Cl    501  984501     -0.0814
     24 CL46       16.9170   13.2460   36.4370 Cl    501  984501     -0.0814
     25  C47       20.2400    8.5980   32.8480 C.2   501  984501      0.0521
     26  C48       19.9620    7.2220   33.0170 C.2   501  984501      0.1141
     27  N49       20.8310    6.2650   32.6340 N.2   501  984501     -0.1686
     28  C50       21.9780    6.6790   32.0780 C.1   501  984501      0.1649
     29  N51       22.3180    7.9500   31.8670 N.2   501  984501     -0.3387
     30  N54       22.9070    5.7760   31.6830 N.pl3 501  984501     -0.1639
     31  C55       23.0400    5.3650   30.3010 C.3   501  984501      0.1048
     32  C56       24.3720    4.7200   30.6710 C.3   501  984501      0.0242
     33  C57       24.2570    5.7910   29.6330 C.3   501  984501      0.0242
@<TRIPOS>BOND
     1    11    10    1
     2    11    12    1
     3    15    12    1
     4    10     9    1
     5    12    13    1
     6    33    31    1
     7    33    32    1
     8     8     7    1
     9    13    14    1
    10     9     2    1
    11     9    14    1
    12     6     1    1
    13     6     7    1
    14    31    32    1
    15    31    30    1
    16     2     1    1
    17     2     3    2
    18     1     5    1
    19    30    28    1
    20     3     4    2
    21    29    28    2
    22    29    17    2
    23     5    17    1
    24     5     4    1
    25    28    27    2
    26    17    25    1
    27     4    16    1
    28    27    26    1
    29    25    26    2
    30    22    16   ar
    31    22    21   ar
    32    16    18   ar
    33    21    20   ar
    34    18    19   ar
    35    20    19   ar
    36    20    24    1
    37    19    23    1
