@<TRIPOS>MOLECULE
1pmo_PLR_A_1.pdb
 15 15 0 0 0
SMALL
GASTEIGER

@<TRIPOS>ATOM
      1  N1        56.0240   72.8180    6.2750 N.ar  1500  PLR1500    -0.2452
      2  C2        57.2770   72.7020    6.7670 C.ar  1500  PLR1500     0.0978
      3  C2A       57.6640   73.5130    7.9690 C.3   1500  PLR1500     0.0555
      4  C3        58.1590   71.8190    6.1080 C.ar  1500  PLR1500     0.2049
      5  O3        59.4190   71.6380    6.5440 O.3   1500  PLR1500    -0.2857
      6  C4        57.7190   71.0990    4.9690 C.ar  1500  PLR1500     0.0182
      7  C4A       58.7320   70.1790    4.2890 C.3   1500  PLR1500     0.0342
      8  C5        56.3890   71.2740    4.5170 C.ar  1500  PLR1500     0.0261
      9  C6        55.5720   72.1420    5.1940 C.ar  1500  PLR1500     0.0965
     10  C5A       55.8220   70.5330    3.3080 C.3   1500  PLR1500     0.1815
     11  O4P       55.5630   69.1740    3.7030 O.3   1500  PLR1500    -0.2653
     12  P         55.2400   68.0940    2.5590 P.3   1500  PLR1500     0.5329
     13  O1P       55.0130   66.7950    3.2750 O.3   1500  PLR1500    -0.1145
     14  O2P       56.5210   67.9780    1.6830 O.2   1500  PLR1500    -0.2224
     15  O3P       54.1260   68.6640    1.7310 O.3   1500  PLR1500    -0.1145
@<TRIPOS>BOND
     1    14    12    2
     2    15    12    1
     3    12    13    1
     4    12    11    1
     5    10    11    1
     6    10     8    1
     7     7     6    1
     8     8     6   ar
     9     8     9   ar
    10     6     4   ar
    11     9     1   ar
    12     4     5    1
    13     4     2   ar
    14     1     2   ar
    15     2     3    1
