@<TRIPOS>MOLECULE
1pmp_OLA_A_1.pdb
 20 19 0 0 0
SMALL
GASTEIGER

@<TRIPOS>ATOM
      1  C1        46.9530   63.7600   34.4270 C.2   200  OLA200      0.3649
      2  O1        46.4390   63.2470   35.4930 O.co2 200  OLA200     -0.2457
      3  O2        46.5030   63.4740   33.2540 O.co2 200  OLA200     -0.2457
      4  C2        48.1330   64.7210   34.7710 C.3   200  OLA200      0.1141
      5  C3        48.3550   64.9090   36.2810 C.3   200  OLA200      0.0118
      6  C4        49.4070   66.0420   36.4910 C.3   200  OLA200      0.0006
      7  C5        48.8560   67.0530   37.5200 C.3   200  OLA200      0.0000
      8  C6        49.7160   68.3430   37.5430 C.3   200  OLA200      0.0000
      9  C7        49.7960   68.8860   38.9940 C.3   200  OLA200      0.0000
     10  C8        48.5000   69.6550   39.3500 C.3   200  OLA200      0.0000
     11  C9        48.7210   70.4610   40.6500 C.3   200  OLA200      0.0000
     12  C10       47.4260   71.1920   41.1000 C.3   200  OLA200      0.0000
     13  C11       46.2570   70.9290   40.1410 C.3   200  OLA200      0.0000
     14  C12       45.1600   71.9770   40.4210 C.3   200  OLA200      0.0000
     15  C13       43.8330   71.2670   40.7070 C.3   200  OLA200      0.0000
     16  C14       43.2380   70.7910   39.3810 C.3   200  OLA200      0.0000
     17  C15       43.8550   69.4350   39.0210 C.3   200  OLA200      0.0000
     18  C16       43.7240   69.1930   37.5110 C.3   200  OLA200      0.0000
     19  C17       45.0380   68.6010   36.9780 C.3   200  OLA200      0.0000
     20  C18       45.1110   67.1130   37.3410 C.3   200  OLA200      0.0000
@<TRIPOS>BOND
     1     3     1   ar
     2     1     4    1
     3     1     2   ar
     4     4     5    1
     5     5     6    1
     6     6     7    1
     7    19    20    1
     8    19    18    1
     9    18    17    1
    10     7     8    1
    11     8     9    1
    12     9    10    1
    13    17    16    1
    14    10    11    1
    15    16    15    1
    16    13    14    1
    17    13    12    1
    18    14    15    1
    19    11    12    1
