@<TRIPOS>MOLECULE
1pmq_ANP_A_1.pdb
 31 33 0 0 0
SMALL
GASTEIGER

@<TRIPOS>ATOM
      1  PG        23.3400   19.5290   28.2310 P.3   502  ANP502      0.4884
      2  O1G       23.6520   18.3680   29.2030 O.3   502  ANP502     -0.1240
      3  O2G       23.3940   20.8310   29.0620 O.3   502  ANP502     -0.1240
      4  O3G       21.9420   19.4560   27.4840 O.2   502  ANP502     -0.2331
      5  PB        25.8600   18.7290   27.0090 P.3   502  ANP502      0.4669
      6  O1B       27.0530   19.4610   27.6310 O.3   502  ANP502     -0.1253
      7  O2B       25.6660   17.2930   27.5130 O.2   502  ANP502     -0.2351
      8  N3B       24.5480   19.5490   27.2260 N.3   502  ANP502     -0.0163
      9  PA        26.0930   17.5090   24.5270 P.3   502  ANP502      0.2220
     10  O1A       25.7630   16.2150   25.1930 O.3   502  ANP502     -0.4370
     11  O2A       24.9650   17.5250   23.5610 O.2   502  ANP502     -0.5170
     12  O3A       26.1160   18.7960   25.4660 O.3   502  ANP502     -0.2360
     13  O5'       27.4650   17.4210   23.8500 O.3   502  ANP502     -0.3111
     14  C5'       28.2190   18.2610   22.6800 C.3   502  ANP502      0.1813
     15  C4'       29.4770   17.4120   22.4260 C.3   502  ANP502      0.1821
     16  O4'       29.1510   16.0540   22.0060 O.3   502  ANP502     -0.3135
     17  C3'       30.3370   18.0470   21.3020 C.3   502  ANP502      0.2184
     18  O3'       31.7470   17.8590   21.5410 O.3   502  ANP502     -0.2174
     19  C2'       29.8710   17.3070   20.0330 C.3   502  ANP502      0.2570
     20  O2'       30.9380   17.1790   19.0470 O.3   502  ANP502     -0.2130
     21  C1'       29.4160   15.9420   20.6080 C.3   502  ANP502      0.3186
     22  N9        28.3060   15.3340   19.8960 N.pl3 502  ANP502     -0.1439
     23  C8        26.9910   15.7160   20.0750 C.3   502  ANP502      0.3377
     24  N7        26.2000   14.9400   19.3040 N.2   502  ANP502     -0.2095
     25  C5        27.0000   14.0490   18.6090 C.2   502  ANP502      0.2526
     26  C6        26.8380   13.0030   17.6800 C.2   502  ANP502      0.4393
     27  N6        25.5790   12.6510   17.2270 N.pl3 502  ANP502      0.2180
     28  N1        27.9250   12.3210   17.2010 N.2   502  ANP502      0.0021
     29  C2        29.1860   12.5840   17.5780 C.3   502  ANP502      0.5254
     30  N3        29.5070   13.5450   18.4600 N.2   502  ANP502     -0.0055
     31  C4        28.4080   14.2840   18.9840 C.2   502  ANP502      0.3518
@<TRIPOS>BOND
     1    28    29    1
     2    28    26    2
     3    27    26    1
     4    29    30    1
     5    26    25    1
     6    30    31    2
     7    25    31    1
     8    25    24    2
     9    31    22    1
    10    20    19    1
    11    24    23    1
    12    22    23    1
    13    22    21    1
    14    19    21    1
    15    19    17    1
    16    21    16    1
    17    17    18    1
    18    17    15    1
    19    16    15    1
    20    15    14    1
    21    14    13    1
    22    11     9    2
    23    13     9    1
    24     9    10    1
    25     9    12    1
    26    12     5    1
    27     5     8    1
    28     5     7    2
    29     5     6    1
    30     8     1    1
    31     4     1    2
    32     1     3    1
    33     1     2    1
