@<TRIPOS>MOLECULE
1pmq_880_A_1.pdb
 35 39 0 0 0
SMALL
GASTEIGER

@<TRIPOS>ATOM
      1  N1        22.3400   10.9660   30.8020 N.pl3 501  880501     -0.2768
      2  C2        22.3960   12.3250   30.6660 C.2   501  880501      0.1598
      3  N3        21.4840   12.9700   31.4520 N.2   501  880501     -0.3937
      4  C4        20.6970   12.0150   32.1950 C.2   501  880501      0.1350
      5  C5        21.2380   10.6780   31.8090 C.3   501  880501      0.1809
      6  C6        23.2200   10.0300   30.0330 C.3   501  880501      0.0935
      7  C7        24.5600    9.6220   30.6780 C.3   501  880501      0.0215
      8  C10       24.8020   10.2390   32.0430 C.3   501  880501      0.0018
      9  C16       23.1420   13.1220   29.9410 C.3   501  880501      0.0698
     10  C17       22.3790   13.8830   28.7930 C.3   501  880501      0.0272
     11  C18       23.3330   14.8180   27.9400 C.3   501  880501      0.0892
     12  N19       24.0890   15.7650   28.8000 N.3   501  880501     -0.2180
     13  C20       24.8720   15.1210   29.8960 C.3   501  880501      0.0892
     14  C21       23.9760   14.1640   30.8050 C.3   501  880501      0.0272
     15  C35       19.6320   12.4140   33.1430 C.ar  501  880501      0.0284
     16  C36       20.9570    9.1720   32.0770 C.2   501  880501      0.1481
     17  C37       19.6270   11.8130   34.4300 C.ar  501  880501      0.0145
     18  C38       18.6450   12.1390   35.3720 C.ar  501  880501      0.0683
     19  C39       17.6130   13.0570   35.0810 C.ar  501  880501      0.0682
     20  C40       17.5740   13.7140   33.7790 C.ar  501  880501      0.0123
     21  C41       18.6100   13.3700   32.8010 C.ar  501  880501      0.0032
     22 CL45       18.7700   11.3740   36.8540 Cl    501  880501     -0.0814
     23 CL46       16.4250   13.4170   36.2560 Cl    501  880501     -0.0814
     24  C47       19.6650    8.8550   32.5960 C.2   501  880501      0.0521
     25  C48       19.3860    7.4770   32.7790 C.2   501  880501      0.1141
     26  N49       20.2980    6.4960   32.5120 N.2   501  880501     -0.1686
     27  C50       21.4760    6.8920   32.0000 C.1   501  880501      0.1649
     28  N51       21.8010    8.1660   31.6980 N.2   501  880501     -0.3387
     29  N54       22.4500    5.9700   31.7930 N.pl3 501  880501     -0.1639
     30  C55       23.1200    5.5740   30.5870 C.3   501  880501      0.1047
     31  C56       23.2620    6.5120   29.3610 C.3   501  880501      0.0225
     32  C57       24.4500    6.1480   28.4190 C.3   501  880501      0.0018
     33  C58       25.7050    5.6830   29.0930 C.3   501  880501      0.0001
     34  C59       25.5020    4.6460   30.1380 C.3   501  880501      0.0018
     35  C60       24.4910    5.1190   31.2440 C.3   501  880501      0.0225
@<TRIPOS>BOND
     1    11    10    1
     2    11    12    1
     3    32    33    1
     4    32    31    1
     5    10     9    1
     6    12    13    1
     7    33    34    1
     8    31    30    1
     9    13    14    1
    10     9     2    1
    11     9    14    1
    12     6     7    1
    13     6     1    1
    14    34    35    1
    15    30    35    1
    16    30    29    1
    17     2     1    1
    18     2     3    2
    19     7     8    1
    20     1     5    1
    21     3     4    2
    22    28    27    2
    23    28    16    2
    24    29    27    1
    25     5    16    1
    26     5     4    1
    27    27    26    2
    28    16    24    1
    29     4    15    1
    30    26    25    1
    31    24    25    2
    32    21    15   ar
    33    21    20   ar
    34    15    17   ar
    35    20    19   ar
    36    17    18   ar
    37    19    18   ar
    38    19    23    1
    39    18    22    1
