@<TRIPOS>MOLECULE
1pmt_GSH_A_1.pdb
 20 19 0 0 0
SMALL
GASTEIGER

@<TRIPOS>ATOM
      1  N1        21.8970   -3.7120   27.2750 N.3   204  GSH204     -0.1208
      2  CA1       22.0310   -3.6740   25.8000 C.3   204  GSH204      0.1948
      3  C1        23.0760   -2.6350   25.4110 C.2   204  GSH204      0.3819
      4  O11       23.6770   -2.7770   24.3270 O.co2 204  GSH204     -0.2441
      5  O12       23.2870   -1.6930   26.2020 O.co2 204  GSH204     -0.2441
      6  CB1       20.6810   -3.3330   25.1680 C.3   204  GSH204      0.0402
      7  CG1       20.7440   -3.1370   23.6770 C.3   204  GSH204      0.0889
      8  CD1       19.3840   -2.9380   23.0560 C.2   204  GSH204      0.2418
      9  OE1       18.3990   -2.7350   23.7580 O.2   204  GSH204     -0.2733
     10  N2        19.3300   -2.9910   21.7310 N.am  204  GSH204     -0.1968
     11  CA2       18.0770   -2.8200   21.0030 C.3   204  GSH204      0.1843
     12  C2        17.7280   -4.1270   20.3340 C.2   204  GSH204      0.2627
     13  O2        18.4910   -4.6450   19.5250 O.2   204  GSH204     -0.2714
     14  CB2       18.2310   -1.7270   19.9580 C.3   204  GSH204      0.0997
     15  SG2       18.7140   -0.1410   20.6910 S.3   204  GSH204     -0.0797
     16  N3        16.5740   -4.6730   20.6830 N.am  204  GSH204     -0.1917
     17  CA3       16.1890   -5.9400   20.1060 C.3   204  GSH204      0.2285
     18  C3        14.7520   -5.9410   19.6710 C.2   204  GSH204      0.3865
     19  O31       14.2580   -7.0180   19.2770 O.co2 204  GSH204     -0.2437
     20  O32       14.1350   -4.8600   19.7260 O.co2 204  GSH204     -0.2437
@<TRIPOS>BOND
     1    19    18   ar
     2    13    12    2
     3    18    20   ar
     4    18    17    1
     5    14    15    1
     6    14    11    1
     7    17    16    1
     8    12    16   am
     9    12    11    1
    10    11    10    1
    11    10     8   am
    12     8     7    1
    13     8     9    2
    14     7     6    1
    15     4     3   ar
    16     6     2    1
    17     3     2    1
    18     3     5   ar
    19     2     1    1
