@<TRIPOS>MOLECULE
1pmu_9HP_A_1.pdb
 21 24 0 0 0
SMALL
GASTEIGER

@<TRIPOS>ATOM
      1  C1        22.3110   23.4790   47.0970 C.ar  501  9HP501      0.0206
      2  C2        23.5300   23.4880   47.9300 C.ar  501  9HP501      0.0031
      3  C3        23.5400   22.8160   49.1950 C.ar  501  9HP501      0.0207
      4  C4        22.3640   22.1630   49.6050 C.ar  501  9HP501      0.0989
      5  N5        21.2220   22.1490   48.8470 N.ar  501  9HP501     -0.2423
      6  C6        21.1770   22.7770   47.6340 C.ar  501  9HP501      0.0989
      7  C10       22.3530   24.1910   45.8060 C.ar  501  9HP501      0.0192
      8  C11       23.6340   24.8330   45.4700 C.ar  501  9HP501      0.0814
      9  C12       24.7770   24.8190   46.3080 C.ar  501  9HP501      0.0191
     10  C13       24.7410   24.1450   47.5380 C.ar  501  9HP501      0.0016
     11  C16       21.2800   24.2860   44.8610 C.ar  501  9HP501      0.0031
     12  C17       21.4180   24.9880   43.6460 C.ar  501  9HP501      0.0192
     13  C18       22.6670   25.5900   43.3760 C.ar  501  9HP501      0.0988
     14  N19       23.7040   25.5090   44.2620 N.ar  501  9HP501     -0.2438
     15  C22       18.4540   24.1920   41.3030 C.ar  501  9HP501      0.0420
     16  C23       19.5380   24.0020   42.2010 C.ar  501  9HP501      0.0033
     17  C24       20.2770   25.1130   42.6790 C.ar  501  9HP501      0.0017
     18  C25       19.9130   26.4000   42.2440 C.ar  501  9HP501      0.0033
     19  C26       18.8510   26.6010   41.3630 C.ar  501  9HP501      0.0420
     20  C27       18.1130   25.5110   40.8900 C.ar  501  9HP501      0.1957
     21  O32       17.0730   25.7590   40.0360 O.3   501  9HP501     -0.2866
@<TRIPOS>BOND
     1    21    20    1
     2    20    15   ar
     3    20    19   ar
     4    15    16   ar
     5    19    18   ar
     6    16    17   ar
     7    18    17   ar
     8    17    12    1
     9    13    12   ar
    10    13    14   ar
    11    12    11   ar
    12    14     8   ar
    13    11     7   ar
    14     8     7   ar
    15     8     9   ar
    16     7     1   ar
    17     9    10   ar
    18     1     6   ar
    19     1     2   ar
    20    10     2   ar
    21     6     5   ar
    22     2     3   ar
    23     5     4   ar
    24     3     4   ar
