@<TRIPOS>MOLECULE
1pmv_537_A_1.pdb
 17 20 0 0 0
SMALL
GASTEIGER

@<TRIPOS>ATOM
      1  C1        22.0160   31.2900   21.1280 C.ar  501  537501      0.0001
      2  C2        20.9120   31.0090   20.2710 C.ar  501  537501      0.0017
      3  C3        20.5290   29.6810   20.0120 C.ar  501  537501      0.0225
      4  C4        21.2620   28.5800   20.6290 C.ar  501  537501      0.0401
      5  C5        22.3660   28.8830   21.4850 C.ar  501  537501      0.0032
      6  C6        22.7460   30.2330   21.7350 C.ar  501  537501      0.0001
      7  C11       19.0570   28.0060   18.9170 C.2   501  537501      0.0382
      8  C12       17.9800   27.8110   18.0860 C.2   501  537501      0.1038
      9  C13       17.4970   26.5440   17.7530 C.2   501  537501      0.0167
     10  C14       18.1490   25.3890   18.3050 C.2   501  537501     -0.0197
     11  C15       19.2700   25.5310   19.1790 C.3   501  537501      0.0557
     12  C16       19.7410   26.8480   19.4980 C.2   501  537501      0.0241
     13  C20       20.8910   27.1380   20.3990 C.2   501  537501      0.1921
     14  C21       19.3570   29.3720   19.1110 C.2   501  537501      0.1042
     15  O22       21.5220   26.2160   20.9300 O.2   501  537501     -0.2869
     16  N23       18.4490   30.0980   18.3710 N.2   501  537501     -0.1480
     17  N24       17.6370   29.1070   17.7700 N.2   501  537501     -0.1480
@<TRIPOS>BOND
     1     9     8    1
     2     9    10    2
     3    17     8    2
     4    17    16    1
     5     8     7    1
     6    10    11    1
     7    16    14    2
     8     7    14    1
     9     7    12    2
    10    14     3    1
    11    11    12    1
    12    12    13    1
    13     3     2   ar
    14     3     4   ar
    15     2     1   ar
    16    13     4    1
    17    13    15    2
    18     4     5   ar
    19     1     6   ar
    20     5     6   ar
