@<TRIPOS>MOLECULE
1pn3_BGC_C_1.pdb
 11 11 0 0 0
SMALL
GASTEIGER

@<TRIPOS>ATOM
      1  C2        50.3550   92.9800   34.6830 C.3     8  BGC8        0.2141
      2  C3        51.6670   92.7330   35.4090 C.3     8  BGC8        0.2173
      3  C4        52.2190   91.3630   34.9190 C.3     8  BGC8        0.2142
      4  C5        52.2880   91.3790   33.3850 C.3     8  BGC8        0.1810
      5  C6        52.7900   90.0680   32.6490 C.3     8  BGC8        0.2141
      6  C1        50.4830   92.8940   33.2010 C.3     8  BGC8        0.1777
      7  O2        49.8790   94.2780   35.0830 O.3     8  BGC8       -0.2176
      8  O3        51.5390   92.7520   36.8190 O.3     8  BGC8       -0.2175
      9  O4        53.5230   91.1100   35.4440 O.3     8  BGC8       -0.2176
     10  O5        50.9870   91.6170   32.8560 O.3     8  BGC8       -0.3481
     11  O6        52.9370   88.8050   33.1610 O.3     8  BGC8       -0.2176
@<TRIPOS>BOND
     1     5    11    1
     2     5     4    1
     3    10     6    1
     4    10     4    1
     5     6     1    1
     6     4     3    1
     7     1     7    1
     8     1     2    1
     9     3     2    1
    10     3     9    1
    11     2     8    1
