@<TRIPOS>MOLECULE
1pn3_TYD_A_1.pdb
 25 26 0 0 0
SMALL
GASTEIGER

@<TRIPOS>ATOM
      1  PA        42.1650   79.5560   27.8410 P.3   406  TYD406      0.2231
      2  O1A       41.3120   80.3810   28.7260 O.3   406  TYD406     -0.4370
      3  O2A       42.9760   78.4760   28.4480 O.2   406  TYD406     -0.5169
      4  O3A       43.2010   80.6470   27.2000 O.3   406  TYD406     -0.2261
      5  PB        44.5150   80.6270   26.2310 P.3   406  TYD406      0.5373
      6  O1B       44.1220   81.2140   24.8880 O.2   406  TYD406     -0.2221
      7  O2B       44.9360   79.1720   26.1420 O.3   406  TYD406     -0.1143
      8  O3B       45.5330   81.5030   26.9460 O.3   406  TYD406     -0.1143
      9  O5'       41.2180   78.8870   26.7310 O.3   406  TYD406     -0.3111
     10  C5'       40.1980   79.6470   26.0820 C.3   406  TYD406      0.1812
     11  C4'       39.0470   78.7640   25.6170 C.3   406  TYD406      0.1773
     12  O4'       39.3560   77.9730   24.4520 O.3   406  TYD406     -0.3339
     13  C3'       38.5490   77.7040   26.5840 C.3   406  TYD406      0.1857
     14  O3'       37.6450   78.2690   27.5250 O.3   406  TYD406     -0.2203
     15  C2'       37.8010   76.7090   25.6890 C.3   406  TYD406      0.0874
     16  C1'       38.3020   77.0500   24.2820 C.3   406  TYD406      0.2090
     17  N1        38.7610   75.8990   23.4830 N.am  406  TYD406     -0.1794
     18  C2        37.8010   75.2040   22.7810 C.1   406  TYD406      0.2844
     19  O2        36.6090   75.3840   22.9300 O.2   406  TYD406     -0.1918
     20  N3        38.2910   74.2840   21.8940 N.2   406  TYD406     -0.2455
     21  C4        39.6140   73.9970   21.6350 C.1   406  TYD406      0.2134
     22  O4        39.9000   73.1490   20.7920 O.2   406  TYD406     -0.2088
     23  C5        40.5720   74.7580   22.4080 C.2   406  TYD406      0.0891
     24  C5M       42.0320   74.5120   22.2030 C.3   406  TYD406      0.0462
     25  C6        40.1010   75.6570   23.2830 C.2   406  TYD406      0.0877
@<TRIPOS>BOND
     1    22    21    2
     2    21    20    2
     3    21    23    1
     4    20    18    2
     5    24    23    1
     6    23    25    2
     7    18    19    2
     8    18    17   am
     9    25    17    1
    10    17    16    1
    11    16    12    1
    12    16    15    1
    13    12    11    1
    14     6     5    2
    15    11    10    1
    16    11    13    1
    17    15    13    1
    18    10     9    1
    19     7     5    1
    20     5     8    1
    21     5     4    1
    22    13    14    1
    23     9     1    1
    24     4     1    1
    25     1     3    2
    26     1     2    1
