@<TRIPOS>MOLECULE
1pn9_GTX_A_1.pdb
 26 25 0 0 0
SMALL
GASTEIGER

@<TRIPOS>ATOM
      1  N1        47.9140   48.8460   15.8130 N.3   301  GTX301     -0.1208
      2  CA1       48.4510   47.7430   14.9760 C.3   301  GTX301      0.1948
      3  C1        48.1910   48.0010   13.4920 C.2   301  GTX301      0.3819
      4  O11       48.8940   47.3870   12.6560 O.co2 301  GTX301     -0.2441
      5  O12       47.2970   48.8170   13.1850 O.co2 301  GTX301     -0.2441
      6  CB1       47.8170   46.4130   15.3960 C.3   301  GTX301      0.0402
      7  CG1       48.3280   45.2160   14.6180 C.3   301  GTX301      0.0889
      8  CD1       47.9290   43.8980   15.2470 C.2   301  GTX301      0.2418
      9  OE1       47.1120   43.8560   16.1650 O.2   301  GTX301     -0.2733
     10  N2        48.5060   42.8130   14.7450 N.am  301  GTX301     -0.1969
     11  CA2       48.2230   41.4920   15.2680 C.3   301  GTX301      0.1834
     12  C2        49.5230   40.7660   15.5800 C.2   301  GTX301      0.2626
     13  O2        50.4570   40.7590   14.7650 O.2   301  GTX301     -0.2714
     14  CB2       47.4060   40.6920   14.2550 C.3   301  GTX301      0.0886
     15  SG2       45.8440   41.4760   13.8400 S.3   301  GTX301     -0.1379
     16  C1S       44.7330   40.6150   14.9560 C.3   301  GTX301      0.0576
     17  C2S       43.8410   39.5990   14.2660 C.3   301  GTX301      0.0116
     18  C3S       44.6120   38.4010   13.7450 C.3   301  GTX301      0.0009
     19  C4S       43.6440   37.3530   13.2110 C.3   301  GTX301      0.0000
     20  C5S       44.3620   36.1140   12.6950 C.3   301  GTX301      0.0000
     21  C6S       44.9860   35.3290   13.8270 C.3   301  GTX301      0.0000
     22  N3        49.5610   40.1450   16.7550 N.am  301  GTX301     -0.1917
     23  CA3       50.7000   39.3880   17.2720 C.3   301  GTX301      0.2285
     24  C3        51.6710   40.2310   18.0910 C.2   301  GTX301      0.3865
     25  O31       52.5800   39.6440   18.7240 O.co2 301  GTX301     -0.2437
     26  O32       51.5360   41.4700   18.1050 O.co2 301  GTX301     -0.2437
@<TRIPOS>BOND
     1     4     3   ar
     2    20    19    1
     3    20    21    1
     4     5     3   ar
     5    19    18    1
     6     3     2    1
     7    18    17    1
     8    15    14    1
     9    15    16    1
    10    14    11    1
    11    17    16    1
    12     7     8    1
    13     7     6    1
    14    10     8   am
    15    10    11    1
    16    13    12    2
    17     2     6    1
    18     2     1    1
    19     8     9    2
    20    11    12    1
    21    12    22   am
    22    22    23    1
    23    23    24    1
    24    24    26   ar
    25    24    25   ar
