@<TRIPOS>MOLECULE
1pnf_NDG_A_1.pdb
 15 15 0 0 0
SMALL
GASTEIGER

@<TRIPOS>ATOM
      1  C1       -42.0960  -15.2270  -34.6410 C.3   431  NDG431      0.2917
      2  C2       -40.8980  -14.2980  -35.0560 C.3   431  NDG431      0.1871
      3  C3       -40.4240  -13.5630  -33.7900 C.3   431  NDG431      0.2095
      4  C4       -41.5740  -12.8790  -33.0830 C.3   431  NDG431      0.2136
      5  C5       -42.7310  -13.8430  -32.8160 C.3   431  NDG431      0.1835
      6  C6       -43.9580  -13.2200  -32.1480 C.3   431  NDG431      0.2142
      7  C7       -39.3510  -15.0350  -36.8370 C.2   431  NDG431      0.2421
      8  C8       -38.2380  -16.0220  -37.1710 C.3   431  NDG431      0.0964
      9  O        -43.1410  -14.4500  -34.0630 O.3   431  NDG431     -0.3242
     10  O3       -39.4700  -12.5900  -34.1730 O.3   431  NDG431     -0.2183
     11  O4       -41.1470  -12.3670  -31.8010 O.3   431  NDG431     -0.2176
     12  O6       -44.5530  -12.2310  -32.9340 O.3   431  NDG431     -0.2176
     13  O7       -39.7520  -14.1900  -37.6470 O.2   431  NDG431     -0.2733
     14  N2       -39.8120  -15.1060  -35.5880 N.am  431  NDG431     -0.1991
     15  O1L      -41.7570  -16.1290  -33.6480 O.3   431  NDG431     -0.1879
@<TRIPOS>BOND
     1    13     7    2
     2     8     7    1
     3     7    14   am
     4    14     2    1
     5     2     1    1
     6     2     3    1
     7     1     9    1
     8     1    15    1
     9    10     3    1
    10     9     5    1
    11     3     4    1
    12     4     5    1
    13     4    11    1
    14    12     6    1
    15     5     6    1
