@<TRIPOS>MOLECULE
1pnf_NAG_A_1.pdb
 14 14 0 0 0
SMALL
GASTEIGER

@<TRIPOS>ATOM
      1  C1       -41.1940  -11.0030  -31.6640 C.3   432  NAG432      0.1665
      2  C2       -41.2980  -10.6610  -30.1780 C.3   432  NAG432      0.1576
      3  C3       -41.1980   -9.1510  -30.0180 C.3   432  NAG432      0.2069
      4  C4       -39.9340   -8.6180  -30.6830 C.3   432  NAG432      0.2134
      5  C5       -39.8600   -9.0740  -32.1350 C.3   432  NAG432      0.1809
      6  C6       -38.5380   -8.6960  -32.7520 C.3   432  NAG432      0.2141
      7  C7       -42.6550  -12.1440  -28.7980 C.2   432  NAG432      0.2420
      8  C8       -44.0530  -12.4670  -28.2900 C.3   432  NAG432      0.0964
      9  N2       -42.5740  -11.1060  -29.6290 N.am  432  NAG432     -0.2019
     10  O3       -41.1810   -8.8280  -28.6420 O.3   432  NAG432     -0.2184
     11  O4       -39.9350   -7.2000  -30.6350 O.3   432  NAG432     -0.2176
     12  O5       -39.9710  -10.5100  -32.2300 O.3   432  NAG432     -0.3489
     13  O6       -37.4790   -9.3720  -32.1210 O.3   432  NAG432     -0.2176
     14  O7       -41.6880  -12.8120  -28.4600 O.2   432  NAG432     -0.2733
@<TRIPOS>BOND
     1     6     5    1
     2     6    13    1
     3    12     5    1
     4    12     1    1
     5     5     4    1
     6     1     2    1
     7     4    11    1
     8     4     3    1
     9     2     3    1
    10     2     9    1
    11     3    10    1
    12     9     7   am
    13     7    14    2
    14     7     8    1
