@<TRIPOS>MOLECULE
1pnl_PAC_B_1.pdb
 10 10 0 0 0
SMALL
GASTEIGER

@<TRIPOS>ATOM
      1  C1        12.8800   37.9910   35.3710 C.2   559  PAC559      0.3692
      2  C2        13.2210   37.0510   34.2440 C.3   559  PAC559      0.1404
      3  C1'       11.9430   36.4660   33.6990 C.ar  559  PAC559     -0.0109
      4  C2'       11.3220   36.9030   32.5350 C.ar  559  PAC559     -0.0037
      5  C3'       10.1390   36.3590   32.1050 C.ar  559  PAC559     -0.0003
      6  C4'        9.6490   35.3680   32.9090 C.ar  559  PAC559     -0.0000
      7  C5'       10.2360   34.9070   34.0710 C.ar  559  PAC559     -0.0003
      8  C6'       11.4160   35.4690   34.4880 C.ar  559  PAC559     -0.0037
      9  O1        13.6550   37.7550   36.3680 O.co2 559  PAC559     -0.2453
     10  O2        12.0240   38.8820   35.3020 O.co2 559  PAC559     -0.2453
@<TRIPOS>BOND
     1     5     4   ar
     2     5     6   ar
     3     4     3   ar
     4     6     7   ar
     5     3     2    1
     6     3     8   ar
     7     7     8   ar
     8     2     1    1
     9    10     1   ar
    10     1     9   ar
