@<TRIPOS>MOLECULE
1pno_NAP_A_1.pdb
 48 52 0 0 0
SMALL
GASTEIGER

@<TRIPOS>ATOM
      1  PA        -7.6110   71.2400   32.4100 P.3   500  NAP500      0.2189
      2  O1A       -6.4390   71.9470   33.0130 O.3   500  NAP500     -0.4371
      3  O2A       -7.8110   69.7850   32.6170 O.2   500  NAP500     -0.5170
      4  O5B       -8.8800   72.0040   32.8920 O.3   500  NAP500     -0.3112
      5  C5B       -9.3100   73.3060   32.6980 C.3   500  NAP500      0.1813
      6  C4B      -10.3610   73.8890   33.5480 C.3   500  NAP500      0.1820
      7  O4B      -11.7490   73.8500   33.0760 O.3   500  NAP500     -0.3136
      8  C3B      -10.4820   73.2940   34.8850 C.3   500  NAP500      0.2157
      9  O3B       -9.4440   73.8400   35.7810 O.3   500  NAP500     -0.2175
     10  C2B      -11.8190   73.5080   35.3990 C.3   500  NAP500      0.2314
     11  O2B      -12.1070   74.1220   36.5730 O.3   500  NAP500     -0.2630
     12  C1B      -12.5130   74.2050   34.3060 C.3   500  NAP500      0.3158
     13  N9A      -13.9980   73.7870   34.0020 N.pl3 500  NAP500     -0.1439
     14  C8A      -14.5330   72.4890   34.1190 C.3   500  NAP500      0.3377
     15  N7A      -15.8150   72.4870   33.7920 N.2   500  NAP500     -0.2095
     16  C5A      -16.1820   73.7580   33.4540 C.2   500  NAP500      0.2526
     17  C6A      -17.3370   74.4850   33.0310 C.2   500  NAP500      0.4393
     18  N6A      -18.5050   73.8410   32.8740 N.pl3 500  NAP500      0.2180
     19  N1A      -17.2550   75.8400   32.7860 N.2   500  NAP500      0.0021
     20  C2A      -16.0810   76.5420   32.9380 C.3   500  NAP500      0.5254
     21  N3A      -14.9220   75.9780   33.3360 N.2   500  NAP500     -0.0055
     22  C4A      -14.9680   74.6430   33.5860 C.2   500  NAP500      0.3518
     23  O3        -7.7610   71.4840   30.8310 O.3   500  NAP500     -0.2703
     24  PN        -6.6560   72.2580   29.8070 P.3   500  NAP500      0.2189
     25  O1N       -6.1630   73.5900   30.2500 O.3   500  NAP500     -0.4371
     26  O2N       -7.3810   72.1710   28.5130 O.2   500  NAP500     -0.5170
     27  O5D       -5.7360   71.0320   30.0050 O.3   500  NAP500     -0.3112
     28  C5D       -5.7540   69.6900   29.5860 C.3   500  NAP500      0.1813
     29  C4D       -5.3230   68.5630   30.4900 C.3   500  NAP500      0.1799
     30  O4D       -5.8640   67.2340   30.2020 O.3   500  NAP500     -0.3327
     31  C3D       -3.7740   68.5570   30.6840 C.3   500  NAP500      0.2158
     32  O3D       -3.2630   68.2870   32.0180 O.3   500  NAP500     -0.2175
     33  C2D       -3.4830   67.3950   29.6840 C.3   500  NAP500      0.2309
     34  O2D       -2.2530   66.7630   29.7170 O.3   500  NAP500     -0.2158
     35  C1D       -4.6500   66.4130   30.0060 C.3   500  NAP500      0.2263
     36  N1N       -5.1120   65.4470   28.9240 N.pl3 500  NAP500     -0.2787
     37  C2N       -5.1120   65.8140   27.5580 C.3   500  NAP500      0.1244
     38  C3N       -5.5410   64.8820   26.5620 C.2   500  NAP500      0.0544
     39  C7N       -5.5310   65.2920   25.1400 C.2   500  NAP500      0.2818
     40  O7N       -5.2660   64.4900   24.2520 O.2   500  NAP500     -0.2670
     41  N7N       -5.8470   66.5930   24.9500 N.am  500  NAP500     -0.0839
     42  C4N       -5.9770   63.5620   26.9270 C.2   500  NAP500      0.0033
     43  C5N       -5.9810   63.1940   28.2640 C.2   500  NAP500      0.0157
     44  C6N       -5.5640   64.1040   29.2250 C.2   500  NAP500      0.0633
     45  P2B      -13.3210   74.5430   37.5070 P.3   500  NAP500      0.5328
     46  O1X      -13.7050   73.3440   38.2910 O.3   500  NAP500     -0.1145
     47  O2X      -12.7740   75.6420   38.3250 O.3   500  NAP500     -0.1145
     48  O3X      -14.3740   75.0130   36.6350 O.2   500  NAP500     -0.2224
@<TRIPOS>BOND
     1    40    39    2
     2    41    39   am
     3    39    38    1
     4    38    42    2
     5    38    37    1
     6    42    43    1
     7    37    36    1
     8    43    44    2
     9    26    24    2
    10    36    44    1
    11    36    35    1
    12    28    27    1
    13    28    29    1
    14    33    34    1
    15    33    35    1
    16    33    31    1
    17    24    27    1
    18    24    25    1
    19    24    23    1
    20    35    30    1
    21    30    29    1
    22    29    31    1
    23    31    32    1
    24    23     1    1
    25     1     3    2
    26     1     4    1
    27     1     2    1
    28     5     4    1
    29     5     6    1
    30    19    20    1
    31    19    17    2
    32    18    17    1
    33    20    21    1
    34    17    16    1
    35     7     6    1
    36     7    12    1
    37    21    22    2
    38    16    22    1
    39    16    15    2
    40     6     8    1
    41    22    13    1
    42    15    14    1
    43    13    14    1
    44    13    12    1
    45    12    10    1
    46     8    10    1
    47     8     9    1
    48    10    11    1
    49    11    45    1
    50    48    45    2
    51    45    46    1
    52    45    47    1
