@<TRIPOS>MOLECULE
1pnq_NDP_A_1.pdb
 48 52 0 0 0
SMALL
GASTEIGER

@<TRIPOS>ATOM
      1  PA        -7.5060   71.7250   32.6440 P.3   500  NDP500      0.2189
      2  O1A       -6.4030   72.5100   33.2380 O.3   500  NDP500     -0.4371
      3  O2A       -7.5670   70.2710   32.8610 O.2   500  NDP500     -0.5170
      4  O5B       -8.8770   72.4140   33.1390 O.3   500  NDP500     -0.3112
      5  C5B       -9.2400   73.4510   32.9080 C.3   500  NDP500      0.1813
      6  C4B       -9.9840   74.1910   33.9020 C.3   500  NDP500      0.1820
      7  O4B      -11.3690   74.2220   33.3550 O.3   500  NDP500     -0.3136
      8  C3B      -10.2170   73.6110   35.2490 C.3   500  NDP500      0.2157
      9  O3B       -9.2280   74.1290   36.1970 O.3   500  NDP500     -0.2175
     10  C2B      -11.5810   73.8670   35.6940 C.3   500  NDP500      0.2314
     11  O2B      -11.9330   74.4850   36.8540 O.3   500  NDP500     -0.2630
     12  C1B      -12.2070   74.5780   34.5690 C.3   500  NDP500      0.3158
     13  N9A      -13.7140   74.1700   34.2450 N.pl3 500  NDP500     -0.1439
     14  C8A      -14.2460   72.8710   34.3490 C.3   500  NDP500      0.3377
     15  N7A      -15.5270   72.8530   34.0200 N.2   500  NDP500     -0.2095
     16  C5A      -15.9080   74.1190   33.6860 C.2   500  NDP500      0.2526
     17  C6A      -17.0790   74.8280   33.2560 C.2   500  NDP500      0.4393
     18  N6A      -18.2320   74.1580   33.0880 N.pl3 500  NDP500      0.2180
     19  N1A      -17.0230   76.1840   33.0180 N.2   500  NDP500      0.0021
     20  C2A      -15.8590   76.9050   33.1790 C.3   500  NDP500      0.5254
     21  N3A      -14.6840   76.3610   33.5820 N.2   500  NDP500     -0.0055
     22  C4A      -14.7000   75.0230   33.8240 C.2   500  NDP500      0.3518
     23  O3        -7.6250   71.8810   31.0460 O.3   500  NDP500     -0.2703
     24  PN        -6.5170   72.6530   30.0140 P.3   500  NDP500      0.2189
     25  O1N       -6.1000   74.0130   30.4090 O.3   500  NDP500     -0.4371
     26  O2N       -7.1770   72.4750   28.7010 O.2   500  NDP500     -0.5170
     27  O5D       -5.5620   71.4820   30.2950 O.3   500  NDP500     -0.3112
     28  C5D       -5.4140   70.1900   29.7860 C.3   500  NDP500      0.1813
     29  C4D       -5.1010   69.0200   30.6710 C.3   500  NDP500      0.1799
     30  O4D       -5.6650   67.7340   30.2820 O.3   500  NDP500     -0.3327
     31  C3D       -3.5800   68.9550   30.9830 C.3   500  NDP500      0.2158
     32  O3D       -3.1640   68.6400   32.3510 O.3   500  NDP500     -0.2175
     33  C2D       -3.2520   67.8220   29.9640 C.3   500  NDP500      0.2309
     34  O2D       -2.0460   67.1590   30.0820 O.3   500  NDP500     -0.2158
     35  C1D       -4.4680   66.8770   30.1720 C.3   500  NDP500      0.2263
     36  N1N       -4.8900   65.9270   29.0580 N.pl3 500  NDP500     -0.2787
     37  C2N       -4.8570   66.3140   27.6920 C.3   500  NDP500      0.1244
     38  C3N       -5.2550   65.3920   26.6770 C.2   500  NDP500      0.0544
     39  C7N       -5.2140   65.8080   25.2580 C.2   500  NDP500      0.2818
     40  O7N       -4.9530   65.0010   24.3730 O.2   500  NDP500     -0.2670
     41  N7N       -5.4940   67.1170   25.0680 N.am  500  NDP500     -0.0839
     42  C4N       -5.5240   64.0040   27.0210 C.2   500  NDP500      0.0033
     43  C5N       -5.7310   63.6770   28.3690 C.2   500  NDP500      0.0157
     44  C6N       -5.3420   64.5780   29.3380 C.2   500  NDP500      0.0633
     45  P2B      -13.1750   74.9670   37.7420 P.3   500  NDP500      0.5328
     46  O1X      -13.7210   73.8060   38.4830 O.3   500  NDP500     -0.1145
     47  O2X      -12.5730   75.9960   38.5960 O.3   500  NDP500     -0.1145
     48  O3X      -14.1370   75.5470   36.8460 O.2   500  NDP500     -0.2224
@<TRIPOS>BOND
     1    40    39    2
     2    41    39   am
     3    39    38    1
     4    38    42    2
     5    38    37    1
     6    42    43    1
     7    37    36    1
     8    43    44    2
     9    26    24    2
    10    36    44    1
    11    36    35    1
    12    28    27    1
    13    28    29    1
    14    33    34    1
    15    33    35    1
    16    33    31    1
    17    24    27    1
    18    24    25    1
    19    24    23    1
    20    35    30    1
    21    30    29    1
    22    29    31    1
    23    31    32    1
    24    23     1    1
    25     1     3    2
    26     1     4    1
    27     1     2    1
    28     5     4    1
    29     5     6    1
    30    19    20    1
    31    19    17    2
    32    18    17    1
    33    20    21    1
    34    17    16    1
    35     7     6    1
    36     7    12    1
    37    21    22    2
    38    16    22    1
    39    16    15    2
    40    22    13    1
    41     6     8    1
    42    15    14    1
    43    13    14    1
    44    13    12    1
    45    12    10    1
    46     8    10    1
    47     8     9    1
    48    10    11    1
    49    48    45    2
    50    11    45    1
    51    45    46    1
    52    45    47    1
