@<TRIPOS>MOLECULE
1pnr_HPA_A_1.pdb
 10 11 0 0 0
SMALL
GASTEIGER

@<TRIPOS>ATOM
      1  N1        56.7010    2.4920  -10.9520 N.2   599  HPA599     -0.1726
      2  C2        57.4810    2.5680   -9.8250 C.3   599  HPA599      0.2725
      3  N3        58.1440    3.6500   -9.4480 N.2   599  HPA599     -0.1902
      4  C4        57.9780    4.6760  -10.3170 C.1   599  HPA599      0.0598
      5  C5        57.2250    4.6920  -11.4700 C.2   599  HPA599      0.2226
      6  C6        56.5080    3.5270  -11.8510 C.1   599  HPA599      0.1796
      7  O6        55.7830    3.3130  -12.8310 O.2   599  HPA599     -0.2200
      8  N7        57.3140    5.9410  -12.0700 N.2   599  HPA599     -0.2230
      9  C8        58.1130    6.6370  -11.3000 C.3   599  HPA599      0.2622
     10  N9        58.5300    5.9330  -10.1920 N.2   599  HPA599     -0.1910
@<TRIPOS>BOND
     1     7     6    2
     2     8     5    2
     3     8     9    1
     4     6     5    1
     5     6     1    2
     6     5     4    1
     7     9    10    1
     8     1     2    1
     9     4    10    2
    10     4     3    2
    11     2     3    1
