@<TRIPOS>MOLECULE
1pnv_BGC_C_1.pdb
 11 11 0 0 0
SMALL
GASTEIGER

@<TRIPOS>ATOM
      1  C2        -7.4740   73.3960   27.1740 C.3     8  BGC8        0.2141
      2  C3        -8.1220   73.0210   28.5030 C.3     8  BGC8        0.2176
      3  C4        -8.4780   71.5050   28.4770 C.3     8  BGC8        0.2192
      4  C5        -7.2420   70.7170   28.0630 C.3     8  BGC8        0.2122
      5  C6        -7.4700   69.3310   27.9210 C.2     8  BGC8        0.2393
      6  C1        -6.3850   72.4720   26.7570 C.3     8  BGC8        0.1782
      7  O2        -6.9480   74.7300   27.3430 O.3     8  BGC8       -0.2176
      8  O3        -9.2680   73.7840   28.7880 O.3     8  BGC8       -0.2175
      9  O4        -8.8920   71.0600   29.7630 O.3     8  BGC8       -0.2172
     10  O5        -6.8380   71.1460   26.7940 O.3     8  BGC8       -0.3429
     11  O6        -7.9340   68.5440   28.7440 O.2     8  BGC8       -0.2855
@<TRIPOS>BOND
     1     6    10    1
     2     6     1    1
     3    10     4    1
     4     1     7    1
     5     1     2    1
     6     5     4    1
     7     5    11    2
     8     4     3    1
     9     3     2    1
    10     3     9    1
    11     2     8    1
