@<TRIPOS>MOLECULE
1pnv_TYD_A_1.pdb
 25 26 0 0 0
SMALL
GASTEIGER

@<TRIPOS>ATOM
      1  PA        42.4260   79.1450   28.3610 P.3   405  TYD405      0.2231
      2  O1A       41.7300   79.9180   29.4220 O.3   405  TYD405     -0.4370
      3  O2A       43.3570   78.0590   28.7600 O.2   405  TYD405     -0.5169
      4  O3A       43.3260   80.2300   27.5430 O.3   405  TYD405     -0.2261
      5  PB        44.6600   80.1600   26.6170 P.3   405  TYD405      0.5373
      6  O1B       44.5790   81.2860   25.6010 O.2   405  TYD405     -0.2221
      7  O2B       44.5840   78.7750   25.9990 O.3   405  TYD405     -0.1143
      8  O3B       45.8220   80.3200   27.5820 O.3   405  TYD405     -0.1143
      9  O5'       41.3230   78.5050   27.3890 O.3   405  TYD405     -0.3111
     10  C5'       40.3050   79.3160   26.8010 C.3   405  TYD405      0.1812
     11  C4'       39.1170   78.4800   26.3590 C.3   405  TYD405      0.1773
     12  O4'       39.3890   77.6710   25.1950 O.3   405  TYD405     -0.3339
     13  C3'       38.6000   77.4410   27.3400 C.3   405  TYD405      0.1857
     14  O3'       37.7380   78.0370   28.3010 O.3   405  TYD405     -0.2203
     15  C2'       37.7980   76.4770   26.4590 C.3   405  TYD405      0.0874
     16  C1'       38.3020   76.7820   25.0430 C.3   405  TYD405      0.2090
     17  N1        38.7120   75.5980   24.2520 N.am  405  TYD405     -0.1794
     18  C2        37.6950   74.8760   23.6530 C.1   405  TYD405      0.2844
     19  O2        36.5140   75.0520   23.9050 O.2   405  TYD405     -0.1918
     20  N3        38.1150   73.9280   22.7530 N.2   405  TYD405     -0.2455
     21  C4        39.4140   73.6270   22.4010 C.1   405  TYD405      0.2134
     22  O4        39.6290   72.7580   21.5680 O.2   405  TYD405     -0.2088
     23  C5        40.4340   74.4030   23.0760 C.2   405  TYD405      0.0891
     24  C5M       41.8730   74.1240   22.7740 C.3   405  TYD405      0.0462
     25  C6        40.0370   75.3420   23.9540 C.2   405  TYD405      0.0877
@<TRIPOS>BOND
     1    22    21    2
     2    21    20    2
     3    21    23    1
     4    20    18    2
     5    24    23    1
     6    23    25    2
     7    18    19    2
     8    18    17   am
     9    25    17    1
    10    17    16    1
    11    16    12    1
    12    16    15    1
    13    12    11    1
    14     6     5    2
    15     7     5    1
    16    11    10    1
    17    11    13    1
    18    15    13    1
    19     5     4    1
    20     5     8    1
    21    10     9    1
    22    13    14    1
    23     9     1    1
    24     4     1    1
    25     1     3    2
    26     1     2    1
