@<TRIPOS>MOLECULE
1po0_FLC_A_1.pdb
 13 12 0 0 0
SMALL
GASTEIGER

@<TRIPOS>ATOM
      1  CAC       23.4390    1.5780   -2.6280 C.2   742  FLC742      0.3680
      2  CA        22.2700    0.6680   -2.0790 C.3   742  FLC742      0.1560
      3  CB        21.9970    0.4790   -0.4810 C.3   742  FLC742      0.2402
      4  CBC       22.6990    1.5070    0.5530 C.2   742  FLC742      0.3927
      5  CG        21.4550   -1.0030   -0.0090 C.3   742  FLC742      0.1560
      6  CGC       21.2590   -1.3050    1.5330 C.2   742  FLC742      0.3680
      7  OA1       24.2140    1.2240   -3.4900 O.co2 742  FLC742     -0.2455
      8  OA2       23.5310    2.6780   -2.1250 O.co2 742  FLC742     -0.2455
      9  OB1       23.8710    1.3670    0.9270 O.co2 742  FLC742     -0.2429
     10  OB2       21.9910    2.4390    0.9250 O.co2 742  FLC742     -0.2429
     11  OG1       20.1790   -1.7330    1.9330 O.co2 742  FLC742     -0.2455
     12  OG2       22.2150   -1.0890    2.2670 O.co2 742  FLC742     -0.2455
     13  OHB       23.2360   -0.2730   -0.3990 O.3   742  FLC742     -0.2129
@<TRIPOS>BOND
     1     7     1   ar
     2     1     8   ar
     3     1     2    1
     4     2     3    1
     5     3    13    1
     6     3     5    1
     7     3     4    1
     8     5     6    1
     9     4    10   ar
    10     4     9   ar
    11     6    11   ar
    12     6    12   ar
