@<TRIPOS>MOLECULE
1po1_III_0_1.pdb
 29 28 0 0 0
SMALL
GASTEIGER

@<TRIPOS>ATOM
      1  N          8.0890   50.7750   85.4000 N.3     6  GLY6       -0.1210
      2  CA         6.8260   50.5440   86.1020 C.3     6  GLY6        0.1956
      3  C          6.8530   49.7030   87.4050 C.2     6  GLY6        0.2613
      4  O          7.6030   49.9990   88.3370 O.2     6  GLY6       -0.2717
      5  N          6.0500   48.6290   87.5090 N.am    7  SER7       -0.1938
      6  CA         6.0110   47.7900   88.7190 C.3     7  SER7        0.2055
      7  C          7.0640   46.6760   88.8150 C.2     7  SER7        0.2644
      8  O          6.8900   45.6350   88.1900 O.2     7  SER7       -0.2714
      9  CB         4.6760   47.0280   88.9350 C.3     7  SER7        0.2130
     10  OG         3.4810   47.7750   88.8240 O.3     7  SER7       -0.2179
     11  N          8.1940   46.7830   89.5220 N.am    8  SER8       -0.1935
     12  CA         9.0540   45.6020   89.6940 C.3     8  SER8        0.2055
     13  C          8.4280   44.6070   90.7080 C.2     8  SER8        0.2644
     14  O          8.4500   44.8140   91.9100 O.2     8  SER8       -0.2714
     15  CB        10.4620   45.9310   90.2180 C.3     8  SER8        0.2130
     16  OG        11.1890   44.7340   90.4390 O.3     8  SER8       -0.2179
     17  N          7.7470   43.5560   90.2360 N.am    9  SER9       -0.1935
     18  CA         7.1800   42.5520   91.1440 C.3     9  SER9        0.2055
     19  C          8.1840   41.5870   91.7940 C.2     9  SER9        0.2643
     20  O          9.3030   41.4480   91.3220 O.2     9  SER9       -0.2714
     21  CB         6.1310   41.6780   90.4500 C.3     9  SER9        0.2130
     22  OG         5.5200   40.7730   91.3650 O.3     9  SER9       -0.2179
     23  N          7.8210   40.8910   92.8720 N.am   10  THR10      -0.1950
     24  CA         8.7280   39.9600   93.5490 C.3    10  THR10       0.1897
     25  C          7.9830   38.7850   94.2110 C.2    10  THR10       0.2313
     26  O          7.6930   38.7240   95.4250 O.2    10  THR10      -0.2863
     27  CB         9.5750   40.7050   94.6770 C.3    10  THR10       0.1794
     28  OG1        9.9490   41.9780   94.1570 O.3    10  THR10      -0.2208
     29  CG2       10.8200   39.9330   95.0710 C.3    10  THR10       0.0378
@<TRIPOS>BOND
     1     1     2    1
     2     2     3    1
     3     3     5   am
     4     3     4    2
     5     5     6    1
     6     8     7    2
     7     6     7    1
     8     6     9    1
     9     7    11   am
    10    10     9    1
    11    11    12    1
    12    12    15    1
    13    12    13    1
    14    15    16    1
    15    17    13   am
    16    17    18    1
    17    21    18    1
    18    21    22    1
    19    13    14    2
    20    18    19    1
    21    20    19    2
    22    19    23   am
    23    23    24    1
    24    24    25    1
    25    24    27    1
    26    28    27    1
    27    25    26    2
    28    27    29    1
