@<TRIPOS>MOLECULE
1po1_J80_1_1.pdb
 29 31 0 0 0
SMALL
GASTEIGER

@<TRIPOS>ATOM
      1  C1        22.1970   66.6950  112.0390 C.3     0  J800        0.0540
      2  C2        23.0630   65.4640  111.9220 C.ar    0  J800        0.0810
      3  C3        23.6010   65.1380  110.7110 C.ar    0  J800        0.0194
      4  C4        24.4620   64.0540  110.6490 C.ar    0  J800        0.0377
      5  C5        24.7660   63.3190  111.7920 C.ar    0  J800        0.1572
      6  N4        24.1850   63.7190  112.9370 N.ar    0  J800       -0.1329
      7  N3        23.3480   64.7660  113.0160 N.ar    0  J800       -0.1512
      8  N6        25.6790   62.3310  111.7690 N.pl3   0  J800       -0.2702
      9  C7        26.4780   62.0880  110.5540 C.2     0  J800        0.0618
     10  C8        27.7110   61.1940  110.7110 C.2     0  J800       -0.0103
     11  C9        27.9450   60.4820  112.0160 C.3     0  J800        0.0250
     12  C10       26.6580   60.2620  112.7800 C.3     0  J800        0.0262
     13  C11       25.8520   61.5290  112.9960 C.3     0  J800        0.0974
     14  C12       28.6810   59.1870  111.7530 C.3     0  J800        0.0046
     15  C13       29.0500   58.4710  113.0170 C.3     0  J800        0.0042
     16  C14       29.2550   57.0050  112.7860 C.3     0  J800        0.0473
     17  C15       29.0820   56.4320  114.1690 C.3     0  J800        0.2054
     18  O16       28.7170   55.0650  114.0690 O.3     0  J800       -0.4755
     19  C17       29.2950   54.2550  114.9700 C.ar    0  J800        0.1386
     20  C18       30.2100   53.3570  114.4380 C.ar    0  J800        0.0371
     21  C19       31.2400   52.8410  115.2350 C.ar    0  J800        0.0096
     22  C20       31.3600   53.2270  116.5640 C.ar    0  J800        0.0758
     23  C21       30.4300   54.1270  117.1100 C.ar    0  J800        0.0096
     24  C22       29.3990   54.6410  116.3090 C.ar    0  J800        0.0371
     25  C23       32.4130   52.7920  117.3500 C.2     0  J800        0.3412
     26  O24       33.2900   52.0570  116.8650 O.2     0  J800       -0.2449
     27  O25       32.3650   53.1220  118.7700 O.3     0  J800       -0.4454
     28  C26       33.5400   53.0960  119.5240 C.3     0  J800        0.2089
     29  C27       34.5920   54.2340  119.6060 C.3     0  J800        0.0513
@<TRIPOS>BOND
     1     9    10    2
     2     9     8    1
     3     4     3   ar
     4     4     5   ar
     5     3     2   ar
     6    10    11    1
     7    14    11    1
     8    14    15    1
     9     8     5    1
    10     8    13    1
    11     5     6   ar
    12     2     1    1
    13     2     7   ar
    14    11    12    1
    15    12    13    1
    16    16    15    1
    17    16    17    1
    18     6     7   ar
    19    18    17    1
    20    18    19    1
    21    20    19   ar
    22    20    21   ar
    23    19    24   ar
    24    21    22   ar
    25    24    23   ar
    26    22    23   ar
    27    22    25    1
    28    26    25    2
    29    25    27    1
    30    27    28    1
    31    28    29    1
