@<TRIPOS>MOLECULE
1po2_III_0_1.pdb
 29 28 0 0 0
SMALL
GASTEIGER

@<TRIPOS>ATOM
      1  N          7.9030   50.9610   85.3200 N.3     6  GLY6       -0.1210
      2  CA         6.6620   50.4640   85.9160 C.3     6  GLY6        0.1956
      3  C          6.7690   49.7200   87.2680 C.2     6  GLY6        0.2613
      4  O          7.5300   50.0920   88.1730 O.2     6  GLY6       -0.2717
      5  N          5.9700   48.6630   87.4560 N.am    7  SER7       -0.1938
      6  CA         5.9650   47.9000   88.7030 C.3     7  SER7        0.2055
      7  C          7.0320   46.8070   88.7710 C.2     7  SER7        0.2644
      8  O          6.9230   45.8300   88.0380 O.2     7  SER7       -0.2714
      9  CB         4.6450   47.1530   88.9860 C.3     7  SER7        0.2130
     10  OG         3.5070   47.6340   88.3000 O.3     7  SER7       -0.2179
     11  N          8.1180   46.8580   89.5610 N.am    8  SER8       -0.1935
     12  CA         8.9790   45.6800   89.6690 C.3     8  SER8        0.2055
     13  C          8.3750   44.6470   90.6560 C.2     8  SER8        0.2644
     14  O          8.3980   44.8170   91.8700 O.2     8  SER8       -0.2714
     15  CB        10.3850   46.0210   90.1610 C.3     8  SER8        0.2130
     16  OG        11.1690   44.8600   90.4420 O.3     8  SER8       -0.2179
     17  N          7.7620   43.5790   90.1480 N.am    9  SER9       -0.1935
     18  CA         7.2090   42.5490   91.0290 C.3     9  SER9        0.2055
     19  C          8.2080   41.5850   91.6660 C.2     9  SER9        0.2643
     20  O          9.3220   41.4410   91.1830 O.2     9  SER9       -0.2714
     21  CB         6.1900   41.6710   90.3430 C.3     9  SER9        0.2130
     22  OG         5.5280   40.8500   91.2990 O.3     9  SER9       -0.2179
     23  N          7.8290   40.8820   92.7350 N.am   10  THR10      -0.1950
     24  CA         8.7260   39.9520   93.4220 C.3    10  THR10       0.1897
     25  C          7.9980   38.6870   93.9240 C.2    10  THR10       0.2313
     26  O          7.6170   38.5370   95.0970 O.2    10  THR10      -0.2863
     27  CB         9.4110   40.6170   94.6720 C.3    10  THR10       0.1794
     28  OG1        9.6620   41.9680   94.3240 O.3    10  THR10      -0.2208
     29  CG2       10.7060   39.9400   95.0750 C.3    10  THR10       0.0378
@<TRIPOS>BOND
     1     1     2    1
     2     2     3    1
     3     3     5   am
     4     3     4    2
     5     5     6    1
     6     8     7    2
     7    10     9    1
     8     6     7    1
     9     6     9    1
    10     7    11   am
    11    11    12    1
    12    12    15    1
    13    12    13    1
    14    17    13   am
    15    17    18    1
    16    15    16    1
    17    21    18    1
    18    21    22    1
    19    13    14    2
    20    18    19    1
    21    20    19    2
    22    19    23   am
    23    23    24    1
    24    24    25    1
    25    24    27    1
    26    25    26    2
    27    28    27    1
    28    27    29    1
