@<TRIPOS>MOLECULE
1po2_J77_1_1.pdb
 27 29 0 0 0
SMALL
GASTEIGER

@<TRIPOS>ATOM
      1  C1        23.2060   65.7080  111.3930 C.3     0  J770        0.0540
      2  C2        24.1170   64.5020  111.4970 C.ar    0  J770        0.0810
      3  C3        24.9180   64.0950  110.4420 C.ar    0  J770        0.0194
      4  C4        25.7630   62.9910  110.6430 C.ar    0  J770        0.0374
      5  C5        25.7730   62.3290  111.8740 C.ar    0  J770        0.1534
      6  N4        24.9550   62.8000  112.8380 N.ar    0  J770       -0.1332
      7  N3        24.1440   63.8610  112.6630 N.ar    0  J770       -0.1512
      8  N6        26.5840   61.2900  112.1100 N.pl3   0  J770       -0.2919
      9  C7        27.6060   60.8850  111.1190 C.3     0  J770        0.0922
     10  C8        28.3170   59.5570  111.4260 C.3     0  J770        0.0216
     11  C9        28.5450   59.3090  112.8880 C.3     0  J770        0.0071
     12  C10       27.2590   59.3700  113.6370 C.3     0  J770        0.0216
     13  C11       26.4100   60.6150  113.4090 C.3     0  J770        0.0922
     14  C12       29.4430   58.1250  113.2120 C.3     0  J770        0.0474
     15  C13       29.0400   56.7050  112.8660 C.3     0  J770        0.2054
     16  O14       28.2250   56.1470  113.8930 O.3     0  J770       -0.4755
     17  C15       28.7970   55.1000  114.5390 C.ar    0  J770        0.1386
     18  C16       29.1950   55.2890  115.8500 C.ar    0  J770        0.0371
     19  C17       30.0960   54.3980  116.4440 C.ar    0  J770        0.0096
     20  C18       30.6040   53.3250  115.7220 C.ar    0  J770        0.0758
     21  C19       30.1740   53.1470  114.3970 C.ar    0  J770        0.0096
     22  C20       29.2720   54.0250  113.8050 C.ar    0  J770        0.0371
     23  C21       31.7060   52.6280  116.1750 C.2     0  J770        0.3412
     24  O22       32.1270   51.6670  115.5150 O.2     0  J770       -0.2449
     25  O23       32.2960   53.0100  117.4310 O.3     0  J770       -0.4454
     26  C24       33.4030   52.3010  117.9020 C.3     0  J770        0.2089
     27  C25       34.7780   52.1580  117.1620 C.3     0  J770        0.0513
@<TRIPOS>BOND
     1     3     4   ar
     2     3     2   ar
     3     4     5   ar
     4     9    10    1
     5     9     8    1
     6     1     2    1
     7    10    11    1
     8     2     7   ar
     9     5     8    1
    10     5     6   ar
    11     8    13    1
    12     7     6   ar
    13    15    14    1
    14    15    16    1
    15    11    14    1
    16    11    12    1
    17    13    12    1
    18    22    21   ar
    19    22    17   ar
    20    16    17    1
    21    21    20   ar
    22    17    18   ar
    23    24    23    2
    24    20    23    1
    25    20    19   ar
    26    18    19   ar
    27    23    25    1
    28    27    26    1
    29    25    26    1
