@<TRIPOS>MOLECULE
1po3_FLC_A_1.pdb
 13 12 0 0 0
SMALL
GASTEIGER

@<TRIPOS>ATOM
      1  CAC       20.4920   -6.5390   24.7770 C.2   742  FLC742      0.3680
      2  CA        21.1050   -6.6480   26.1870 C.3   742  FLC742      0.1560
      3  CB        20.2730   -7.2630   27.4410 C.3   742  FLC742      0.2402
      4  CBC       18.7150   -7.5840   27.3640 C.2   742  FLC742      0.3927
      5  CG        21.0330   -6.9320   28.8400 C.3   742  FLC742      0.1560
      6  CGC       20.4240   -7.3010   30.2050 C.2   742  FLC742      0.3680
      7  OA1       20.9360   -7.1650   23.8260 O.co2 742  FLC742     -0.2455
      8  OA2       19.5110   -5.7650   24.6920 O.co2 742  FLC742     -0.2455
      9  OB1       18.2270   -8.0860   26.3670 O.co2 742  FLC742     -0.2429
     10  OB2       18.0400   -7.3200   28.3730 O.co2 742  FLC742     -0.2429
     11  OG1       20.9130   -8.2370   30.7880 O.co2 742  FLC742     -0.2455
     12  OG2       19.4540   -6.6270   30.5980 O.co2 742  FLC742     -0.2455
     13  OHB       19.6820   -5.9950   27.7100 O.3   742  FLC742     -0.2129
@<TRIPOS>BOND
     1     7     1   ar
     2     8     1   ar
     3     1     2    1
     4     2     3    1
     5     9     4   ar
     6     4     3    1
     7     4    10   ar
     8     3    13    1
     9     3     5    1
    10     5     6    1
    11     6    12   ar
    12     6    11   ar
