@<TRIPOS>MOLECULE
1po5_HEM_A_1.pdb
 43 50 0 0 0
SMALL
GASTEIGER

@<TRIPOS>ATOM
      1  CHA       23.6080   53.4290   47.1480 C.2   500  HEM500      0.0000
      2  CHB       19.8110   50.6890   47.6350 C.2   500  HEM500      0.0000
      3  CHC       22.5420   46.9600   48.7600 C.2   500  HEM500      0.0000
      4  CHD       26.3420   49.7710   48.2550 C.2   500  HEM500      0.0000
      5  C1A       22.3020   52.9790   46.9230 C.ar  500  HEM500      0.0000
      6  C2A       21.2030   53.7930   46.6670 C.ar  500  HEM500      0.0000
      7  C3A       20.0820   53.0240   46.9430 C.ar  500  HEM500      0.0000
      8  C4A       20.5670   51.7980   47.3620 C.ar  500  HEM500      0.0000
      9  CMA       18.5950   53.4970   46.7770 C.3   500  HEM500      0.0000
     10  CAA       21.2210   55.2670   46.2660 C.3   500  HEM500      0.0000
     11  CBA       21.5420   55.5320   44.8240 C.3   500  HEM500      0.0000
     12  CGA       21.3960   57.0290   44.5650 C.2   500  HEM500      0.0000
     13  O1A       20.4570   57.4160   43.8770 O.co2 500  HEM500      0.0000
     14  O2A       22.2120   57.8450   45.0060 O.co2 500  HEM500      0.0000
     15  C1B       20.1480   49.4870   48.2240 C.2   500  HEM500      0.0000
     16  C2B       19.2620   48.4270   48.5370 C.2   500  HEM500      0.0000
     17  C3B       20.0640   47.3170   48.8690 C.2   500  HEM500      0.0000
     18  C4B       21.4200   47.8110   48.7070 C.2   500  HEM500      0.0000
     19  CMB       17.7510   48.5020   48.3540 C.3   500  HEM500      0.0000
     20  CAB       19.7220   45.9580   49.1940 C.3   500  HEM500      0.0000
     21  CBB       18.5020   45.1520   49.0130 C.3   500  HEM500      0.0000
     22  C1C       23.8860   47.3690   48.7100 C.ar  500  HEM500      0.0000
     23  C2C       24.9570   46.4950   48.9970 C.ar  500  HEM500      0.0000
     24  C3C       26.1080   47.2970   48.8260 C.ar  500  HEM500      0.0000
     25  C4C       25.6370   48.6090   48.5680 C.ar  500  HEM500      0.0000
     26  CMC       24.9360   44.9570   49.1700 C.3   500  HEM500      0.0000
     27  CAC       27.4240   46.8300   48.8920 C.3   500  HEM500      0.0000
     28  CBC       28.5800   47.4250   49.4460 C.3   500  HEM500      0.0000
     29  C1D       25.9560   51.0140   47.9100 C.2   500  HEM500      0.0000
     30  C2D       26.8160   52.0120   47.4030 C.2   500  HEM500      0.0000
     31  C3D       26.0620   53.1160   47.1760 C.2   500  HEM500      0.0000
     32  C4D       24.7260   52.6260   47.2230 C.2   500  HEM500      0.0000
     33  CMD       28.3570   51.9880   47.4930 C.3   500  HEM500      0.0000
     34  CAD       26.4990   54.5250   46.6860 C.3   500  HEM500      0.0000
     35  CBD       26.4550   54.6230   45.1140 C.3   500  HEM500      0.0000
     36  CGD       26.9550   55.9850   44.5490 C.2   500  HEM500      0.0000
     37  O1D       27.9470   56.0140   43.8510 O.co2 500  HEM500      0.0000
     38  O2D       26.6750   57.0070   45.1910 O.co2 500  HEM500      0.0000
     39  NA        21.8910   51.7410   47.2530 N.ar  500  HEM500      0.0000
     40  NB        21.4130   49.0400   48.2200 N.2   500  HEM500      0.0000
     41  NC        24.2760   48.5970   48.4430 N.ar  500  HEM500      0.0000
     42  ND        24.7350   51.3620   47.6090 N.2   500  HEM500      0.0000
     43 FE         23.0750   50.1890   47.8960 Fe    500  HEM500      0.0000
@<TRIPOS>BOND
     1    37    36   ar
     2    13    12   ar
     3    36    35    1
     4    36    38   ar
     5    12    11    1
     6    12    14   ar
     7    11    10    1
     8    35    34    1
     9    10     6    1
    10     6     5   ar
    11     6     7   ar
    12    34    31    1
    13     9     7    1
    14     5     1    2
    15     5    39   ar
    16     7     8   ar
    17     1    32    1
    18    31    32    1
    19    31    30    2
    20    32    42    2
    21    39     8   ar
    22    39    43    1
    23     8     2    2
    24    30    33    1
    25    30    29    1
    26    42    43    1
    27    42    29    1
    28     2    15    1
    29    43    40    1
    30    43    41    1
    31    29     4    2
    32    40    15    2
    33    40    18    1
    34    15    16    1
    35     4    25    1
    36    19    16    1
    37    41    25   ar
    38    41    22   ar
    39    16    17    2
    40    25    24   ar
    41    18     3    2
    42    18    17    1
    43    22     3    1
    44    22    23   ar
    45    24    27    1
    46    24    23   ar
    47    17    20    1
    48    27    28    1
    49    23    26    1
    50    21    20    1
