@<TRIPOS>MOLECULE
1po7_TZD_A_1.pdb
 27 28 0 0 0
SMALL
GASTEIGER

@<TRIPOS>ATOM
      1  N1'       91.3650   45.6180  159.4950 N.2   530  TZD530     -0.1861
      2  C2'       90.6780   44.5010  159.1300 C.1   530  TZD530      0.0663
      3  C2A       89.2030   44.6080  158.9710 C.3   530  TZD530      0.1291
      4  N3'       91.2390   43.3050  158.9200 N.2   530  TZD530     -0.3368
      5  C4'       92.5840   43.2350  159.0610 C.2   530  TZD530      0.2294
      6  N4'       93.1430   42.0870  158.6870 N.pl3 530  TZD530     -0.0924
      7  C5'       93.3750   44.3350  159.5510 C.2   530  TZD530      0.0683
      8  C6'       92.6940   45.5640  159.7490 C.2   530  TZD530      0.1117
      9  C35       94.8580   44.3000  159.7800 C.3   530  TZD530      0.1415
     10  N3        95.2380   43.3750  160.8470 N.ar  530  TZD530     -0.2894
     11  C2        95.8290   42.1030  160.5780 C.ar  530  TZD530      0.2920
     12  OC2       95.8350   41.6080  159.3890 O.2   530  TZD530     -0.2594
     13  S1        96.3350   41.3540  162.0440 S.2   530  TZD530     -0.0306
     14  C5        95.8890   42.7770  162.9580 C.ar  530  TZD530      0.0259
     15  C4        95.3470   43.7440  162.1830 C.ar  530  TZD530      0.0432
     16  C4A       94.7890   45.0170  162.6940 C.3   530  TZD530      0.0503
     17  C5A       96.1290   42.8120  164.4950 C.3   530  TZD530      0.0667
     18  C5B       95.0470   41.9870  165.2240 C.3   530  TZD530      0.1544
     19  O5G       95.3960   42.0760  166.6400 O.3   530  TZD530     -0.3134
     20  P1        94.8290   41.1050  167.7250 P.3   530  TZD530      0.2230
     21  O11       95.7610   39.8220  167.6670 O.3   530  TZD530     -0.2261
     22  O12       94.9920   41.8090  169.0250 O.3   530  TZD530     -0.4370
     23  O13       93.4620   40.6530  167.3810 O.2   530  TZD530     -0.5169
     24  P2        97.3730   39.7180  167.8470 P.3   530  TZD530      0.5373
     25  O21       97.7400   40.6850  168.9940 O.3   530  TZD530     -0.1143
     26  O22       97.5970   38.2670  168.2190 O.3   530  TZD530     -0.1143
     27  O23       97.9770   40.0590  166.5170 O.2   530  TZD530     -0.2221
@<TRIPOS>BOND
     1     6     5    1
     2     4     5    2
     3     4     2    2
     4     3     2    1
     5     5     7    1
     6     2     1    2
     7    12    11    2
     8     1     8    1
     9     7     8    2
    10     7     9    1
    11     9    10    1
    12    11    10   ar
    13    11    13   ar
    14    10    15   ar
    15    13    14   ar
    16    15    16    1
    17    15    14   ar
    18    14    17    1
    19    17    18    1
    20    18    19    1
    21    27    24    2
    22    19    20    1
    23    23    20    2
    24    21    20    1
    25    21    24    1
    26    20    22    1
    27    24    26    1
    28    24    25    1
