@<TRIPOS>MOLECULE
1pob_GEL_A_1.pdb
 31 30 0 0 0
SMALL
GASTEIGER

@<TRIPOS>ATOM
      1  C1         9.5800   13.4380   37.0670 C.3   930  GEL930      0.1746
      2  O1        10.9840   13.6540   37.3160 O.3   930  GEL930     -0.3511
      3  C11       11.2840   14.6330   38.3210 C.3   930  GEL930      0.1426
      4  C12       12.7960   14.8380   38.2320 C.3   930  GEL930      0.0367
      5  C13       13.5450   14.7650   39.5490 C.3   930  GEL930      0.0286
      6  C14       14.5520   13.6490   39.6720 C.2   930  GEL930     -0.0261
      7  C15       14.7800   12.9340   40.9850 C.2   930  GEL930     -0.0049
      8  C16       15.5810   11.6500   40.9490 C.2   930  GEL930     -0.0049
      9  C17       15.1320   10.4870   41.8040 C.2   930  GEL930     -0.0258
     10  C18       15.8150    9.1500   41.5620 C.3   930  GEL930      0.0307
     11  C2         9.1240   14.1230   35.8110 C.3   930  GEL930      0.1836
     12  O2         9.5540   13.3870   34.6000 O.3   930  GEL930     -0.2871
     13  P2        10.3380   14.2290   33.4630 P.3   930  GEL930      0.3921
     14  O1P        9.6770   13.7590   32.1980 O.2   930  GEL930     -0.2507
     15  O2P        9.9350   15.6400   33.6080 O.3   930  GEL930     -0.1363
     16  C22       12.1620   14.0240   33.3470 C.2   930  GEL930      0.0849
     17  C23       12.8240   13.3970   34.5230 C.2   930  GEL930     -0.0184
     18  C24       14.2390   12.9120   34.2980 C.3   930  GEL930      0.0263
     19  C25       14.8440   12.3660   35.5830 C.3   930  GEL930      0.0047
     20  C26       14.4470   10.9080   35.8090 C.3   930  GEL930      0.0003
     21  C27       14.2400   10.6280   37.2880 C.3   930  GEL930      0.0000
     22  C28       14.6130    9.2300   37.7030 C.3   930  GEL930      0.0000
     23  C3         7.6080   14.1970   35.5630 C.3   930  GEL930      0.1816
     24  O3         6.9660   14.7550   36.7140 O.3   930  GEL930     -0.3114
     25  P3         6.4910   16.2890   36.7610 P.3   930  GEL930      0.2141
     26  O3P        6.2760   16.6420   38.1900 O.3   930  GEL930     -0.4373
     27  O4P        7.3970   17.1440   36.0030 O.2   930  GEL930     -0.5172
     28  O5P        5.1090   15.9910   36.0940 O.3   930  GEL930     -0.3125
     29  C31        3.8780   15.7510   36.7510 C.3   930  GEL930      0.1696
     30  C32        2.9990   16.9530   36.5640 C.3   930  GEL930      0.1417
     31  N3         1.5860   16.4790   36.6680 N.3   930  GEL930     -0.1286
@<TRIPOS>BOND
     1    14    13    2
     2    16    13    1
     3    16    17    2
     4    13    15    1
     5    13    12    1
     6    18    17    1
     7    18    19    1
     8    12    11    1
     9    23    11    1
    10    23    24    1
    11    19    20    1
    12    20    21    1
    13    11     1    1
    14    27    25    2
    15    28    29    1
    16    28    25    1
    17    30    31    1
    18    30    29    1
    19    24    25    1
    20    25    26    1
    21     1     2    1
    22    21    22    1
    23     2     3    1
    24     4     3    1
    25     4     5    1
    26     5     6    1
    27     6     7    2
    28     8     7    1
    29     8     9    2
    30    10     9    1
