@<TRIPOS>MOLECULE
1poc_GEL_A_1.pdb
 31 30 0 0 0
SMALL
GASTEIGER

@<TRIPOS>ATOM
      1  C1        40.6900   34.0820   24.8320 C.3   420  GEL420      0.1751
      2  O1        41.4120   35.3410   24.7250 O.3   420  GEL420     -0.3463
      3  C11       40.4740   36.3720   25.1620 C.3   420  GEL420      0.1681
      4  C12       40.8200   37.7190   24.5430 C.2   420  GEL420      0.0014
      5  C13       40.8770   38.8880   25.4980 C.2   420  GEL420     -0.0235
      6  C14       41.0360   40.2620   24.8760 C.3   420  GEL420      0.0514
      7  C15       41.8800   41.2170   25.6550 C.2   420  GEL420     -0.0260
      8  C16       41.6020   42.6760   25.5800 C.2   420  GEL420     -0.0304
      9  C17       42.2110   43.5420   26.6620 C.3   420  GEL420      0.0257
     10  C18       42.9700   44.7710   26.1360 C.3   420  GEL420      0.0050
     11  C2        40.3820   33.5520   23.4570 C.3   420  GEL420      0.1836
     12  O2        41.5380   33.6200   22.6470 O.3   420  GEL420     -0.2871
     13  P2        41.6650   33.9420   21.0820 P.3   420  GEL420      0.3921
     14  O1P       42.3250   32.7430   20.4890 O.2   420  GEL420     -0.2507
     15  O2P       40.3390   34.2480   20.5190 O.3   420  GEL420     -0.1363
     16  C22       42.6970   35.2920   21.6460 C.2   420  GEL420      0.0849
     17  C23       43.0500   36.4760   20.9270 C.2   420  GEL420     -0.0184
     18  C24       43.5600   37.7380   21.5870 C.3   420  GEL420      0.0263
     19  C25       44.1040   38.6670   20.5490 C.3   420  GEL420      0.0047
     20  C26       44.0930   40.1200   20.6220 C.3   420  GEL420      0.0003
     21  C27       43.4910   40.8780   19.4510 C.3   420  GEL420      0.0000
     22  C28       42.3360   41.7650   19.9290 C.3   420  GEL420      0.0000
     23  C3        39.7800   32.1580   23.4830 C.3   420  GEL420      0.1816
     24  O3        38.5360   32.2380   24.2100 O.3   420  GEL420     -0.3114
     25  P3        37.1150   32.5290   23.4430 P.3   420  GEL420      0.2141
     26  O3P       36.2470   33.1870   24.4630 O.3   420  GEL420     -0.4373
     27  O4P       37.3200   33.2790   22.2090 O.2   420  GEL420     -0.5172
     28  O5P       36.9070   31.0090   23.3740 O.3   420  GEL420     -0.3125
     29  C31       35.9720   30.2540   22.6650 C.3   420  GEL420      0.1696
     30  C32       35.1970   29.3790   23.6500 C.3   420  GEL420      0.1417
     31  N3        33.7520   29.5700   23.2770 N.3   420  GEL420     -0.1286
@<TRIPOS>BOND
     1    21    22    1
     2    21    20    1
     3    14    13    2
     4    15    13    1
     5    19    20    1
     6    19    18    1
     7    17    18    1
     8    17    16    2
     9    13    16    1
    10    13    12    1
    11    27    25    2
    12    12    11    1
    13    29    28    1
    14    29    30    1
    15    31    30    1
    16    28    25    1
    17    25    24    1
    18    25    26    1
    19    11    23    1
    20    11     1    1
    21    23    24    1
    22     4     3    1
    23     4     5    2
    24     2     1    1
    25     2     3    1
    26     6     5    1
    27     6     7    1
    28     8     7    2
    29     8     9    1
    30    10     9    1
