@<TRIPOS>MOLECULE
1poj_AE1_A_1.pdb
 18 17 0 0 0
SMALL
GASTEIGER

@<TRIPOS>ATOM
      1  O1       112.9820   34.1260  114.2160 O.co2 401  AE1401     -0.2456
      2  C3       112.2090   33.0610  114.4170 C.2   401  AE1401      0.3669
      3  O2       112.2270   32.0830  113.7000 O.co2 401  AE1401     -0.2456
      4  C2       111.3050   33.1210  115.6080 C.3   401  AE1401      0.1430
      5  C1       111.8840   32.3810  116.8510 C.3   401  AE1401      0.1823
      6  N        112.0240   30.9450  116.5510 N.3   401  AE1401     -0.1218
      7  P        110.7360   32.4380  118.3080 P.3   401  AE1401      0.2714
      8  O1P      109.3820   32.5500  117.7280 O.2   401  AE1401     -0.2854
      9  O2P      110.9940   33.7350  119.1830 O.3   401  AE1401     -0.1664
     10  C8       110.6890   30.9080  119.3430 C.3   401  AE1401      0.1020
     11  C6       111.3990   30.8710  120.7350 C.3   401  AE1401      0.1132
     12  C7       112.7170   31.6250  120.6910 C.2   401  AE1401      0.3649
     13  O4       113.0800   32.2090  121.8600 O.co2 401  AE1401     -0.2457
     14  O3       113.4040   31.6980  119.6580 O.co2 401  AE1401     -0.2457
     15  C5       111.7150   29.3960  121.1750 C.3   401  AE1401      0.0118
     16  C16      111.8570   29.0830  122.7200 C.3   401  AE1401      0.0006
     17  C17      112.2050   27.5530  122.8730 C.3   401  AE1401      0.0000
     18  C18      110.5610   29.3460  123.5430 C.3   401  AE1401      0.0000
@<TRIPOS>BOND
     1     3     2   ar
     2     1     2   ar
     3     2     4    1
     4     4     5    1
     5     6     5    1
     6     5     7    1
     7     8     7    2
     8     7     9    1
     9     7    10    1
    10    10    11    1
    11    14    12   ar
    12    12    11    1
    13    12    13   ar
    14    11    15    1
    15    15    16    1
    16    16    17    1
    17    16    18    1
