@<TRIPOS>MOLECULE
1pop_III_B_1.pdb
 38 37 0 0 0
SMALL
GASTEIGER

@<TRIPOS>ATOM
      1  C         18.1090   68.4890   20.9420 C.2   300  ACE300      0.2233
      2  O         18.4260   68.6970   19.7590 O.2   300  ACE300     -0.2751
      3  CH3       17.2150   67.3360   21.3560 C.3   300  ACE300      0.0946
      4  N         18.4390   69.2520   21.9840 N.am  301  LEU301     -0.2983
      5  CA        19.3980   70.3440   21.8930 C.3   301  LEU301      0.1485
      6  C         20.8050   69.7210   21.9520 C.2   301  LEU301      0.2406
      7  O         21.0500   68.7570   22.7010 O.2   301  LEU301     -0.2733
      8  CB        19.2100   71.3170   23.0690 C.3   301  LEU301      0.0290
      9  CG        18.4410   72.5990   22.7690 C.3   301  LEU301      0.0021
     10  CD1       17.0440   72.3170   22.2550 C.3   301  LEU301      0.0001
     11  CD2       18.3480   73.3840   24.0720 C.3   301  LEU301      0.0001
     12  H         18.0740   69.0320   22.8600 H     301  LEU301      0.1498
     13  N         21.7030   70.2520   21.1320 N.am  302  LEU302     -0.2970
     14  CA        23.0830   69.7930   21.0930 C.3   302  LEU302      0.1486
     15  C         23.8410   70.9130   21.7800 C.2   302  LEU302      0.2404
     16  O         23.4470   72.0710   21.6410 O.2   302  LEU302     -0.2733
     17  CB        23.5640   69.6140   19.6350 C.3   302  LEU302      0.0290
     18  CG        22.9140   68.5270   18.7280 C.3   302  LEU302      0.0021
     19  CD1       22.8360   67.2150   19.5150 C.3   302  LEU302      0.0001
     20  CD2       21.4890   68.9040   18.3240 C.3   302  LEU302      0.0001
     21  H         21.4560   70.9860   20.5280 H     302  LEU302      0.1499
     22  N         24.8150   70.4970   22.5850 N.am  303  AR7303     -0.3020
     23  CA        25.7070   71.3740   23.3310 C.3   303  AR7303      0.1046
     24  C         27.1860   71.1710   22.9740 C.3   303  AR7303      0.2014
     25  O         28.0600   72.1980   23.4900 O.3   303  AR7303     -0.2186
     26  CB        25.5290   71.1390   24.8290 C.3   303  AR7303      0.0258
     27  CG        24.4710   72.0230   25.4630 C.3   303  AR7303      0.0446
     28  CD        23.2980   71.2940   26.0920 C.3   303  AR7303      0.1739
     29  NE        23.6370   70.5240   27.2910 N.pl3 303  AR7303     -0.2651
     30  CZ        23.2540   69.2280   27.4570 C.cat 303  AR7303      0.3417
     31  NH1       22.5280   68.5910   26.5020 N.pl3 303  AR7303     -0.2918
     32  NH2       23.5910   68.5640   28.5830 N.pl3 303  AR7303     -0.2918
     33  H         24.8640   69.5360   22.7840 H     303  AR7303      0.1495
     34  HNE       24.1680   71.0150   27.9650 H     303  AR7303      0.2586
     35 HN11       22.2340   69.0660   25.6740 H     303  AR7303      0.2545
     36 HN21       24.1170   68.9900   29.3160 H     303  AR7303      0.2545
     37 HN22       23.4360   67.5660   28.6660 H     303  AR7303      0.2545
     38 HN12       22.1640   67.6480   26.6190 H     303  AR7303      0.2545
@<TRIPOS>BOND
     1    20    18    1
     2    18    19    1
     3    18    17    1
     4    17    14    1
     5     2     1    2
     6    21    13    1
     7     1     3    1
     8     1     4   am
     9    14    13    1
    10    14    15    1
    11    13     6   am
    12    16    15    2
    13    15    22   am
    14     5     6    1
    15     5     4    1
    16     5     8    1
    17     6     7    2
    18     4    12    1
    19    10     9    1
    20    22    33    1
    21    22    23    1
    22     9     8    1
    23     9    11    1
    24    24    23    1
    25    24    25    1
    26    23    26    1
    27    26    27    1
    28    27    28    1
    29    35    31    1
    30    28    29    1
    31    31    38    1
    32    31    30    2
    33    29    30    1
    34    29    34    1
    35    30    32    1
    36    32    37    1
    37    32    36    1
