@<TRIPOS>MOLECULE
1pot_SPD_A_1.pdb
 10 9 0 0 0
SMALL
GASTEIGER

@<TRIPOS>ATOM
      1  N1        66.7990   40.4000    4.7550 N.3   350  SPD350     -0.1314
      2  C2        65.9220   39.7940    5.8220 C.3   350  SPD350      0.1094
      3  C3        66.4670   40.2840    7.1960 C.3   350  SPD350      0.0220
      4  C4        65.8930   41.6730    7.3910 C.3   350  SPD350      0.0203
      5  C5        65.9020   42.1410    8.8050 C.3   350  SPD350      0.0887
      6  N6        65.0520   43.2980    8.8800 N.3   350  SPD350     -0.2180
      7  C7        64.8010   44.0790   10.0130 C.3   350  SPD350      0.0902
      8  C8        65.9350   45.0240   10.2850 C.3   350  SPD350      0.0393
      9  C9        65.7540   45.7360   11.5500 C.3   350  SPD350      0.1108
     10  N10       66.5480   47.0270   11.5690 N.3   350  SPD350     -0.1313
@<TRIPOS>BOND
     1     1     2    1
     2     2     3    1
     3     3     4    1
     4     4     5    1
     5     5     6    1
     6     6     7    1
     7     7     8    1
     8     8     9    1
     9     9    10    1
