@<TRIPOS>MOLECULE
1pow_TPP_A_1.pdb
 26 27 0 0 0
SMALL
GASTEIGER

@<TRIPOS>ATOM
      1  N1'       16.7780   67.5520   -1.5640 N.2   611  TPP611     -0.1861
      2  C2'       16.5510   67.8430   -0.2940 C.1   611  TPP611      0.0663
      3  CM2       16.5700   69.2980    0.1600 C.3   611  TPP611      0.1291
      4  N3'       16.3000   66.8810    0.5840 N.2   611  TPP611     -0.3368
      5  C4'       16.2250   65.5860    0.2030 C.2   611  TPP611      0.2292
      6  N4'       15.7300   64.7000    1.0800 N.pl3 611  TPP611     -0.0925
      7  C5'       16.5600   65.2350   -1.1220 C.2   611  TPP611      0.0654
      8  C6'       16.7500   66.2840   -2.0200 C.2   611  TPP611      0.1115
      9  C7'       16.7300   63.7830   -1.6290 C.3   611  TPP611      0.1237
     10  N3        17.9050   63.0770   -1.0790 N.pl3 611  TPP611     -0.2970
     11  C2        17.7710   62.3310   -0.0120 C.3   611  TPP611      0.1543
     12  S1        19.2930   61.5890    0.5060 S.3   611  TPP611     -0.0951
     13  C5        20.0230   62.3820   -0.8920 C.2   611  TPP611      0.0164
     14  C4        19.1360   63.1260   -1.5670 C.2   611  TPP611      0.0279
     15  CM4       19.4820   63.9460   -2.7780 C.3   611  TPP611      0.0473
     16  C6        21.4760   62.1950   -1.2240 C.3   611  TPP611      0.0661
     17  C7        22.3420   62.4260    0.0230 C.3   611  TPP611      0.1544
     18  O7        23.6710   63.0010   -0.4180 O.3   611  TPP611     -0.3134
     19  PA        24.8150   63.2660    0.5310 P.3   611  TPP611      0.2230
     20  O1A       26.0150   63.4940   -0.2630 O.2   611  TPP611     -0.5169
     21  O2A       24.4170   64.2990    1.4620 O.3   611  TPP611     -0.4370
     22  O3A       25.0310   61.8560    1.3010 O.3   611  TPP611     -0.2261
     23  PB        25.5900   60.3980    0.9300 P.3   611  TPP611      0.5373
     24  O1B       24.4380   59.5510    0.7160 O.3   611  TPP611     -0.1143
     25  O2B       26.3660   60.0280    2.0880 O.3   611  TPP611     -0.1143
     26  O3B       26.4200   60.5920   -0.2510 O.2   611  TPP611     -0.2221
@<TRIPOS>BOND
     1    15    14    1
     2     8     1    1
     3     8     7    2
     4     9     7    1
     5     9    10    1
     6    14    10    1
     7    14    13    2
     8     1     2    2
     9    16    13    1
    10    16    17    1
    11     7     5    1
    12    10    11    1
    13    13    12    1
    14    18    17    1
    15    18    19    1
    16     2     3    1
    17     2     4    2
    18    20    19    2
    19    26    23    2
    20    11    12    1
    21     5     4    2
    22     5     6    1
    23    19    22    1
    24    19    21    1
    25    24    23    1
    26    23    22    1
    27    23    25    1
