@<TRIPOS>MOLECULE
1pox_TPP_A_1.pdb
 26 27 0 0 0
SMALL
GASTEIGER

@<TRIPOS>ATOM
      1  N1'       16.7500   67.4650   -1.7200 N.2   611  TPP611     -0.1861
      2  C2'       16.5610   67.8060   -0.4470 C.1   611  TPP611      0.0663
      3  CM2       16.6420   69.2680   -0.0240 C.3   611  TPP611      0.1291
      4  N3'       16.3080   66.8870    0.4850 N.2   611  TPP611     -0.3368
      5  C4'       16.2330   65.5730    0.1710 C.2   611  TPP611      0.2292
      6  N4'       15.9500   64.6960    1.1550 N.pl3 611  TPP611     -0.0925
      7  C5'       16.5170   65.1800   -1.1550 C.2   611  TPP611      0.0654
      8  C6'       16.7400   66.1800   -2.1070 C.2   611  TPP611      0.1115
      9  C7'       16.6050   63.7080   -1.6010 C.3   611  TPP611      0.1237
     10  N3        17.8010   63.0600   -1.0180 N.pl3 611  TPP611     -0.2970
     11  C2        17.6720   62.3150    0.0500 C.3   611  TPP611      0.1543
     12  S1        19.2050   61.6030    0.5360 S.3   611  TPP611     -0.0951
     13  C5        19.9660   62.4690   -0.7920 C.2   611  TPP611      0.0164
     14  C4        19.0500   63.1490   -1.4970 C.2   611  TPP611      0.0279
     15  CM4       19.4180   63.9360   -2.7310 C.3   611  TPP611      0.0473
     16  C6        21.4420   62.4020   -1.0750 C.3   611  TPP611      0.0661
     17  C7        22.2990   62.6290    0.1630 C.3   611  TPP611      0.1544
     18  O7        23.6860   62.9750   -0.3490 O.3   611  TPP611     -0.3134
     19  PA        24.9110   63.1930    0.5610 P.3   611  TPP611      0.2230
     20  O1A       26.0960   63.3350   -0.2890 O.2   611  TPP611     -0.5169
     21  O2A       24.6350   64.2600    1.5010 O.3   611  TPP611     -0.4370
     22  O3A       25.0570   61.8070    1.3430 O.3   611  TPP611     -0.2261
     23  PB        25.6280   60.3400    1.0160 P.3   611  TPP611      0.5373
     24  O1B       24.4690   59.4910    0.8600 O.3   611  TPP611     -0.1143
     25  O2B       26.3890   60.0790    2.2310 O.3   611  TPP611     -0.1143
     26  O3B       26.4970   60.5130   -0.1840 O.2   611  TPP611     -0.2221
@<TRIPOS>BOND
     1    15    14    1
     2     8     1    1
     3     8     7    2
     4     1     2    2
     5     9     7    1
     6     9    10    1
     7    14    10    1
     8    14    13    2
     9     7     5    1
    10    16    13    1
    11    16    17    1
    12    10    11    1
    13    13    12    1
    14     2     3    1
    15     2     4    2
    16    18    17    1
    17    18    19    1
    18    20    19    2
    19    26    23    2
    20    11    12    1
    21     5     4    2
    22     5     6    1
    23    19    22    1
    24    19    21    1
    25    24    23    1
    26    23    22    1
    27    23    25    1
