@<TRIPOS>MOLECULE
1poy_SPD_1_1.pdb
 10 9 0 0 0
SMALL
GASTEIGER

@<TRIPOS>ATOM
      1  N1        19.1390    1.4760   13.1780 N.3   400  SPD400     -0.1314
      2  C2        20.2550    0.5190   13.2970 C.3   400  SPD400      0.1094
      3  C3        21.0450    0.4560   12.0170 C.3   400  SPD400      0.0220
      4  C4        21.5970   -0.9260   11.8440 C.3   400  SPD400      0.0203
      5  C5        23.1090   -0.9320   11.7890 C.3   400  SPD400      0.0887
      6  N6        23.6240   -2.2750   11.6910 N.3   400  SPD400     -0.2180
      7  C7        24.7210   -2.1830   12.5740 C.3   400  SPD400      0.0902
      8  C8        26.0680   -2.2100   11.9130 C.3   400  SPD400      0.0393
      9  C9        27.1560   -2.2320   12.9720 C.3   400  SPD400      0.1108
     10  N10       28.4530   -1.7620   12.4440 N.3   400  SPD400     -0.1313
@<TRIPOS>BOND
     1     6     5    1
     2     6     7    1
     3     5     4    1
     4     4     3    1
     5     8     7    1
     6     8     9    1
     7     3     2    1
     8    10     9    1
     9     1     2    1
