@<TRIPOS>MOLECULE
1pp9_HEC_D_1.pdb
 43 50 0 0 0
SMALL
GASTEIGER

@<TRIPOS>ATOM
      1 FE         49.9060   93.1680   29.0890 Fe    501  HEC501      0.0000
      2  CHA       52.5640   91.7740   30.6360 C.2   501  HEC501      0.0000
      3  CHB       50.2220   95.8850   31.0860 C.2   501  HEC501      0.0000
      4  CHC       47.2900   94.5820   27.5710 C.2   501  HEC501      0.0000
      5  CHD       49.3850   90.2930   27.3230 C.2   501  HEC501      0.0000
      6  NA        51.1830   93.7530   30.4870 N.2   501  HEC501      0.0000
      7  C1A       52.2380   93.0400   31.0300 C.2   501  HEC501      0.0000
      8  C2A       52.8610   93.8000   32.1420 C.2   501  HEC501      0.0000
      9  C3A       52.1610   94.9920   32.2510 C.2   501  HEC501      0.0000
     10  C4A       51.1560   94.9310   31.2230 C.2   501  HEC501      0.0000
     11  CMA       52.3700   96.1670   33.2080 C.3   501  HEC501      0.0000
     12  CAA       53.9740   93.2840   33.0300 C.3   501  HEC501      0.0000
     13  CBA       55.3740   93.4710   32.4960 C.3   501  HEC501      0.0000
     14  CGA       56.4430   93.0950   33.5060 C.2   501  HEC501      0.0000
     15  O1A       56.4970   91.9080   33.9050 O.co2 501  HEC501      0.0000
     16  O2A       57.2220   93.9970   33.8780 O.co2 501  HEC501      0.0000
     17  NB        48.9610   94.8690   29.2740 N.ar  501  HEC501      0.0000
     18  C1B       49.1670   95.8560   30.2420 C.ar  501  HEC501      0.0000
     19  C2B       48.1720   96.9140   30.1730 C.ar  501  HEC501      0.0000
     20  C3B       47.4070   96.5990   29.1180 C.ar  501  HEC501      0.0000
     21  C4B       47.8850   95.3300   28.5450 C.ar  501  HEC501      0.0000
     22  CMB       47.9550   98.0510   31.1380 C.3   501  HEC501      0.0000
     23  CAB       46.1880   97.2680   28.5290 C.3   501  HEC501      0.0000
     24  CBB       46.6390   98.5750   27.8780 C.3   501  HEC501      0.0000
     25  NC        48.6500   92.5660   27.6910 N.2   501  HEC501      0.0000
     26  C1C       47.6160   93.3100   27.1590 C.2   501  HEC501      0.0000
     27  C2C       46.8100   92.5220   26.2260 C.2   501  HEC501      0.0000
     28  C3C       47.3510   91.2840   26.1730 C.2   501  HEC501      0.0000
     29  C4C       48.5260   91.3220   27.0810 C.2   501  HEC501      0.0000
     30  CMC       45.5320   92.9330   25.5340 C.3   501  HEC501      0.0000
     31  CAC       46.9040   90.0010   25.5180 C.3   501  HEC501      0.0000
     32  CBC       46.7700   90.2080   24.0190 C.3   501  HEC501      0.0000
     33  ND        50.7480   91.4050   29.0080 N.ar  501  HEC501      0.0000
     34  C1D       50.4190   90.3220   28.2070 C.ar  501  HEC501      0.0000
     35  C2D       51.3890   89.2250   28.3700 C.ar  501  HEC501      0.0000
     36  C3D       52.2880   89.6140   29.3120 C.ar  501  HEC501      0.0000
     37  C4D       51.8730   90.9710   29.7240 C.ar  501  HEC501      0.0000
     38  CMD       51.2880   87.9120   27.6290 C.3   501  HEC501      0.0000
     39  CAD       53.5320   88.8660   29.7970 C.3   501  HEC501      0.0000
     40  CBD       54.7760   89.4850   29.1670 C.3   501  HEC501      0.0000
     41  CGD       56.0660   88.7470   29.4990 C.2   501  HEC501      0.0000
     42  O1D       56.8950   88.5680   28.5790 O.co2 501  HEC501      0.0000
     43  O2D       56.2550   88.3590   30.6700 O.co2 501  HEC501      0.0000
@<TRIPOS>BOND
     1    32    31    1
     2    31    28    1
     3    30    27    1
     4    28    27    2
     5    28    29    1
     6    27    26    1
     7    29     5    1
     8    29    25    2
     9    26     4    2
    10    26    25    1
    11     5    34    2
    12     4    21    1
    13    38    35    1
    14    25     1    1
    15    24    23    1
    16    34    35   ar
    17    34    33   ar
    18    35    36   ar
    19    23    20    1
    20    21    20   ar
    21    21    17   ar
    22    42    41   ar
    23    33     1    1
    24    33    37   ar
    25     1    17    1
    26     1     6    1
    27    20    19   ar
    28    40    41    1
    29    40    39    1
    30    17    18   ar
    31    36    37   ar
    32    36    39    1
    33    41    43   ar
    34    37     2    2
    35    19    18   ar
    36    19    22    1
    37    18     3    1
    38     6     7    2
    39     6    10    1
    40     2     7    1
    41     7     8    1
    42     3    10    2
    43    10     9    1
    44     8     9    2
    45     8    12    1
    46     9    11    1
    47    13    12    1
    48    13    14    1
    49    14    16   ar
    50    14    15   ar
