@<TRIPOS>MOLECULE
1pp9_HEM_C_1.pdb
 43 50 0 0 0
SMALL
GASTEIGER

@<TRIPOS>ATOM
      1  CHA       53.1150   91.1610   59.6100 C.2   501  HEM501      0.0000
      2  CHB       56.8250   92.7600   62.3190 C.2   501  HEM501      0.0000
      3  CHC       54.2300   92.1480   66.3130 C.2   501  HEM501      0.0000
      4  CHD       50.6030   90.5640   63.5630 C.2   501  HEM501      0.0000
      5  C1A       54.3890   91.6320   59.9990 C.ar  501  HEM501      0.0000
      6  C2A       55.5230   92.0240   59.1150 C.ar  501  HEM501      0.0000
      7  C3A       56.5880   92.4110   59.8600 C.ar  501  HEM501      0.0000
      8  C4A       56.0690   92.3450   61.2360 C.ar  501  HEM501      0.0000
      9  CMA       57.9220   92.8860   59.3510 C.3   501  HEM501      0.0000
     10  CAA       55.4980   92.1480   57.6110 C.3   501  HEM501      0.0000
     11  CBA       54.6770   93.3780   57.2780 C.3   501  HEM501      0.0000
     12  CGA       54.2990   93.4640   55.8090 C.2   501  HEM501      0.0000
     13  O1A       55.1450   93.8720   54.9860 O.co2 501  HEM501      0.0000
     14  O2A       53.1460   93.1250   55.4850 O.co2 501  HEM501      0.0000
     15  C1B       56.4410   92.7590   63.6590 C.2   501  HEM501      0.0000
     16  C2B       57.3090   93.0980   64.8080 C.2   501  HEM501      0.0000
     17  C3B       56.5720   92.9510   65.9560 C.2   501  HEM501      0.0000
     18  C4B       55.2510   92.4890   65.4990 C.2   501  HEM501      0.0000
     19  CMB       58.7630   93.5820   64.7410 C.3   501  HEM501      0.0000
     20  CAB       56.9750   93.1920   67.2500 C.3   501  HEM501      0.0000
     21  CBB       58.3120   92.8540   67.9360 C.3   501  HEM501      0.0000
     22  C1C       53.0230   91.5710   65.9400 C.ar  501  HEM501      0.0000
     23  C2C       51.9350   91.0900   66.8380 C.ar  501  HEM501      0.0000
     24  C3C       50.9590   90.6270   65.9890 C.ar  501  HEM501      0.0000
     25  C4C       51.4220   90.8590   64.6580 C.ar  501  HEM501      0.0000
     26  CMC       51.8720   91.1320   68.3480 C.3   501  HEM501      0.0000
     27  CAC       49.7470   90.0580   66.2200 C.3   501  HEM501      0.0000
     28  CBC       49.2100   89.5500   67.5660 C.3   501  HEM501      0.0000
     29  C1D       50.8880   90.6260   62.2510 C.2   501  HEM501      0.0000
     30  C2D       50.0030   90.1420   61.1930 C.2   501  HEM501      0.0000
     31  C3D       50.6930   90.3860   60.0540 C.2   501  HEM501      0.0000
     32  C4D       52.0380   90.9280   60.4510 C.2   501  HEM501      0.0000
     33  CMD       48.6720   89.4350   61.3860 C.3   501  HEM501      0.0000
     34  CAD       50.2780   90.0630   58.6270 C.3   501  HEM501      0.0000
     35  CBD       49.6530   91.2340   57.8720 C.3   501  HEM501      0.0000
     36  CGD       50.6850   92.2060   57.3390 C.2   501  HEM501      0.0000
     37  O1D       50.6110   93.4160   57.6600 O.co2 501  HEM501      0.0000
     38  O2D       51.5730   91.7470   56.5940 O.co2 501  HEM501      0.0000
     39  NA        54.7650   91.8780   61.3180 N.ar  501  HEM501      0.0000
     40  NB        55.1800   92.3310   64.0900 N.2   501  HEM501      0.0000
     41  NC        52.6610   91.3830   64.6170 N.ar  501  HEM501      0.0000
     42  ND        52.1440   91.0740   61.8150 N.2   501  HEM501      0.0000
     43 FE         53.6780   91.6660   62.9560 Fe    501  HEM501      0.0000
@<TRIPOS>BOND
     1    13    12   ar
     2    14    12   ar
     3    12    11    1
     4    38    36   ar
     5    11    10    1
     6    36    37   ar
     7    36    35    1
     8    10     6    1
     9    35    34    1
    10    34    31    1
    11     6     7   ar
    12     6     5   ar
    13     9     7    1
    14     1     5    2
    15     1    32    1
    16     7     8   ar
    17     5    39   ar
    18    31    32    1
    19    31    30    2
    20    32    42    2
    21    30    33    1
    22    30    29    1
    23     8    39   ar
    24     8     2    2
    25    39    43    1
    26    42    29    1
    27    42    43    1
    28    29     4    2
    29     2    15    1
    30    43    40    1
    31    43    41    1
    32     4    25    1
    33    15    40    2
    34    15    16    1
    35    40    18    1
    36    41    25   ar
    37    41    22   ar
    38    25    24   ar
    39    19    16    1
    40    16    17    2
    41    18    17    1
    42    18     3    2
    43    22     3    1
    44    22    23   ar
    45    17    20    1
    46    24    27    1
    47    24    23   ar
    48    27    28    1
    49    23    26    1
    50    20    21    1
