@<TRIPOS>MOLECULE
1pp9_SMA_C_1.pdb
 37 38 0 0 0
SMALL
GASTEIGER

@<TRIPOS>ATOM
      1  C2        69.0450   87.2880   55.9780 C.ar  2001  SMA2001     0.1220
      2  C3        69.9650   86.5960   55.2040 C.ar  2001  SMA2001     0.0475
      3  C3M       71.3270   86.2340   55.6950 C.3   2001  SMA2001     0.0373
      4  C4        69.6120   86.1830   53.7950 C.ar  2001  SMA2001     0.2002
      5  C4A       68.2370   86.5880   53.3430 C.ar  2001  SMA2001     0.1105
      6  C5        67.7070   86.3020   52.0130 C.ar  2001  SMA2001     0.1479
      7  C5M       68.1750   85.3100   49.8360 C.3   2001  SMA2001     0.2525
      8  C6        66.3780   86.7160   51.6570 C.ar  2001  SMA2001     0.0774
      9  C7        65.5520   87.4100   52.6080 C.ar  2001  SMA2001     0.1835
     10  C7M       63.6610   87.6800   51.0840 C.3   2001  SMA2001     0.2526
     11  C8        66.0570   87.7010   53.9230 C.ar  2001  SMA2001     0.2636
     12  C8A       67.3720   87.2940   54.2510 C.ar  2001  SMA2001     0.1925
     13  C9        69.1730   87.8400   57.3520 C.3   2001  SMA2001     0.0644
     14  C10       69.2720   86.9240   58.5100 C.3   2001  SMA2001     0.0104
     15  C11       68.9320   87.7520   59.7600 C.3   2001  SMA2001     0.0278
     16  C12       68.8910   86.8930   61.0400 C.3   2001  SMA2001     0.1179
     17  C13       67.7740   85.8160   61.0230 C.3   2001  SMA2001     0.0586
     18  C14       67.8010   85.0230   62.3600 C.3   2001  SMA2001     0.1395
     19  C15       67.0870   83.7160   62.2160 C.2   2001  SMA2001     0.0029
     20  C16       65.9020   83.4200   62.7430 C.2   2001  SMA2001    -0.0022
     21  C17       65.2480   82.1750   62.5000 C.2   2001  SMA2001    -0.0006
     22  C18       64.0550   81.8960   63.0410 C.2   2001  SMA2001    -0.0046
     23  C19       63.2660   80.6860   62.8220 C.2   2001  SMA2001    -0.0261
     24  C20       62.1030   80.5470   63.4940 C.2   2001  SMA2001    -0.0300
     25  C21       61.1560   79.4090   63.4170 C.3   2001  SMA2001     0.0304
     26  C22       69.9220   88.9060   59.9610 C.3   2001  SMA2001     0.0025
     27  C23       70.8840   86.5680   62.3880 C.3   2001  SMA2001     0.1740
     28  C24       66.4000   86.4650   60.7610 C.3   2001  SMA2001     0.0054
     29  C25       67.7750   85.6880   64.6680 C.3   2001  SMA2001     0.1745
     30  C26       63.7810   79.6630   61.8680 C.3   2001  SMA2001     0.0307
     31  O1        67.7780   87.6390   55.5360 O.2   2001  SMA2001    -0.4544
     32  O4        70.4240   85.5760   53.0790 O.2   2001  SMA2001    -0.2866
     33  O5        68.5870   85.6280   51.1700 O.3   2001  SMA2001    -0.4711
     34  O7        64.2530   87.8520   52.3790 O.3   2001  SMA2001    -0.4680
     35  O8        65.2250   88.3730   54.8070 O.3   2001  SMA2001    -0.2800
     36  O12       70.1600   86.2140   61.2100 O.3   2001  SMA2001    -0.3535
     37  O14       67.2320   85.8850   63.3710 O.3   2001  SMA2001    -0.3491
@<TRIPOS>BOND
     1     7    33    1
     2    10    34    1
     3    33     6    1
     4     8     6   ar
     5     8     9   ar
     6     6     5   ar
     7    34     9    1
     8     9    11   ar
     9    32     4    2
    10     5     4   ar
    11     5    12   ar
    12     4     2   ar
    13    11    12   ar
    14    11    35    1
    15    12    31   ar
    16     2     3    1
    17     2     1   ar
    18    31     1   ar
    19     1    13    1
    20    13    14    1
    21    14    15    1
    22    15    26    1
    23    15    16    1
    24    28    17    1
    25    17    16    1
    26    17    18    1
    27    16    36    1
    28    36    27    1
    29    30    23    1
    30    19    18    1
    31    19    20    2
    32    18    37    1
    33    21    20    1
    34    21    22    2
    35    23    22    1
    36    23    24    2
    37    37    29    1
    38    25    24    1
