@<TRIPOS>MOLECULE
1pp9_UQ_C_1.pdb
 14 14 0 0 0
SMALL
GASTEIGER

@<TRIPOS>ATOM
      1  C1        63.0470  105.2520   80.3250 C.2   2002  UQ2002      0.2282
      2  C2        64.4840  105.1750   80.9560 C.2   2002  UQ2002      0.2140
      3  C3        64.7430  104.3070   82.0460 C.2   2002  UQ2002      0.2140
      4  C4        63.5670  103.4820   82.6840 C.2   2002  UQ2002      0.2282
      5  C5        62.1540  103.5630   82.0520 C.2   2002  UQ2002      0.0195
      6  C6        61.8970  104.4310   80.9680 C.2   2002  UQ2002      0.0195
      7  CM5       61.0190  102.7120   82.7090 C.3   2002  UQ2002      0.0343
      8  CM3       66.2400  104.4660   84.0410 C.3   2002  UQ2002      0.2528
      9  CM2       65.4140  107.3740   80.3240 C.3   2002  UQ2002      0.2528
     10  C7        60.4760  104.5410   80.3170 C.3   2002  UQ2002      0.0343
     11  O2        65.5540  105.9260   80.3640 O.2   2002  UQ2002     -0.4652
     12  O3        66.0660  104.2260   82.6160 O.2   2002  UQ2002     -0.4652
     13  O4        63.7630  102.7140   83.6470 O.2   2002  UQ2002     -0.2836
     14  O1        62.8120  106.0120   79.3520 O.2   2002  UQ2002     -0.2836
@<TRIPOS>BOND
     1    14     1    2
     2    10     6    1
     3     9    11    1
     4     1     2    1
     5     1     6    1
     6    11     2    1
     7     2     3    2
     8     6     5    2
     9     3    12    1
    10     3     4    1
    11     5     4    1
    12     5     7    1
    13    12     8    1
    14     4    13    2
