@<TRIPOS>MOLECULE
1ppb_0G6_H_1.pdb
 30 31 0 0 0
SMALL
GASTEIGER

@<TRIPOS>ATOM
      1  N          6.9120   14.3890   17.8350 N.3     1  0G61       -0.1228
      2  CA         6.6330   15.1100   16.6140 C.3     1  0G61        0.1721
      3  C          5.7100   16.1760   17.1530 C.2     1  0G61        0.2437
      4  O          6.1100   16.7270   18.1960 O.2     1  0G61       -0.2733
      5  CB         7.9220   15.7590   16.0890 C.3     1  0G61        0.0547
      6  CG         7.7060   16.6470   14.8820 C.ar    1  0G61       -0.0202
      7  CD1        7.2460   16.1040   13.6950 C.ar    1  0G61       -0.0042
      8  CD2        7.9990   17.9880   14.9810 C.ar    1  0G61       -0.0042
      9  CE1        7.0900   16.9270   12.5900 C.ar    1  0G61       -0.0003
     10  CE2        7.8460   18.8020   13.8740 C.ar    1  0G61       -0.0003
     11  CZ         7.3940   18.2790   12.6760 C.ar    1  0G61       -0.0000
     12  N1         4.5170   16.5050   16.5760 N.am    1  0G61       -0.2718
     13  CA1        3.7100   17.6200   17.0700 C.3     1  0G61        0.1535
     14  C1         3.1460   17.2600   18.4440 C.2     1  0G61        0.2595
     15  O1         2.9160   16.0840   18.6790 O.2     1  0G61       -0.2716
     16  CB1        2.6850   17.8000   15.9950 C.3     1  0G61        0.0310
     17  CG1        3.1310   16.9100   14.8510 C.3     1  0G61        0.0237
     18  CD         3.8140   15.7730   15.5250 C.3     1  0G61        0.0939
     19  N2         3.0300   18.1750   19.3980 N.am    1  0G61       -0.2032
     20  CA2        2.2880   17.9110   20.5990 C.3     1  0G61        0.1257
     21  C2         0.9420   18.7420   20.6280 C.3     1  0G61        0.1718
     22  O2         0.0580   18.0280   21.5120 O.3     1  0G61       -0.2213
     23  CB2        3.1470   18.1760   21.8380 C.3     1  0G61        0.0280
     24  CG2        4.3610   17.2600   22.0410 C.3     1  0G61        0.0488
     25  CD3        5.2970   17.8120   23.1280 C.3     1  0G61        0.2205
     26  NE         6.3710   16.8660   23.4430 N.pl3   1  0G61       -0.0865
     27  CZ1        7.3880   17.0620   24.3030 C.cat   1  0G61        0.5346
     28  NH1        7.6140   18.2470   24.8730 N.pl3   1  0G61        0.1354
     29  NH2        8.1920   16.0330   24.5740 N.pl3   1  0G61        0.1354
     30  C3         0.1130   18.9540   19.3320 C.3     1  0G61        0.0373
@<TRIPOS>BOND
     1     9    11   ar
     2     9     7   ar
     3    11    10   ar
     4     7     6   ar
     5    10     8   ar
     6    17    18    1
     7    17    16    1
     8     6     8   ar
     9     6     5    1
    10    18    12    1
    11    16    13    1
    12     5     2    1
    13    12    13    1
    14    12     3   am
    15     2     3    1
    16     2     1    1
    17    13    14    1
    18     3     4    2
    19    14    15    2
    20    14    19   am
    21    30    21    1
    22    19    20    1
    23    20    21    1
    24    20    23    1
    25    21    22    1
    26    23    24    1
    27    24    25    1
    28    25    26    1
    29    26    27    2
    30    27    29    1
    31    27    28    1
