@<TRIPOS>MOLECULE
1ppc_MID_E_1.pdb
 37 40 0 0 0
SMALL
GASTEIGER

@<TRIPOS>ATOM
      1  S         -5.8270    4.7820   25.9170 S.O2    5  MID5        0.0773
      2  O1S       -6.8830    5.7670   26.4350 O.2     5  MID5       -0.1516
      3  O2S       -6.3850    3.3620   25.9520 O.2     5  MID5       -0.1516
      4  C1        -3.7610    3.9040   27.5800 C.ar    5  MID5        0.0200
      5  C2        -4.3660    4.9560   26.9430 C.ar    5  MID5        0.1236
      6  C3        -3.8740    6.2180   27.1290 C.ar    5  MID5        0.0200
      7  C4        -2.8230    6.4310   27.9910 C.ar    5  MID5        0.0014
      8  C5        -1.1660    5.6080   29.4710 C.ar    5  MID5        0.0000
      9  C6        -0.5380    4.5410   30.0870 C.ar    5  MID5        0.0000
     10  C7        -1.0030    3.2540   29.8900 C.ar    5  MID5        0.0000
     11  C8        -2.0960    3.0180   29.0710 C.ar    5  MID5        0.0000
     12  C9        -2.6860    4.0860   28.4240 C.ar    5  MID5        0.0013
     13  C10       -2.2320    5.3650   28.6300 C.ar    5  MID5        0.0001
     14  N         -5.5520    5.0200   24.2980 N.3     5  MID5       -0.0678
     15  CA        -4.6090    4.0870   23.7300 C.3     5  MID5        0.2017
     16  C         -3.2810    4.7140   23.3230 C.2     5  MID5        0.2615
     17  O         -2.9600    5.8630   23.6500 O.2     5  MID5       -0.2717
     18  N1        -2.5950    3.9030   22.4990 N.am    5  MID5       -0.1962
     19  CA1       -1.2700    4.1600   21.9520 C.3     5  MID5        0.1756
     20  CB        -0.4280    2.9070   22.1940 C.2     5  MID5        0.2458
     21  O1        -0.2020    2.1160   21.2720 O.2     5  MID5       -0.2730
     22  CB1       -1.3330    4.4800   20.4500 C.3     5  MID5        0.0574
     23  CG        -2.0020    5.8060   20.1500 C.ar    5  MID5       -0.0200
     24  CD1       -3.3810    5.9010   20.0920 C.ar    5  MID5       -0.0039
     25  CD2       -1.2360    6.9410   20.0230 C.ar    5  MID5       -0.0039
     26  CE1       -3.9930    7.1200   19.8710 C.ar    5  MID5        0.0077
     27  CE2       -1.8530    8.1550   19.7970 C.ar    5  MID5        0.0077
     28  CZ        -3.2370    8.2680   19.7390 C.ar    5  MID5        0.0975
     29  CF        -3.8330    9.5270   19.5790 C.2     5  MID5        0.4766
     30  NG1       -5.1270    9.7230   19.8940 N.pl3   5  MID5        0.2047
     31  NG2       -3.0670   10.5440   19.1670 N.pl3   5  MID5        0.2047
     32  N11        0.0740    2.6870   23.4200 N.am    5  MID5       -0.2782
     33  C21        0.0190    3.6720   24.4880 C.3     5  MID5        0.0934
     34  C31       -0.7040    3.0330   25.6500 C.3     5  MID5        0.0216
     35  C41        0.1550    1.8800   26.1460 C.3     5  MID5        0.0035
     36  C51        0.3010    0.9040   24.9820 C.3     5  MID5        0.0216
     37  C61        0.9050    1.5360   23.7450 C.3     5  MID5        0.0934
@<TRIPOS>BOND
     1    31    29    2
     2    29    28    1
     3    29    30    1
     4    28    27   ar
     5    28    26   ar
     6    27    25   ar
     7    26    24   ar
     8    25    23   ar
     9    24    23   ar
    10    23    22    1
    11    22    19    1
    12    21    20    2
    13    19    20    1
    14    19    18    1
    15    20    32   am
    16    18    16   am
    17    16    17    2
    18    16    15    1
    19    32    37    1
    20    32    33    1
    21    15    14    1
    22    37    36    1
    23    14     1    1
    24    33    34    1
    25    36    35    1
    26    34    35    1
    27     1     3    2
    28     1     2    2
    29     1     5    1
    30     5     6   ar
    31     5     4   ar
    32     6     7   ar
    33     4    12   ar
    34     7    13   ar
    35    12    13   ar
    36    12    11   ar
    37    13     8   ar
    38    11    10   ar
    39     8     9   ar
    40    10     9   ar
