@<TRIPOS>MOLECULE
1ppf_FUC_E_1.pdb
 10 10 0 0 0
SMALL
GASTEIGER

@<TRIPOS>ATOM
      1  C1        37.4690   50.4650  -10.0240 C.3   402  FUC402      0.1776
      2  C2        36.4120   49.3610   -9.9270 C.3   402  FUC402      0.2141
      3  C3        35.3490   49.7020   -8.8340 C.3   402  FUC402      0.2172
      4  C4        34.7230   51.0740   -9.1620 C.3   402  FUC402      0.2116
      5  C5        35.8330   52.1110   -9.1460 C.3   402  FUC402      0.1483
      6  C6        35.3110   53.5100   -9.4620 C.3   402  FUC402      0.0349
      7  O2        37.1500   48.1740   -9.5910 O.3   402  FUC402     -0.2176
      8  O3        34.2890   48.7660   -8.8870 O.3   402  FUC402     -0.2175
      9  O4        34.0250   51.0610  -10.4130 O.3   402  FUC402     -0.2177
     10  O5        36.8400   51.7350  -10.0960 O.3   402  FUC402     -0.3508
@<TRIPOS>BOND
     1     9     4    1
     2    10     1    1
     3    10     5    1
     4     1     2    1
     5     2     7    1
     6     2     3    1
     7     6     5    1
     8     4     5    1
     9     4     3    1
    10     8     3    1
