@<TRIPOS>MOLECULE
1ppg_III_I_1.pdb
 33 33 0 0 0
SMALL
GASTEIGER

@<TRIPOS>ATOM
      1  CA        -4.2460   45.6310   -2.4020 C.3     1  HMB1        0.0985
      2  CB        -4.2960   46.0500   -0.8830 C.3     1  HMB1        0.1192
      3  CG        -3.1200   45.5920    0.0390 C.2     1  HMB1        0.3176
      4  CE        -1.3320   44.1260    0.6550 C.3     1  HMB1        0.2556
      5  C         -5.2250   44.4780   -2.6390 C.2     1  HMB1        0.2423
      6  OD1       -2.9470   46.1420    1.1360 O.2     1  HMB1       -0.2501
      7  OD2       -2.3690   44.6250   -0.2120 O.3     1  HMB1       -0.4444
      8  O         -5.6320   43.9280   -1.5940 O.2     1  HMB1       -0.2733
      9  N         -5.4960   44.0720   -3.9320 N.am    2  ALA2       -0.1978
     10  CA        -6.3180   42.8130   -4.0330 C.3     2  ALA2        0.1728
     11  C         -5.4920   41.5190   -3.8580 C.2     2  ALA2        0.2616
     12  O         -4.7730   41.1120   -4.7710 O.2     2  ALA2       -0.2715
     13  CB        -7.1260   42.6800   -5.3000 C.3     2  ALA2        0.0334
     14  N         -5.5440   40.8600   -2.6980 N.am    3  ALA3       -0.1964
     15  CA        -4.8510   39.5980   -2.6500 C.3     3  ALA3        0.1713
     16  C         -5.8590   38.4400   -2.7010 C.2     3  ALA3        0.2458
     17  O         -6.6890   38.2900   -1.8170 O.2     3  ALA3       -0.2730
     18  CB        -4.0390   39.5890   -1.3460 C.3     3  ALA3        0.0333
     19  N         -5.6950   37.5650   -3.6140 N.am    4  PRO4       -0.2716
     20  CA        -6.5110   36.3060   -3.6950 C.3     4  PRO4        0.1535
     21  C         -6.3310   35.4210   -2.4660 C.2     4  PRO4        0.2595
     22  O         -5.1960   35.1970   -2.0820 O.2     4  PRO4       -0.2716
     23  CB        -6.0480   35.5970   -4.9690 C.3     4  PRO4        0.0310
     24  CG        -4.7600   36.2790   -5.3540 C.3     4  PRO4        0.0237
     25  CD        -4.8150   37.6910   -4.7640 C.3     4  PRO4        0.0939
     26  C         -7.5750   32.7240   -0.6320 C.3     5  VAL5        0.1718
     27  N         -7.3670   34.9630   -1.7950 N.am    5  VAL5       -0.2032
     28  O         -6.8930   31.9350    0.3840 O.3     5  VAL5       -0.2213
     29  CA        -7.1190   34.1830   -0.5670 C.3     5  VAL5        0.1255
     30  CB        -7.8510   34.8750    0.6070 C.3     5  VAL5        0.0225
     31  CG1       -7.3540   36.3350    0.7630 C.3     5  VAL5        0.0018
     32  CG2       -9.3760   34.8130    0.3900 C.3     5  VAL5        0.0018
     33  C1        -7.2050   32.1130   -1.9640 C.3     6  0QE6        0.0373
@<TRIPOS>BOND
     1    24    23    1
     2    24    25    1
     3    13    10    1
     4    23    20    1
     5    12    11    2
     6    25    19    1
     7    10     9    1
     8    10    11    1
     9     9     5   am
    10    11    14   am
    11    20    19    1
    12    20    21    1
    13    19    16   am
    14    16    15    1
    15    16    17    2
    16    14    15    1
    17    15    18    1
    18     5     1    1
    19     5     8    2
    20    21    22    2
    21    21    27   am
    22     1     2    1
    23    33    26    1
    24    27    29    1
    25     2     3    1
    26    26    29    1
    27    26    28    1
    28    29    30    1
    29     7     3    1
    30     7     4    1
    31     3     6    2
    32    32    30    1
    33    30    31    1
