@<TRIPOS>MOLECULE
1ppg_FUC_E_1.pdb
 10 10 0 0 0
SMALL
GASTEIGER

@<TRIPOS>ATOM
      1  C1       -28.3690   32.3020    9.2610 C.3   402  FUC402      0.1776
      2  C2       -28.7380   33.1500    8.0940 C.3   402  FUC402      0.2141
      3  C3       -27.6590   33.2500    7.0320 C.3   402  FUC402      0.2172
      4  C4       -27.2630   31.8010    6.6200 C.3   402  FUC402      0.2116
      5  C5       -26.9320   30.9690    7.8670 C.3   402  FUC402      0.1483
      6  C6       -26.7340   29.4850    7.5980 C.3   402  FUC402      0.0349
      7  O2       -29.1020   34.4010    8.6190 O.3   402  FUC402     -0.2176
      8  O3       -28.2770   33.9350    5.8860 O.3   402  FUC402     -0.2175
      9  O4       -28.3350   31.1680    5.9080 O.3   402  FUC402     -0.2177
     10  O5       -28.0400   31.0520    8.7280 O.3   402  FUC402     -0.3508
@<TRIPOS>BOND
     1     8     3    1
     2     9     4    1
     3     4     3    1
     4     4     5    1
     5     3     2    1
     6     6     5    1
     7     5    10    1
     8     2     7    1
     9     2     1    1
    10    10     1    1
