@<TRIPOS>MOLECULE
1ppg_MAN_E_1.pdb
 11 11 0 0 0
SMALL
GASTEIGER

@<TRIPOS>ATOM
      1  C1        -4.9100   11.9330    8.9700 C.3   418  MAN418      0.1777
      2  C2        -3.6960   11.1510    9.4990 C.3   418  MAN418      0.2141
      3  C3        -3.5180   11.3530   11.0110 C.3   418  MAN418      0.2173
      4  C4        -3.5440   12.8520   11.3400 C.3   418  MAN418      0.2142
      5  C5        -4.8780   13.4960   10.9300 C.3   418  MAN418      0.1810
      6  C6        -4.6630   14.9060   10.3460 C.3   418  MAN418      0.2141
      7  O2        -2.5350   11.6680    8.8420 O.3   418  MAN418     -0.2176
      8  O3        -2.2640   10.7890   11.4190 O.3   418  MAN418     -0.2175
      9  O4        -3.3000   13.0790   12.7340 O.3   418  MAN418     -0.2176
     10  O5        -5.5840   12.6390   10.0180 O.3   418  MAN418     -0.3481
     11  O6        -3.6440   14.8890    9.3350 O.3   418  MAN418     -0.2176
@<TRIPOS>BOND
     1     7     2    1
     2     1     2    1
     3     1    10    1
     4    11     6    1
     5     2     3    1
     6    10     5    1
     7     6     5    1
     8     5     4    1
     9     3     4    1
    10     3     8    1
    11     4     9    1
