@<TRIPOS>MOLECULE
1ppg_BMA_E_1.pdb
 11 11 0 0 0
SMALL
GASTEIGER

@<TRIPOS>ATOM
      1  C1        -5.7040    9.0630    5.0130 C.3   414  BMA414      0.1777
      2  C2        -5.9620   10.2810    5.9470 C.3   414  BMA414      0.2141
      3  C3        -5.3910   10.0720    7.3710 C.3   414  BMA414      0.2173
      4  C4        -5.8970    8.7320    7.8980 C.3   414  BMA414      0.2142
      5  C5        -5.3470    7.6690    6.9500 C.3   414  BMA414      0.1810
      6  C6        -5.3640    6.2370    7.5000 C.3   414  BMA414      0.2141
      7  O2        -7.3740   10.4940    6.0430 O.3   414  BMA414     -0.2176
      8  O3        -5.8360   11.0830    8.2820 O.3   414  BMA414     -0.2175
      9  O4        -5.4980    8.5290    9.2560 O.3   414  BMA414     -0.2176
     10  O5        -6.0040    7.8380    5.6940 O.3   414  BMA414     -0.3481
     11  O6        -4.1380    6.1470    8.2300 O.3   414  BMA414     -0.2176
@<TRIPOS>BOND
     1     1    10    1
     2     1     2    1
     3    10     5    1
     4     2     7    1
     5     2     3    1
     6     5     6    1
     7     5     4    1
     8     3     4    1
     9     3     8    1
    10     6    11    1
    11     4     9    1
