@<TRIPOS>MOLECULE
1pph_0ZG_E_1.pdb
 30 32 0 0 0
SMALL
GASTEIGER

@<TRIPOS>ATOM
      1  S         -5.9300    4.1070   23.9760 S.O2    1  0ZG1        0.0772
      2  O1S       -7.0380    5.0670   24.3810 O.2     1  0ZG1       -0.1516
      3  O2S       -6.4450    2.7280   23.5830 O.2     1  0ZG1       -0.1516
      4  C1        -4.8070    4.0070   25.3830 C.ar    1  0ZG1        0.1235
      5  C2        -4.4930    5.2050   26.0050 C.ar    1  0ZG1        0.0196
      6  C3        -3.5280    5.2410   26.9810 C.ar    1  0ZG1       -0.0029
      7  C4        -2.8870    4.0670   27.3290 C.ar    1  0ZG1       -0.0218
      8  C5        -3.2240    2.8500   26.7350 C.ar    1  0ZG1       -0.0029
      9  C6        -4.2000    2.8170   25.7530 C.ar    1  0ZG1        0.0196
     10  C         -1.7820    4.1410   28.3860 C.3     1  0ZG1        0.0310
     11  N1        -1.6380    3.6540   22.8470 N.am    1  0ZG1       -0.2784
     12  C21       -1.6090    2.3590   22.1590 C.3     1  0ZG1        0.0934
     13  C31       -1.2340    1.3360   23.2080 C.3     1  0ZG1        0.0216
     14  C41        0.0540    1.7490   23.9040 C.3     1  0ZG1        0.0035
     15  C51       -0.0730    3.1140   24.5260 C.3     1  0ZG1        0.0216
     16  C61       -0.3530    4.0580   23.3900 C.3     1  0ZG1        0.0934
     17  N         -5.1570    4.7810   22.6350 N.3     1  0ZG1       -0.0696
     18  CA        -3.9800    4.1220   22.0690 C.3     1  0ZG1        0.1780
     19  C7        -2.6780    4.5080   22.8020 C.2     1  0ZG1        0.2437
     20  O         -2.5950    5.6420   23.3040 O.2     1  0ZG1       -0.2733
     21  CB        -3.8870    4.4550   20.5690 C.3     1  0ZG1        0.0550
     22  CG        -3.0970    5.7160   20.1980 C.ar    1  0ZG1       -0.0200
     23  CD1       -3.7080    6.9530   20.1380 C.ar    1  0ZG1        0.0038
     24  CD2       -1.7560    5.6350   19.8730 C.ar    1  0ZG1       -0.0042
     25  CE1       -3.0700    8.1220   19.7700 C.ar    1  0ZG1        0.0972
     26  CE2       -1.0870    6.7790   19.5080 C.ar    1  0ZG1       -0.0001
     27  CZ        -1.7150    8.0070   19.4520 C.ar    1  0ZG1        0.0080
     28  CF        -3.7400    9.3550   19.6970 C.2     1  0ZG1        0.4766
     29  NG1       -3.0570   10.4510   19.3200 N.pl3   1  0ZG1        0.2047
     30  NG2       -5.0450    9.4360   20.0230 N.pl3   1  0ZG1        0.2047
@<TRIPOS>BOND
     1    29    28    2
     2    27    26   ar
     3    27    25   ar
     4    26    24   ar
     5    28    25    1
     6    28    30    1
     7    25    23   ar
     8    24    22   ar
     9    23    22   ar
    10    22    21    1
    11    21    18    1
    12    18    17    1
    13    18    19    1
    14    12    11    1
    15    12    13    1
    16    17     1    1
    17    19    11   am
    18    19    20    2
    19    11    16    1
    20    13    14    1
    21    16    15    1
    22     3     1    2
    23    14    15    1
    24     1     2    2
    25     1     4    1
    26     4     9   ar
    27     4     5   ar
    28     9     8   ar
    29     5     6   ar
    30     8     7   ar
    31     6     7   ar
    32     7    10    1
