@<TRIPOS>MOLECULE
1ppi_GLC_A_1.pdb
 11 11 0 0 0
SMALL
GASTEIGER

@<TRIPOS>ATOM
      1  C1        -6.4470   42.0170   20.3790 C.3   990  GLC990      0.1777
      2  C2        -7.2950   40.8830   19.8840 C.3   990  GLC990      0.2141
      3  C3        -8.3870   41.3930   19.0000 C.3   990  GLC990      0.2173
      4  C4        -9.1730   42.4470   19.7670 C.3   990  GLC990      0.2142
      5  C5        -8.2210   43.5230   20.3360 C.3   990  GLC990      0.1810
      6  C6        -8.9970   44.4170   21.2840 C.3   990  GLC990      0.2141
      7  O2        -6.5080   39.9780   19.1370 O.3   990  GLC990     -0.2176
      8  O3        -9.2470   40.3370   18.5590 O.3   990  GLC990     -0.2175
      9  O4       -10.0910   43.0080   18.8680 O.3   990  GLC990     -0.2176
     10  O5        -7.1860   42.9170   21.1020 O.3   990  GLC990     -0.3481
     11  O6        -8.6980   45.7520   20.9370 O.3   990  GLC990     -0.2176
@<TRIPOS>BOND
     1     8     3    1
     2     9     4    1
     3     3     4    1
     4     3     2    1
     5     7     2    1
     6     4     5    1
     7     2     1    1
     8     5    10    1
     9     5     6    1
    10     1    10    1
    11    11     6    1
