@<TRIPOS>MOLECULE
1ppi_BGC_A_1.pdb
 12 12 0 0 0
SMALL
GASTEIGER

@<TRIPOS>ATOM
      1  C2        -1.7700   44.9480    6.9870 C.3   993  BGC993      0.2434
      2  C3        -1.0550   45.2740    8.2450 C.3   993  BGC993      0.2199
      3  C4        -1.8850   44.7240    9.3540 C.3   993  BGC993      0.2144
      4  C5        -2.1290   43.2010    9.2180 C.3   993  BGC993      0.1836
      5  C6        -3.1180   42.6780   10.2650 C.3   993  BGC993      0.2142
      6  C1        -1.8550   43.4380    6.9130 C.3   993  BGC993      0.3024
      7  O1        -2.3840   43.0410    5.6870 O.3   993  BGC993     -0.1869
      8  O2        -1.0960   45.4900    5.8630 O.3   993  BGC993     -0.2148
      9  O3        -0.8810   46.6760    8.3050 O.3   993  BGC993     -0.2174
     10  O4        -1.1020   44.9690   10.4940 O.3   993  BGC993     -0.2176
     11  O5        -2.6850   42.9630    7.9420 O.3   993  BGC993     -0.3236
     12  O6        -4.4240   43.2090   10.0430 O.3   993  BGC993     -0.2176
@<TRIPOS>BOND
     1     7     6    1
     2     8     1    1
     3     6     1    1
     4     6    11    1
     5     1     2    1
     6    11     4    1
     7     2     9    1
     8     2     3    1
     9     4     3    1
    10     4     5    1
    11     3    10    1
    12    12     5    1
