@<TRIPOS>MOLECULE
1ppi_DAF_A_1.pdb
 21 22 0 0 0
SMALL
GASTEIGER

@<TRIPOS>ATOM
      1  C1        -1.8510   45.3880   11.6290 C.3   992  DAF992      0.1775
      2  C2        -1.2850   46.7440   12.0960 C.3   992  DAF992      0.2129
      3  C3         0.0420   46.6070   12.8510 C.3   992  DAF992      0.2028
      4  C4        -0.1160   45.5480   13.9590 C.3   992  DAF992      0.1331
      5  C5        -0.5370   44.2380   13.3000 C.3   992  DAF992      0.1339
      6  C6        -0.6720   43.1510   14.3080 C.3   992  DAF992      0.0336
      7  O2        -1.0150   47.6070   10.9840 O.3   992  DAF992     -0.2177
      8  O3         0.3800   47.8830   13.3550 O.3   992  DAF992     -0.2187
      9  O5        -1.8110   44.4050   12.6750 O.3   992  DAF992     -0.3519
     10  N4         1.1260   45.3300   14.7210 N.3   992  DAF992     -0.2087
     11  C1H        1.2800   46.1780   15.9140 C.3   992  DAF992      0.1273
     12  C2H        1.8920   45.3700   17.0860 C.3   992  DAF992      0.2049
     13  C3H        0.9000   44.2990   17.5130 C.3   992  DAF992      0.2179
     14  C4H       -0.3440   44.9730   18.1520 C.3   992  DAF992      0.2053
     15  C5H       -0.6410   46.3460   17.5390 C.2   992  DAF992      0.0180
     16  C6H       -0.0080   46.8420   16.4430 C.2   992  DAF992     -0.0100
     17  C7H       -1.6590   47.2330   18.2330 C.3   992  DAF992      0.2066
     18  O2H        3.1140   44.7660   16.7790 O.3   992  DAF992     -0.2184
     19  O3H        1.5420   43.4180   18.4160 O.3   992  DAF992     -0.2172
     20  O4H       -1.5160   44.1700   17.9860 O.3   992  DAF992     -0.2157
     21  O7H       -0.9520   47.9890   19.2210 O.3   992  DAF992     -0.2155
@<TRIPOS>BOND
     1     7     2    1
     2     1     2    1
     3     1     9    1
     4     2     3    1
     5     9     5    1
     6     3     8    1
     7     3     4    1
     8     5     4    1
     9     5     6    1
    10     4    10    1
    11    10    11    1
    12    11    16    1
    13    11    12    1
    14    16    15    2
    15    18    12    1
    16    12    13    1
    17    13    14    1
    18    13    19    1
    19    15    14    1
    20    15    17    1
    21    20    14    1
    22    17    21    1
