@<TRIPOS>MOLECULE
1ppj_SMA_C_1.pdb
 37 38 0 0 0
SMALL
GASTEIGER

@<TRIPOS>ATOM
      1  C2        62.2310   86.2550   57.0230 C.ar  2001  SMA2001     0.1220
      2  C3        63.0690   85.5460   56.1700 C.ar  2001  SMA2001     0.0475
      3  C3M       64.4510   85.1490   56.5730 C.3   2001  SMA2001     0.0373
      4  C4        62.6230   85.1510   54.7960 C.ar  2001  SMA2001     0.2002
      5  C4A       61.2300   85.5760   54.4410 C.ar  2001  SMA2001     0.1105
      6  C5        60.6120   85.3030   53.1490 C.ar  2001  SMA2001     0.1479
      7  C5M       60.8700   84.2910   50.9470 C.3   2001  SMA2001     0.2525
      8  C6        59.2740   85.7360   52.8750 C.ar  2001  SMA2001     0.0774
      9  C7        58.5130   86.4510   53.8650 C.ar  2001  SMA2001     0.1835
     10  C7M       56.6540   86.9900   52.3800 C.3   2001  SMA2001     0.2526
     11  C8        59.0990   86.7470   55.1510 C.ar  2001  SMA2001     0.2636
     12  C8A       60.4310   86.3090   55.4130 C.ar  2001  SMA2001     0.1925
     13  C9        62.5400   86.7510   58.3950 C.3   2001  SMA2001     0.0644
     14  C10       62.2870   85.8150   59.5470 C.3   2001  SMA2001     0.0104
     15  C11       62.1230   86.6470   60.8600 C.3   2001  SMA2001     0.0278
     16  C12       62.1970   85.7640   62.1420 C.3   2001  SMA2001     0.1179
     17  C13       61.0720   84.6810   62.2140 C.3   2001  SMA2001     0.0586
     18  C14       61.1610   83.8850   63.5600 C.3   2001  SMA2001     0.1395
     19  C15       60.4730   82.5490   63.4360 C.2   2001  SMA2001     0.0029
     20  C16       59.1860   82.3030   63.7260 C.2   2001  SMA2001    -0.0022
     21  C17       58.6540   80.9760   63.8840 C.2   2001  SMA2001    -0.0006
     22  C18       57.3600   80.7620   64.1770 C.2   2001  SMA2001    -0.0046
     23  C19       56.6380   79.5000   64.0090 C.2   2001  SMA2001    -0.0261
     24  C20       55.4820   79.3150   64.6900 C.2   2001  SMA2001    -0.0300
     25  C21       54.6170   78.1150   64.6510 C.3   2001  SMA2001     0.0304
     26  C22       63.1700   87.7790   60.9580 C.3   2001  SMA2001     0.0025
     27  C23       64.3280   85.4930   63.2810 C.3   2001  SMA2001     0.1740
     28  C24       59.6930   85.3380   62.0430 C.3   2001  SMA2001     0.0054
     29  C25       61.0620   84.4200   65.9240 C.3   2001  SMA2001     0.1745
     30  C26       57.2200   78.4740   63.0870 C.3   2001  SMA2001     0.0307
     31  O1        60.9260   86.6440   56.6790 O.2   2001  SMA2001    -0.4544
     32  O4        63.3800   84.5200   54.0270 O.2   2001  SMA2001    -0.2866
     33  O5        61.4080   84.6030   52.2390 O.3   2001  SMA2001    -0.4711
     34  O7        57.2090   86.9150   53.6990 O.3   2001  SMA2001    -0.4680
     35  O8        58.3360   87.4370   56.0670 O.3   2001  SMA2001    -0.2800
     36  O12       63.4870   85.0850   62.2040 O.3   2001  SMA2001    -0.3535
     37  O14       60.5950   84.7310   64.6040 O.3   2001  SMA2001    -0.3491
@<TRIPOS>BOND
     1     7    33    1
     2    33     6    1
     3    10    34    1
     4     8     6   ar
     5     8     9   ar
     6     6     5   ar
     7    34     9    1
     8     9    11   ar
     9    32     4    2
    10     5     4   ar
    11     5    12   ar
    12     4     2   ar
    13    11    12   ar
    14    11    35    1
    15    12    31   ar
    16     2     3    1
    17     2     1   ar
    18    31     1   ar
    19     1    13    1
    20    13    14    1
    21    14    15    1
    22    15    26    1
    23    15    16    1
    24    28    17    1
    25    16    36    1
    26    16    17    1
    27    36    27    1
    28    17    18    1
    29    30    23    1
    30    19    18    1
    31    19    20    2
    32    18    37    1
    33    20    21    1
    34    21    22    2
    35    23    22    1
    36    23    24    2
    37    37    29    1
    38    25    24    1
