@<TRIPOS>MOLECULE
1ppj_HEM_C_1.pdb
 43 50 0 0 0
SMALL
GASTEIGER

@<TRIPOS>ATOM
      1  CHA       46.5490   90.2120   61.3960 C.2   501  HEM501      0.0000
      2  CHB       50.3610   91.7360   63.9580 C.2   501  HEM501      0.0000
      3  CHC       47.8410   91.0900   68.0020 C.2   501  HEM501      0.0000
      4  CHD       44.0930   89.4860   65.4250 C.2   501  HEM501      0.0000
      5  C1A       47.7930   90.7270   61.7380 C.ar  501  HEM501      0.0000
      6  C2A       48.7870   91.1480   60.7850 C.ar  501  HEM501      0.0000
      7  C3A       49.9210   91.4500   61.4860 C.ar  501  HEM501      0.0000
      8  C4A       49.5280   91.3920   62.8910 C.ar  501  HEM501      0.0000
      9  CMA       51.3030   91.7860   60.9290 C.3   501  HEM501      0.0000
     10  CAA       48.5720   91.2730   59.2820 C.3   501  HEM501      0.0000
     11  CBA       47.9280   92.5870   58.8940 C.3   501  HEM501      0.0000
     12  CGA       47.5920   92.6570   57.4190 C.2   501  HEM501      0.0000
     13  O1A       48.4670   93.0750   56.6330 O.co2 501  HEM501      0.0000
     14  O2A       46.4550   92.2980   57.0570 O.co2 501  HEM501      0.0000
     15  C1B       50.0400   91.6770   65.2980 C.2   501  HEM501      0.0000
     16  C2B       50.9440   91.9870   66.4050 C.2   501  HEM501      0.0000
     17  C3B       50.2110   91.8440   67.5620 C.2   501  HEM501      0.0000
     18  C4B       48.8570   91.4170   67.1410 C.2   501  HEM501      0.0000
     19  CMB       52.3930   92.4580   66.2730 C.3   501  HEM501      0.0000
     20  CAB       50.6000   92.0760   68.8780 C.3   501  HEM501      0.0000
     21  CBB       51.9510   91.7510   69.4880 C.3   501  HEM501      0.0000
     22  C1C       46.6190   90.5240   67.6800 C.ar  501  HEM501      0.0000
     23  C2C       45.6260   90.0400   68.6390 C.ar  501  HEM501      0.0000
     24  C3C       44.5890   89.5290   67.8990 C.ar  501  HEM501      0.0000
     25  C4C       44.9470   89.7700   66.4990 C.ar  501  HEM501      0.0000
     26  CMC       45.7210   90.1230   70.1560 C.3   501  HEM501      0.0000
     27  CAC       43.3990   88.9200   68.2920 C.3   501  HEM501      0.0000
     28  CBC       42.8760   88.7350   69.7450 C.3   501  HEM501      0.0000
     29  C1D       44.3990   89.5880   64.1030 C.2   501  HEM501      0.0000
     30  C2D       43.5020   89.2140   63.0320 C.2   501  HEM501      0.0000
     31  C3D       44.1920   89.3940   61.8790 C.2   501  HEM501      0.0000
     32  C4D       45.5270   89.8900   62.2670 C.2   501  HEM501      0.0000
     33  CMD       42.0790   88.6830   63.1360 C.3   501  HEM501      0.0000
     34  CAD       43.6560   89.1310   60.4590 C.3   501  HEM501      0.0000
     35  CBD       43.0150   90.3680   59.8550 C.3   501  HEM501      0.0000
     36  CGD       44.0050   91.2570   59.1450 C.2   501  HEM501      0.0000
     37  O1D       43.9960   92.4730   59.4250 O.co2 501  HEM501      0.0000
     38  O2D       44.7900   90.7420   58.3160 O.co2 501  HEM501      0.0000
     39  NA        48.2350   90.9210   63.0310 N.ar  501  HEM501      0.0000
     40  NB        48.7690   91.2810   65.7570 N.2   501  HEM501      0.0000
     41  NC        46.2140   90.3100   66.3750 N.ar  501  HEM501      0.0000
     42  ND        45.6340   90.0400   63.6430 N.2   501  HEM501      0.0000
     43 FE         47.2120   90.6580   64.6960 Fe    501  HEM501      0.0000
@<TRIPOS>BOND
     1    13    12   ar
     2    14    12   ar
     3    12    11    1
     4    38    36   ar
     5    11    10    1
     6    36    37   ar
     7    36    35    1
     8    10     6    1
     9    35    34    1
    10    34    31    1
    11     6     7   ar
    12     6     5   ar
    13     9     7    1
    14     1     5    2
    15     1    32    1
    16     7     8   ar
    17     5    39   ar
    18    31    32    1
    19    31    30    2
    20    32    42    2
    21     8    39   ar
    22     8     2    2
    23    39    43    1
    24    30    33    1
    25    30    29    1
    26    42    29    1
    27    42    43    1
    28     2    15    1
    29    29     4    2
    30    43    40    1
    31    43    41    1
    32    15    40    2
    33    15    16    1
    34     4    25    1
    35    40    18    1
    36    19    16    1
    37    41    25   ar
    38    41    22   ar
    39    16    17    2
    40    25    24   ar
    41    18    17    1
    42    18     3    2
    43    17    20    1
    44    22     3    1
    45    22    23   ar
    46    24    27    1
    47    24    23   ar
    48    27    28    1
    49    23    26    1
    50    20    21    1
