@<TRIPOS>MOLECULE
1ppj_HEC_D_1.pdb
 43 50 0 0 0
SMALL
GASTEIGER

@<TRIPOS>ATOM
      1 FE         42.0570   92.8380   31.1590 Fe    501  HEC501      0.0000
      2  CHA       44.8100   91.4090   32.5200 C.2   501  HEC501      0.0000
      3  CHB       42.5950   95.5940   33.1300 C.2   501  HEC501      0.0000
      4  CHC       39.4170   94.3240   29.7370 C.2   501  HEC501      0.0000
      5  CHD       41.4140   89.9860   29.3610 C.2   501  HEC501      0.0000
      6  NA        43.4270   93.4260   32.4730 N.2   501  HEC501      0.0000
      7  C1A       44.5170   92.6860   32.9510 C.2   501  HEC501      0.0000
      8  C2A       45.2240   93.3860   33.9880 C.2   501  HEC501      0.0000
      9  C3A       44.6430   94.6110   34.1390 C.2   501  HEC501      0.0000
     10  C4A       43.5190   94.6090   33.1920 C.2   501  HEC501      0.0000
     11  CMA       45.0050   95.7160   35.1530 C.3   501  HEC501      0.0000
     12  CAA       46.3270   92.8060   34.8270 C.3   501  HEC501      0.0000
     13  CBA       47.7010   93.1790   34.3320 C.3   501  HEC501      0.0000
     14  CGA       48.7830   92.7500   35.2920 C.2   501  HEC501      0.0000
     15  O1A       48.8630   91.5430   35.6020 O.co2 501  HEC501      0.0000
     16  O2A       49.5530   93.6200   35.7410 O.co2 501  HEC501      0.0000
     17  NB        41.1530   94.5720   31.4390 N.ar  501  HEC501      0.0000
     18  C1B       41.4510   95.5670   32.3590 C.ar  501  HEC501      0.0000
     19  C2B       40.4390   96.6010   32.3270 C.ar  501  HEC501      0.0000
     20  C3B       39.5800   96.3020   31.3260 C.ar  501  HEC501      0.0000
     21  C4B       40.0420   95.0300   30.7630 C.ar  501  HEC501      0.0000
     22  CMB       40.2640   97.8180   33.2260 C.3   501  HEC501      0.0000
     23  CAB       38.3650   97.0660   30.7840 C.3   501  HEC501      0.0000
     24  CBB       38.7440   98.4740   30.3420 C.3   501  HEC501      0.0000
     25  NC        40.7360   92.2680   29.7920 N.2   501  HEC501      0.0000
     26  C1C       39.7150   93.0480   29.2680 C.2   501  HEC501      0.0000
     27  C2C       38.8550   92.3210   28.3550 C.2   501  HEC501      0.0000
     28  C3C       39.3710   91.0750   28.2620 C.2   501  HEC501      0.0000
     29  C4C       40.5520   91.0460   29.1690 C.2   501  HEC501      0.0000
     30  CMC       37.5100   92.7920   27.7660 C.3   501  HEC501      0.0000
     31  CAC       38.8770   89.7810   27.5880 C.3   501  HEC501      0.0000
     32  CBC       38.6350   89.9980   26.0930 C.3   501  HEC501      0.0000
     33  ND        42.9420   91.0840   30.9440 N.ar  501  HEC501      0.0000
     34  C1D       42.5460   90.0000   30.1760 C.ar  501  HEC501      0.0000
     35  C2D       43.5080   88.9150   30.3280 C.ar  501  HEC501      0.0000
     36  C3D       44.4590   89.3190   31.1960 C.ar  501  HEC501      0.0000
     37  C4D       44.0960   90.6590   31.5860 C.ar  501  HEC501      0.0000
     38  CMD       43.4870   87.5420   29.6660 C.3   501  HEC501      0.0000
     39  CAD       45.6790   88.5040   31.6390 C.3   501  HEC501      0.0000
     40  CBD       46.9460   89.0700   31.0040 C.3   501  HEC501      0.0000
     41  CGD       48.1830   88.2380   31.2850 C.2   501  HEC501      0.0000
     42  O1D       48.9600   88.0020   30.3340 O.co2 501  HEC501      0.0000
     43  O2D       48.3670   87.8320   32.4510 O.co2 501  HEC501      0.0000
@<TRIPOS>BOND
     1    32    31    1
     2    31    28    1
     3    30    27    1
     4    28    27    2
     5    28    29    1
     6    27    26    1
     7    29     5    1
     8    29    25    2
     9    26     4    2
    10    26    25    1
    11     5    34    2
    12    38    35    1
    13     4    21    1
    14    25     1    1
    15    34    35   ar
    16    34    33   ar
    17    35    36   ar
    18    42    41   ar
    19    24    23    1
    20    21    20   ar
    21    21    17   ar
    22    23    20    1
    23    33     1    1
    24    33    37   ar
    25    40    41    1
    26    40    39    1
    27     1    17    1
    28     1     6    1
    29    36    37   ar
    30    36    39    1
    31    41    43   ar
    32    20    19   ar
    33    17    18   ar
    34    37     2    2
    35    19    18   ar
    36    19    22    1
    37    18     3    1
    38     6     7    2
    39     6    10    1
    40     2     7    1
    41     7     8    1
    42     3    10    2
    43    10     9    1
    44     8     9    2
    45     8    12    1
    46     9    11    1
    47    13    12    1
    48    13    14    1
    49    14    15   ar
    50    14    16   ar
