@<TRIPOS>MOLECULE
1ppj_ANY_C_1.pdb
 37 38 0 0 0
SMALL
GASTEIGER

@<TRIPOS>ATOM
      1  C1        58.9380  105.2070   81.5540 C.ar  2002  ANY2002     0.2152
      2  C2        59.8870  106.2770   81.2310 C.ar  2002  ANY2002     0.1128
      3  C3        61.1610  106.3220   81.9270 C.ar  2002  ANY2002     0.0199
      4  C4        61.4820  105.3210   82.8720 C.ar  2002  ANY2002     0.0017
      5  C5        60.5810  104.2900   83.1820 C.ar  2002  ANY2002     0.0079
      6  C6        59.3120  104.2040   82.5230 C.ar  2002  ANY2002     0.0952
      7  C7        58.3560  103.0890   82.8600 C.2   2002  ANY2002     0.2685
      8  N1        59.4700  107.2310   80.2670 N.am  2002  ANY2002    -0.1683
      9  N2        57.1540  103.0640   82.1690 N.am  2002  ANY2002    -0.1881
     10  O1        57.7620  105.2150   80.8690 O.3   2002  ANY2002    -0.2850
     11  O3        58.6360  102.2030   83.7090 O.2   2002  ANY2002    -0.2682
     12  C9        56.1430  102.0680   82.3430 C.3   2002  ANY2002     0.2333
     13  C10       54.9370  102.5010   83.3020 C.3   2002  ANY2002     0.1996
     14  O4        55.3830  100.2530   81.0290 O.3   2002  ANY2002    -0.4472
     15  O5        53.7450  101.6660   83.0960 O.3   2002  ANY2002    -0.4498
     16  C11       54.2780   99.6530   80.3160 C.3   2002  ANY2002     0.2092
     17  C12       53.4550   98.7850   81.3790 C.3   2002  ANY2002     0.2189
     18  C13       52.7240   99.5700   82.5390 C.3   2002  ANY2002     0.1426
     19  C14       53.7400  100.3000   83.4000 C.2   2002  ANY2002     0.3201
     20  O6        54.5280   99.8600   84.2450 O.2   2002  ANY2002    -0.2500
     21  C15       51.8940   98.6230   83.4470 C.3   2002  ANY2002     0.0149
     22  C16       51.0200   99.3650   84.4510 C.3   2002  ANY2002     0.0007
     23  C20       55.5810  101.6210   80.9860 C.2   2002  ANY2002     0.3407
     24  O7        55.3350  102.2780   79.9700 O.2   2002  ANY2002    -0.2481
     25  O8        52.4500   98.0480   80.6170 O.3   2002  ANY2002    -0.4479
     26  C21       52.4960   96.6520   80.5290 C.2   2002  ANY2002     0.3164
     27  C22       51.3700   96.1290   79.6920 C.3   2002  ANY2002     0.0991
     28  C26       54.4460  103.9310   83.1060 C.3   2002  ANY2002     0.0498
     29  O9        53.3970   96.0320   81.1050 O.2   2002  ANY2002    -0.2501
     30  C27       54.8920   98.8250   79.2040 C.3   2002  ANY2002     0.0513
     31  C23       50.2100   95.9820   80.6660 C.3   2002  ANY2002     0.0116
     32  C17       50.4580   98.4030   85.4860 C.3   2002  ANY2002     0.0000
     33  C8        60.1630  108.3360   79.7710 C.2   2002  ANY2002     0.3247
     34  C25       51.4440   96.2540   78.1870 C.3   2002  ANY2002     0.0116
     35  C18       49.7200   99.1420   86.5820 C.3   2002  ANY2002     0.0000
     36  O2        61.3020  108.6290   80.1720 O.2   2002  ANY2002    -0.2629
     37  C19       48.6190   98.2870   87.1610 C.3   2002  ANY2002     0.0000
@<TRIPOS>BOND
     1    34    27    1
     2    30    16    1
     3    27    26    1
     4    27    31    1
     5    33    36    2
     6    33     8   am
     7    24    23    2
     8     8     2    1
     9    16    14    1
    10    16    17    1
    11    26    25    1
    12    26    29    2
    13    25    17    1
    14    10     1    1
    15    23    14    1
    16    23    12    1
    17     2     1   ar
    18     2     3   ar
    19    17    18    1
    20     1     6   ar
    21     3     4   ar
    22     9    12    1
    23     9     7   am
    24    12    13    1
    25     6     7    1
    26     6     5   ar
    27    18    19    1
    28    18    21    1
    29     7    11    2
    30     4     5   ar
    31    15    13    1
    32    15    19    1
    33    28    13    1
    34    19    20    2
    35    21    22    1
    36    22    32    1
    37    32    35    1
    38    35    37    1
