@<TRIPOS>MOLECULE
1ppk_IVV_E_1.pdb
 35 34 0 0 0
SMALL
GASTEIGER

@<TRIPOS>ATOM
      1  CA1       15.8930    4.2760   17.6750 C.3   700  IVV700      0.0868
      2  CB1       14.6850    3.7270   18.3960 C.3   700  IVV700      0.0091
      3 CG11       13.4810    3.5480   17.4890 C.3   700  IVV700      0.0005
      4 CG21       14.2890    4.9130   19.2440 C.3   700  IVV700      0.0005
      5  C1        17.0470    4.5420   18.6790 C.2   700  IVV700      0.2418
      6  O1        17.1330    3.7770   19.6530 O.2   700  IVV700     -0.2733
      7  N1        17.8940    5.5230   18.4500 N.am  700  IVV700     -0.1978
      8  CA2       19.0350    5.6660   19.4260 C.3   700  IVV700      0.1726
      9  C2        18.9010    6.9930   20.1440 C.2   700  IVV700      0.2616
     10  O2        18.1120    7.8900   19.6950 O.2   700  IVV700     -0.2715
     11  CB2       20.3170    5.6050   18.5680 C.3   700  IVV700      0.0290
     12 CG12       20.3710    4.2270   17.8660 C.3   700  IVV700      0.0023
     13 CG22       20.2470    6.6320   17.4280 C.3   700  IVV700      0.0023
     14  N3        19.7610    7.1140   21.1610 N.am  700  IVV700     -0.1963
     15  CA3       19.8050    8.3850   21.8980 C.3   700  IVV700      0.1727
     16  C3        21.3340    8.7140   22.0180 C.2   700  IVV700      0.2616
     17  O3        21.9430    8.2540   22.9760 O.2   700  IVV700     -0.2715
     18  CB3       19.1490    8.3320   23.2880 C.3   700  IVV700      0.0290
     19 CG13       19.1270    9.7510   23.8990 C.3   700  IVV700      0.0023
     20 CG23       17.7290    7.8730   23.2040 C.3   700  IVV700      0.0023
     21  N4        21.8380    9.4640   21.0120 N.am  700  IVV700     -0.1957
     22  O4        24.0020   10.8590   24.3690 O.2   700  IVV700     -0.2495
     23  P         23.2870   11.6820   21.2020 P.3   700  IVV700      0.2834
     24  C5        23.6070   11.9730   23.9730 C.2   700  IVV700      0.3271
     25  C6        25.4700   12.9130   25.2580 C.3   700  IVV700      0.2086
     26  O6        24.3280   13.1020   24.4460 O.3   700  IVV700     -0.4481
     27  C7        26.5940   13.7920   24.7560 C.3   700  IVV700      0.0513
     28  CA4       23.2210    9.8740   20.9950 C.3   700  IVV700      0.1750
     29  CB4       23.8860    9.3780   19.6540 C.3   700  IVV700      0.0317
     30  CG4       23.7080    7.8240   19.4250 C.3   700  IVV700      0.0023
     31  CP        22.6230   12.0970   22.8160 C.3   700  IVV700      0.2000
     32  O1P       22.4380   12.2440   20.1120 O.2   700  IVV700     -0.2846
     33  O2P       24.7330   12.0620   21.0820 O.3   700  IVV700     -0.1656
     34  CD1       24.3160    7.5100   18.0670 C.3   700  IVV700      0.0001
     35  CD2       24.2960    6.9500   20.5220 C.3   700  IVV700      0.0001
@<TRIPOS>BOND
     1    13    11    1
     2     3     2    1
     3     1     2    1
     4     1     5    1
     5    12    11    1
     6    34    30    1
     7     2     4    1
     8     7     5   am
     9     7     8    1
    10    11     8    1
    11     5     6    2
    12    30    29    1
    13    30    35    1
    14     8     9    1
    15    29    28    1
    16    10     9    2
    17    32    23    2
    18     9    14   am
    19    28    21    1
    20    28    23    1
    21    21    16   am
    22    33    23    1
    23    14    15    1
    24    23    31    1
    25    15    16    1
    26    15    18    1
    27    16    17    2
    28    31    24    1
    29    20    18    1
    30    18    19    1
    31    24    22    2
    32    24    26    1
    33    26    25    1
    34    27    25    1
