@<TRIPOS>MOLECULE
1ppl_MAN_E_1.pdb
 11 11 0 0 0
SMALL
GASTEIGER

@<TRIPOS>ATOM
      1  C1        30.1250   27.9250   -0.3710 C.3   329  MAN329      0.1777
      2  C2        30.2070   27.4280   -1.8250 C.3   329  MAN329      0.2141
      3  C3        31.6180   27.7000   -2.2960 C.3   329  MAN329      0.2173
      4  C4        31.9360   29.1970   -2.1910 C.3   329  MAN329      0.2142
      5  C5        31.8280   29.5400   -0.7230 C.3   329  MAN329      0.1810
      6  C6        32.2830   30.9080   -0.2100 C.3   329  MAN329      0.2141
      7  O2        29.2280   28.2390   -2.5540 O.3   329  MAN329     -0.2176
      8  O3        31.6460   27.3360   -3.7020 O.3   329  MAN329     -0.2175
      9  O4        33.2610   29.3370   -2.7270 O.3   329  MAN329     -0.2176
     10  O5        30.5340   29.2800   -0.2230 O.3   329  MAN329     -0.3481
     11  O6        31.5550   31.8560   -1.0070 O.3   329  MAN329     -0.2176
@<TRIPOS>BOND
     1     8     3    1
     2     9     4    1
     3     7     2    1
     4     3     4    1
     5     3     2    1
     6     4     5    1
     7     2     1    1
     8    11     6    1
     9     5    10    1
    10     5     6    1
    11     1    10    1
