@<TRIPOS>MOLECULE
1ppl_1Z7_E_1.pdb
 42 42 0 0 0
SMALL
GASTEIGER

@<TRIPOS>ATOM
      1  CA        15.9420    4.1260   17.4870 C.3   324  1Z7324      0.0868
      2  CB        14.6430    3.6540   18.1870 C.3   324  1Z7324      0.0091
      3  CG1       14.3150    4.8410   19.0870 C.3   324  1Z7324      0.0005
      4  CG2       13.4600    3.5320   17.2680 C.3   324  1Z7324      0.0005
      5  C         17.0680    4.4480   18.4850 C.2   324  1Z7324      0.2418
      6  O         17.1950    3.6450   19.4790 O.2   324  1Z7324     -0.2733
      7  N         17.8820    5.4490   18.3940 N.am  324  1Z7324     -0.1978
      8  CA1       19.0160    5.6420   19.2870 C.3   324  1Z7324      0.1726
      9  C1        18.9210    6.9900   19.9870 C.2   324  1Z7324      0.2616
     10  O1        18.1180    7.8830   19.5600 O.2   324  1Z7324     -0.2715
     11  CB1       20.2910    5.6330   18.3540 C.3   324  1Z7324      0.0290
     12 CG11       20.4610    4.2100   17.8010 C.3   324  1Z7324      0.0023
     13 CG21       20.2290    6.5910   17.1820 C.3   324  1Z7324      0.0023
     14  N1        19.6870    7.0590   21.0610 N.am  324  1Z7324     -0.1963
     15  CA2       19.6540    8.3980   21.7970 C.3   324  1Z7324      0.1727
     16  C2        21.1900    8.6890   21.9870 C.2   324  1Z7324      0.2617
     17  O2        21.7700    8.0720   22.8770 O.2   324  1Z7324     -0.2715
     18  CB2       18.9620    8.2550   23.1180 C.3   324  1Z7324      0.0290
     19 CG12       18.8480    9.6640   23.8070 C.3   324  1Z7324      0.0023
     20 CG22       17.5350    7.7840   22.8850 C.3   324  1Z7324      0.0023
     21  CA3       23.1040    9.9030   21.1450 C.3   324  1Z7324      0.2006
     22  CB3       23.8890    9.3340   19.9240 C.3   324  1Z7324      0.0343
     23  CG        23.7360    7.8390   19.5170 C.3   324  1Z7324      0.0023
     24  CD1       24.1350    7.6160   18.0600 C.3   324  1Z7324      0.0001
     25  CD2       24.1760    6.8870   20.5840 C.3   324  1Z7324      0.0001
     26  N2        21.7090    9.5240   21.1100 N.am  324  1Z7324     -0.1932
     27  P         23.3210   11.6840   21.2810 P.3   324  1Z7324      0.3891
     28  O11       24.7520   12.0150   21.1000 O.3   324  1Z7324     -0.1383
     29  O21       22.4510   12.2770   20.2720 O.2   324  1Z7324     -0.2537
     30  CA4       23.5860   13.0410   23.4660 C.3   324  1Z7324      0.2262
     31  CB4       22.5800   14.0210   24.1290 C.3   324  1Z7324      0.0680
     32  CG3       21.6400   13.4480   25.1720 C.ar  324  1Z7324     -0.0192
     33 CD11       21.9520   13.5400   26.5200 C.ar  324  1Z7324     -0.0042
     34 CD21       20.4620   12.7950   24.7960 C.ar  324  1Z7324     -0.0042
     35  CE1       21.0920   12.9630   27.4590 C.ar  324  1Z7324     -0.0003
     36  CE2       19.6880   12.1630   25.7410 C.ar  324  1Z7324     -0.0003
     37  CZ        19.9430   12.2840   27.0690 C.ar  324  1Z7324     -0.0000
     38  C3        24.3990   12.3760   24.6000 C.2   324  1Z7324      0.3454
     39  CS        25.9890   12.6670   26.3900 C.3   324  1Z7324      0.2557
     40  OP        22.9280   11.9630   22.7000 O.3   324  1Z7324     -0.2823
     41  OS        25.1990   13.2320   25.3720 O.3   324  1Z7324     -0.4427
     42  O3        24.3280   11.1650   24.8400 O.2   324  1Z7324     -0.2474
@<TRIPOS>BOND
     1    13    11    1
     2     4     2    1
     3     1     2    1
     4     1     5    1
     5    12    11    1
     6    24    23    1
     7     2     3    1
     8    11     8    1
     9     7     5   am
    10     7     8    1
    11     5     6    2
    12     8     9    1
    13    23    22    1
    14    23    25    1
    15    10     9    2
    16    22    21    1
    17     9    14   am
    18    29    27    2
    19    14    15    1
    20    28    27    1
    21    26    21    1
    22    26    16   am
    23    21    27    1
    24    27    40    1
    25    15    16    1
    26    15    18    1
    27    16    17    2
    28    40    30    1
    29    20    18    1
    30    18    19    1
    31    30    31    1
    32    30    38    1
    33    31    32    1
    34    38    42    2
    35    38    41    1
    36    34    32   ar
    37    34    36   ar
    38    32    33   ar
    39    41    39    1
    40    36    37   ar
    41    33    35   ar
    42    37    35   ar
