@<TRIPOS>MOLECULE
1ppm_0P1_E_1.pdb
 42 43 0 0 0
SMALL
GASTEIGER

@<TRIPOS>ATOM
      1  C1        16.9610    5.0560   18.8390 C.2   324  0P1324      0.4218
      2  O1        16.7860    4.7930   20.0630 O.2   324  0P1324     -0.2245
      3  O2        15.8380    4.9040   17.9920 O.3   324  0P1324     -0.4285
      4  C2        14.5710    4.8710   18.7050 C.3   324  0P1324      0.2368
      5  C3        13.9910    3.4940   18.5040 C.ar  324  0P1324      0.0213
      6  C4        13.3750    2.8280   19.5820 C.ar  324  0P1324     -0.0007
      7  C5        12.8490    1.5710   19.3880 C.ar  324  0P1324     -0.0002
      8  C6        12.9150    1.0010   18.1120 C.ar  324  0P1324     -0.0000
      9  C7        13.5460    1.6690   17.0360 C.ar  324  0P1324     -0.0002
     10  C8        14.0800    2.9530   17.2440 C.ar  324  0P1324     -0.0007
     11  N         18.0710    5.5250   18.3860 N.am  324  0P1324     -0.1611
     12  CA        19.2050    5.7540   19.2480 C.3   324  0P1324      0.1762
     13  C         19.0300    7.1030   20.0120 C.2   324  0P1324      0.2617
     14  O         18.1610    7.9500   19.6020 O.2   324  0P1324     -0.2715
     15  CB        20.3620    5.9450   18.2560 C.3   324  0P1324      0.0335
     16  N1        19.8180    7.2450   21.0460 N.am  324  0P1324     -0.1963
     17  CA1       19.7870    8.4860   21.8200 C.3   324  0P1324      0.1728
     18  C9        21.2480    8.8500   22.0540 C.2   324  0P1324      0.2617
     19  O3        21.8100    8.4710   23.0590 O.2   324  0P1324     -0.2715
     20  CB1       18.9120    8.3850   23.0900 C.3   324  0P1324      0.0334
     21  CA2       23.2710    9.9450   21.1250 C.3   324  0P1324      0.2006
     22  CB2       24.0340    9.3730   19.8660 C.3   324  0P1324      0.0343
     23  CG        23.7680    7.8770   19.5290 C.3   324  0P1324      0.0023
     24  CD1       24.4990    7.6050   18.2160 C.3   324  0P1324      0.0001
     25  CD2       24.2550    6.9510   20.6750 C.3   324  0P1324      0.0001
     26  N2        21.8890    9.5680   21.0820 N.am  324  0P1324     -0.1932
     27  P         23.4550   11.7720   21.2390 P.3   324  0P1324      0.3891
     28  O11       24.8350   12.0870   21.2500 O.3   324  0P1324     -0.1383
     29  O21       22.5280   12.3220   20.3070 O.2   324  0P1324     -0.2537
     30  CA3       23.5110   13.0420   23.5140 C.3   324  0P1324      0.2262
     31  CB3       22.3440   13.9090   24.0380 C.3   324  0P1324      0.0680
     32  CG1       21.3350   13.1520   24.8640 C.ar  324  0P1324     -0.0192
     33 CD11       21.4040   13.3650   26.2640 C.ar  324  0P1324     -0.0042
     34 CD21       20.3830   12.2980   24.3600 C.ar  324  0P1324     -0.0042
     35  CE1       20.5450   12.7340   27.1390 C.ar  324  0P1324     -0.0003
     36  CE2       19.5110   11.6810   25.2220 C.ar  324  0P1324     -0.0003
     37  CZ        19.6040   11.8740   26.5980 C.ar  324  0P1324     -0.0000
     38  CC        24.2320   12.4970   24.7390 C.2   324  0P1324      0.3454
     39  CS        25.7140   12.9990   26.6300 C.3   324  0P1324      0.2557
     40  OP        22.9550   11.9420   22.7180 O.3   324  0P1324     -0.2823
     41  OS        24.7390   13.3130   25.7410 O.3   324  0P1324     -0.4427
     42  O4        24.4070   11.3200   24.9200 O.2   324  0P1324     -0.2474
@<TRIPOS>BOND
     1     9    10   ar
     2     9     8   ar
     3    10     5   ar
     4     3     4    1
     5     3     1    1
     6     8     7   ar
     7    24    23    1
     8    15    12    1
     9    11     1   am
    10    11    12    1
    11     5     4    1
    12     5     6   ar
    13     1     2    2
    14    12    13    1
    15     7     6   ar
    16    23    22    1
    17    23    25    1
    18    14    13    2
    19    22    21    1
    20    13    16   am
    21    29    27    2
    22    16    17    1
    23    26    21    1
    24    26    18   am
    25    21    27    1
    26    27    28    1
    27    27    40    1
    28    17    18    1
    29    17    20    1
    30    18    19    2
    31    40    30    1
    32    30    31    1
    33    30    38    1
    34    31    32    1
    35    34    32   ar
    36    34    36   ar
    37    38    42    2
    38    38    41    1
    39    32    33   ar
    40    36    37   ar
    41    41    39    1
    42    33    35   ar
    43    37    35   ar
