@<TRIPOS>MOLECULE
1ppm_MAN_E_1.pdb
 11 11 0 0 0
SMALL
GASTEIGER

@<TRIPOS>ATOM
      1  C1        30.0970   27.9160   -0.3620 C.3   329  MAN329      0.1777
      2  C2        30.2200   27.3740   -1.8100 C.3   329  MAN329      0.2141
      3  C3        31.6020   27.6890   -2.2770 C.3   329  MAN329      0.2173
      4  C4        31.8970   29.2040   -2.1140 C.3   329  MAN329      0.2142
      5  C5        31.9280   29.4430   -0.6240 C.3   329  MAN329      0.1810
      6  C6        32.3900   30.8310   -0.2060 C.3   329  MAN329      0.2141
      7  O2        29.2390   28.1870   -2.5470 O.3   329  MAN329     -0.2176
      8  O3        31.7000   27.4160   -3.6760 O.3   329  MAN329     -0.2175
      9  O4        33.1960   29.3760   -2.6710 O.3   329  MAN329     -0.2176
     10  O5        30.5510   29.2570   -0.1700 O.3   329  MAN329     -0.3481
     11  O6        31.3810   31.6920   -0.7390 O.3   329  MAN329     -0.2176
@<TRIPOS>BOND
     1     8     3    1
     2     9     4    1
     3     7     2    1
     4     3     4    1
     5     3     2    1
     6     4     5    1
     7     2     1    1
     8    11     6    1
     9     5     6    1
    10     5    10    1
    11     1    10    1
