@<TRIPOS>MOLECULE
1ppp_E6C_A_1.pdb
 22 21 0 0 0
SMALL
GASTEIGER

@<TRIPOS>ATOM
      1  O1        55.7730   43.6780   22.5840 O.3   213  E6C213     -0.2126
      2  C2        57.4520   42.7750   24.1360 C.3   213  E6C213      0.1564
      3  C3        56.0110   43.2060   23.8870 C.3   213  E6C213      0.2403
      4  C4        55.3680   44.1700   24.8690 C.2   213  E6C213      0.2728
      5  O5        54.9040   43.8250   25.9300 O.2   213  E6C213     -0.2706
      6  N6        55.3030   45.4090   24.3420 N.am  213  E6C213     -0.1956
      7  C7        54.5740   46.3790   25.0280 C.3   213  E6C213      0.1728
      8  C8        53.9830   47.4290   24.1260 C.2   213  E6C213      0.2612
      9  O9        53.0000   48.0130   24.5350 O.2   213  E6C213     -0.2715
     10  N10       54.6880   47.9020   23.0810 N.am  213  E6C213     -0.2040
     11  C11       55.0400   49.3130   23.0160 C.3   213  E6C213      0.1152
     12  C12       55.6460   49.6340   24.4080 C.3   213  E6C213      0.0234
     13  C13       55.4520   51.0850   24.9420 C.3   213  E6C213      0.0018
     14  C14       53.9560   51.4650   24.9540 C.3   213  E6C213      0.0001
     15  C15       56.1960   52.0180   23.8640 C.3   213  E6C213      0.0001
     16  C16       57.8030   41.6430   23.1300 C.2   213  E6C213      0.3680
     17  O17       57.2220   40.5970   23.2700 O.co2 213  E6C213     -0.2455
     18  O18       58.4700   41.9430   22.1740 O.co2 213  E6C213     -0.2455
     19  C19       54.8710   46.7630   26.4580 C.3   213  E6C213      0.0311
     20  C20       53.5140   46.6300   27.2370 C.3   213  E6C213      0.0022
     21  C21       52.8200   48.0100   27.3280 C.3   213  E6C213      0.0001
     22  C22       52.5950   45.7560   26.3290 C.3   213  E6C213      0.0001
@<TRIPOS>BOND
     1    18    16   ar
     2     1     3    1
     3    11    10    1
     4    11    12    1
     5    10     8   am
     6    16    17   ar
     7    16     2    1
     8    15    13    1
     9     3     2    1
    10     3     4    1
    11     8     9    2
    12     8     7    1
    13     6     4   am
    14     6     7    1
    15    12    13    1
    16     4     5    2
    17    13    14    1
    18     7    19    1
    19    22    20    1
    20    19    20    1
    21    20    21    1
