@<TRIPOS>MOLECULE
1ppr_PID_M_1.pdb
 46 49 0 0 0
SMALL
GASTEIGER

@<TRIPOS>ATOM
      1  C1        90.2490   39.1390   10.9280 C.3   611  PID611      0.1216
      2  C2        91.3590   38.3310   10.2160 C.3   611  PID611      0.0627
      3  C3        91.9030   37.0610   10.8750 C.3   611  PID611      0.1545
      4  C4        90.7780   36.3760   11.6710 C.3   611  PID611      0.0356
      5  C5        90.0100   37.1830   12.7470 C.3   611  PID611      0.0311
      6  C6        89.5870   38.5740   12.2130 C.3   611  PID611      0.1335
      7  C7        88.9760   39.4940   13.1630 C.2   611  PID611      0.0027
      8  C8        87.5730   39.7250   13.1140 C.2   611  PID611      0.0044
      9  C9        86.8610   40.5060   14.0690 C.2   611  PID611      0.0788
     10  C10       87.3420   41.2280   15.2640 C.2   611  PID611      0.3458
     11  C11       85.5010   40.5980   14.0640 C.2   611  PID611      0.0440
     12  C12       85.1500   41.3570   15.2020 C.2   611  PID611      0.1487
     13  C13       83.8130   41.6420   15.5080 C.2   611  PID611      0.0334
     14  C14       83.3580   42.3340   16.6430 C.2   611  PID611     -0.0188
     15  C15       81.9640   42.5030   16.7740 C.2   611  PID611     -0.0045
     16  C16       81.3690   43.1280   17.9040 C.2   611  PID611     -0.0046
     17  C17       79.9800   43.3020   17.9500 C.2   611  PID611     -0.0214
     18  C18       79.3950   43.9560   19.0420 C.3   611  PID611      0.0517
     19  C19       78.0120   44.3060   19.0600 C.2   611  PID611     -0.0257
     20  C20       77.5430   45.0490   20.1760 C.2   611  PID611     -0.0257
     21  C21       76.2640   45.5880   20.2810 C.3   611  PID611      0.0514
     22  C22       76.0410   46.4630   21.3560 C.2   611  PID611      0.0186
     23  C23       74.9380   47.3190   21.4300 C.1   611  PID611     -0.1118
     24  C24       73.8910   48.1780   21.5410 C.2   611  PID611      0.0165
     25  C25       72.8140   47.9280   22.6210 C.3   611  PID611      0.0275
     26  C26       71.4790   48.4070   22.0590 C.3   611  PID611      0.0481
     27  C27       71.4350   49.8450   21.4910 C.3   611  PID611      0.1720
     28  C28       72.5010   49.9660   20.3740 C.3   611  PID611      0.0785
     29  C29       73.9350   49.5770   20.8000 C.3   611  PID611      0.1516
     30  C30       69.7100   51.2890   20.9030 C.2   611  PID611      0.3174
     31  C31       68.4150   51.5780   20.1660 C.3   611  PID611      0.1212
     32  CM1       90.2350   40.6330   10.7060 C.3   611  PID611      0.0325
     33  CM2       90.8440   37.3570   14.0010 C.3   611  PID611      0.0028
     34  CM3       88.7610   36.3580   13.0720 C.3   611  PID611      0.0028
     35  CM4       84.3190   42.8870   17.7220 C.3   611  PID611      0.0311
     36  CM5       75.1000   45.1360   19.3630 C.3   611  PID611      0.0100
     37  CM6       72.7290   46.4480   22.9780 C.3   611  PID611      0.0049
     38  CM7       73.1540   48.7230   23.8800 C.3   611  PID611      0.0049
     39  CM8       74.8360   49.5540   19.5810 C.3   611  PID611      0.0379
     40  O1        88.8970   38.4990   10.8830 O.3   611  PID611     -0.3543
     41  O2        92.9740   37.4110   11.7700 O.3   611  PID611     -0.2231
     42  O3        88.4650   41.0600   15.7560 O.2   611  PID611     -0.2445
     43  O4        86.2900   41.6420   15.9940 O.3   611  PID611     -0.4210
     44  O5        74.4640   50.5770   21.6920 O.3   611  PID611     -0.2208
     45  O6        70.1260   50.0420   20.9170 O.3   611  PID611     -0.4522
     46  O7        70.4860   52.2280   21.1200 O.2   611  PID611     -0.2501
@<TRIPOS>BOND
     1     2     3    1
     2     2     1    1
     3    32     1    1
     4     3     4    1
     5     3    41    1
     6    40     1    1
     7    40     6    1
     8     1     6    1
     9     4     5    1
    10     6     5    1
    11     6     7    1
    12     5    34    1
    13     5    33    1
    14     8     7    2
    15     8     9    1
    16    11     9    2
    17    11    12    1
    18     9    10    1
    19    12    13    2
    20    12    43    1
    21    10    42    2
    22    10    43    1
    23    13    14    1
    24    14    15    2
    25    14    35    1
    26    15    16    1
    27    16    17    2
    28    17    18    1
    29    18    19    1
    30    19    20    2
    31    36    21    1
    32    39    29    1
    33    31    30    1
    34    20    21    1
    35    21    22    1
    36    28    29    1
    37    28    27    1
    38    29    24    1
    39    29    44    1
    40    30    45    1
    41    30    46    2
    42    45    27    1
    43    22    23    2
    44    23    24    2
    45    27    26    1
    46    24    25    1
    47    26    25    1
    48    25    37    1
    49    25    38    1
