@<TRIPOS>MOLECULE
1ppv_BHI_A_1.pdb
 15 14 0 0 0
SMALL
GASTEIGER

@<TRIPOS>ATOM
      1  O1        10.6130    8.7750   13.1460 O.3   301  BHI301     -0.2256
      2  O2        11.1030    2.4520   10.0960 O.2   301  BHI301     -0.2221
      3  O3         8.8670    2.0740   10.7980 O.3   301  BHI301     -0.1143
      4  O4        10.7320    1.7610   12.3420 O.3   301  BHI301     -0.1143
      5  P5        10.2700    2.5480   11.1630 P.3   301  BHI301      0.5373
      6  O6        10.0740    4.0270   11.5620 O.3   301  BHI301     -0.2261
      7  O7        11.5420    5.8370   11.4510 O.2   301  BHI301     -0.5169
      8  O8        11.7620    4.3190   13.3220 O.3   301  BHI301     -0.4370
      9  P9        10.9020    5.0630   12.3430 P.3   301  BHI301      0.2230
     10  C10        8.2990    9.9760   12.7820 C.3   301  BHI301      0.0330
     11  C11        8.9770    9.4640   15.1080 C.3   301  BHI301      0.0330
     12  C12        9.0730    6.7290   12.5740 C.3   301  BHI301      0.1517
     13  C13        8.2870    7.6160   13.5520 C.3   301  BHI301      0.0629
     14  C14        9.0900    8.9540   13.6480 C.3   301  BHI301      0.1292
     15  O15        9.9180    5.8000   13.2550 O.3   301  BHI301     -0.3137
@<TRIPOS>BOND
     1     2     5    2
     2     3     5    1
     3     5     6    1
     4     5     4    1
     5     7     9    2
     6     6     9    1
     7     9    15    1
     8     9     8    1
     9    12    15    1
    10    12    13    1
    11    10    14    1
    12     1    14    1
    13    13    14    1
    14    14    11    1
