@<TRIPOS>MOLECULE
1ppw_EIP_A_1.pdb
 15 14 0 0 0
SMALL
GASTEIGER

@<TRIPOS>ATOM
      1  O1        11.2270    2.6850   10.0370 O.2   301  EIP301     -0.2221
      2  O2         9.1480    1.9570   10.7360 O.3   301  EIP301     -0.1143
      3  O3        10.9260    1.9840   12.2930 O.3   301  EIP301     -0.1143
      4  P4        10.2220    2.6630   11.1510 P.3   301  EIP301      0.5373
      5  O5         9.8740    4.1140   11.4970 O.3   301  EIP301     -0.2261
      6  O6        11.6990    5.7100   11.4100 O.2   301  EIP301     -0.5169
      7  O7        11.5510    4.1770   13.2020 O.3   301  EIP301     -0.4370
      8  P8        10.8420    5.0610   12.2130 P.3   301  EIP301      0.2230
      9  O9         9.9930    5.9890   13.0710 O.3   301  EIP301     -0.3138
     10  C10        9.7570    7.2420   12.4170 C.3   301  EIP301      0.1492
     11  C11       10.2520    8.4700   13.1950 C.3   301  EIP301      0.0351
     12  C12        9.3250    8.8550   14.1840 C.3   301  EIP301      0.0355
     13  C13        9.4570    9.9480   15.0940 C.3   301  EIP301      0.1821
     14  C14        8.0500    8.0230   14.3050 C.3   301  EIP301      0.0028
     15  O15        9.1930    9.1950   16.5120 O.3   301  EIP301     -0.2204
@<TRIPOS>BOND
     1     1     4    2
     2     2     4    1
     3     4     5    1
     4     4     3    1
     5     6     8    2
     6     5     8    1
     7     8     9    1
     8     8     7    1
     9    10     9    1
    10    10    11    1
    11    11    12    1
    12    12    14    1
    13    12    13    1
    14    13    15    1
