@<TRIPOS>MOLECULE
1ppx_8OG_A_1.pdb
 36 38 0 0 0
SMALL
GASTEIGER

@<TRIPOS>ATOM
      1  OP3       -8.5000   -3.9720   -7.0250 O.2   131  8OG131     -0.2224
      2  P         -7.9180   -5.0660   -5.9970 P.3   131  8OG131      0.5320
      3  OP1       -6.5520   -5.4370   -6.4290 O.3   131  8OG131     -0.1145
      4  OP2       -8.9340   -6.1300   -5.8350 O.3   131  8OG131     -0.1145
      5  O5'       -7.8150   -4.2240   -4.6290 O.3   131  8OG131     -0.2809
      6  C5'       -6.9920   -4.6780   -3.5510 C.3   131  8OG131      0.0879
      7  C4'       -7.6710   -5.7800   -2.7340 C.3   131  8OG131      0.1107
      8  O4'       -8.9150   -5.5010   -2.0830 O.3   131  8OG131     -0.3500
      9  C3'       -8.0000   -7.0280   -3.5550 C.3   131  8OG131      0.0875
     10  O3'       -7.2520   -8.1620   -3.1070 O.3   131  8OG131     -0.3890
     11  C2'       -9.5080   -7.2650   -3.4280 C.3   131  8OG131      0.0194
     12  C1'      -10.0990   -6.1740   -2.5290 C.3   131  8OG131      0.1380
     13  N9       -11.3400   -5.5210   -3.0030 N.am  131  8OG131     -0.2042
     14  C8       -11.4120   -4.9220   -4.2330 C.2   131  8OG131      0.3113
     15  N7       -12.6900   -4.4330   -4.3020 N.am  131  8OG131     -0.2756
     16  C5       -13.3930   -4.7140   -3.1610 C.3   131  8OG131      0.2182
     17  C6       -14.6490   -4.4680   -2.7250 C.2   131  8OG131      0.2552
     18  O6       -15.4470   -3.8260   -3.4930 O.2   131  8OG131     -0.2724
     19  N1       -15.1140   -4.8820   -1.4820 N.am  131  8OG131     -0.2458
     20  C2       -14.2440   -5.5670   -0.6760 C.2   131  8OG131      0.2388
     21  N2       -14.6960   -5.9660    0.5210 N.pl3 131  8OG131     -0.3207
     22  N3       -12.9260   -5.8730   -1.0330 N.2   131  8OG131     -0.3602
     23  C4       -12.5460   -5.4080   -2.3210 C.2   131  8OG131      0.1983
     24  O8       -10.4910   -4.8330   -5.1170 O.2   131  8OG131     -0.2521
     25  H5'       -6.7720   -3.8520   -2.9070 H     131  8OG131      0.0592
     26 H5''       -6.0750   -5.0620   -3.9500 H     131  8OG131      0.0592
     27  H4'       -6.9820   -6.0750   -1.9710 H     131  8OG131      0.0646
     28  H3'       -7.7600   -6.8440   -4.5800 H     131  8OG131      0.0621
     29 HO3'       -7.4900   -8.9590   -3.6630 H     131  8OG131      0.2099
     30  H2'       -9.9630   -7.2200   -4.3950 H     131  8OG131      0.0333
     31 H2''       -9.6870   -8.2260   -2.9910 H     131  8OG131      0.0333
     32  H1'      -10.4300   -6.6500   -1.6310 H     131  8OG131      0.0815
     33  H7       -13.0610   -3.9360   -5.0860 H     131  8OG131      0.1518
     34  H1       -16.0440   -4.6990   -1.1620 H     131  8OG131      0.1585
     35  H21      -14.0920   -6.4700    1.1390 H     131  8OG131      0.1459
     36  H22      -15.6340   -5.7580    0.7950 H     131  8OG131      0.1459
@<TRIPOS>BOND
     1     1     2    2
     2     3     2    1
     3     2     4    1
     4     2     5    1
     5    24    14    2
     6    33    15    1
     7     5     6    1
     8    28     9    1
     9    30    11    1
    10    15    14   am
    11    15    16    1
    12    14    13   am
    13    26     6    1
    14    29    10    1
    15     9    11    1
    16     9    10    1
    17     9     7    1
    18     6    25    1
    19     6     7    1
    20    18    17    2
    21    11    31    1
    22    11    12    1
    23    16    17    1
    24    16    23    1
    25    13    12    1
    26    13    23    1
    27     7     8    1
    28     7    27    1
    29    17    19   am
    30    12     8    1
    31    12    32    1
    32    23    22    2
    33    19    34    1
    34    19    20    1
    35    22    20    2
    36    20    21    1
    37    21    36    1
    38    21    35    1
