@<TRIPOS>MOLECULE
1pq2_HEM_A_1.pdb
 43 50 0 0 0
SMALL
GASTEIGER

@<TRIPOS>ATOM
      1 FE        -27.1960  -17.9000  -16.9410 Fe    500  HEM500      0.0000
      2  CHA      -27.4660  -17.2170  -13.6250 C.2   500  HEM500      0.0000
      3  CHB      -24.1900  -19.1950  -16.4220 C.2   500  HEM500      0.0000
      4  CHC      -26.9780  -18.5390  -20.1700 C.2   500  HEM500      0.0000
      5  CHD      -30.2300  -16.5970  -17.3550 C.2   500  HEM500      0.0000
      6  NA       -25.9930  -18.1860  -15.3040 N.2   500  HEM500      0.0000
      7  C1A      -26.2740  -17.8340  -14.0120 C.2   500  HEM500      0.0000
      8  C2A      -25.2070  -18.1950  -13.1770 C.2   500  HEM500      0.0000
      9  C3A      -24.2770  -18.7650  -14.0070 C.2   500  HEM500      0.0000
     10  C4A      -24.8120  -18.7250  -15.2910 C.2   500  HEM500      0.0000
     11  CMA      -22.8870  -19.3460  -13.6250 C.3   500  HEM500      0.0000
     12  CAA      -25.1300  -17.9770  -11.6540 C.2   500  HEM500      0.0000
     13  CBA      -25.6600  -19.1000  -10.8070 C.2   500  HEM500      0.0000
     14  CGA      -25.4140  -18.9500   -9.3060 C.2   500  HEM500      0.0000
     15  O1A      -24.4130  -19.4800   -8.8030 O.co2 500  HEM500      0.0000
     16  O2A      -26.1940  -18.3210   -8.5910 O.co2 500  HEM500      0.0000
     17  NB       -25.7720  -18.7440  -18.1370 N.ar  500  HEM500      0.0000
     18  C1B      -24.5980  -19.2180  -17.7520 C.ar  500  HEM500      0.0000
     19  C2B      -23.8690  -19.7290  -18.8570 C.ar  500  HEM500      0.0000
     20  C3B      -24.7150  -19.5180  -19.9710 C.ar  500  HEM500      0.0000
     21  C4B      -25.8730  -18.9130  -19.4430 C.ar  500  HEM500      0.0000
     22  CMB      -22.4960  -20.3470  -18.7770 C.3   500  HEM500      0.0000
     23  CAB      -24.5070  -19.8320  -21.3340 C.3   500  HEM500      0.0000
     24  CBB      -23.4830  -20.6950  -21.9660 C.3   500  HEM500      0.0000
     25  NC       -28.4340  -17.6140  -18.5230 N.2   500  HEM500      0.0000
     26  C1C      -28.1620  -17.9490  -19.7760 C.2   500  HEM500      0.0000
     27  C2C      -29.1980  -17.6330  -20.6200 C.2   500  HEM500      0.0000
     28  C3C      -30.1940  -17.0480  -19.8220 C.2   500  HEM500      0.0000
     29  C4C      -29.6540  -17.0630  -18.5140 C.2   500  HEM500      0.0000
     30  CMC      -29.2350  -17.8760  -22.1490 C.3   500  HEM500      0.0000
     31  CAC      -31.4250  -16.5420  -20.1260 C.3   500  HEM500      0.0000
     32  CBC      -32.7070  -16.9120  -19.6630 C.3   500  HEM500      0.0000
     33  ND       -28.6260  -17.0380  -15.7100 N.ar  500  HEM500      0.0000
     34  C1D      -29.7630  -16.5850  -16.0950 C.ar  500  HEM500      0.0000
     35  C2D      -30.4630  -16.0770  -15.0270 C.ar  500  HEM500      0.0000
     36  C3D      -29.6900  -16.2340  -13.9190 C.ar  500  HEM500      0.0000
     37  C4D      -28.5360  -16.8480  -14.3970 C.ar  500  HEM500      0.0000
     38  CMD      -31.8580  -15.4500  -15.0810 C.3   500  HEM500      0.0000
     39  CAD      -30.0100  -15.8230  -12.4490 C.3   500  HEM500      0.0000
     40  CBD      -30.7300  -16.9580  -11.6460 C.3   500  HEM500      0.0000
     41  CGD      -31.1040  -16.6930  -10.1580 C.2   500  HEM500      0.0000
     42  O1D      -32.0650  -17.2290   -9.6570 O.co2 500  HEM500      0.0000
     43  O2D      -30.4050  -15.9230   -9.4750 O.co2 500  HEM500      0.0000
@<TRIPOS>BOND
     1    30    27    1
     2    24    23    1
     3    23    20    1
     4    27    28    2
     5    27    26    1
     6     4    26    2
     7     4    21    1
     8    31    28    1
     9    31    32    1
    10    20    21   ar
    11    20    19   ar
    12    28    29    1
    13    26    25    1
    14    21    17   ar
    15    19    22    1
    16    19    18   ar
    17    25    29    2
    18    25     1    1
    19    29     5    1
    20    17    18   ar
    21    17     1    1
    22    18     3    1
    23     5    34    2
    24     1    33    1
    25     1     6    1
    26     3    10    2
    27    34    33   ar
    28    34    35   ar
    29    33    37   ar
    30     6    10    1
    31     6     7    2
    32    10     9    1
    33    38    35    1
    34    35    36   ar
    35    37    36   ar
    36    37     2    2
    37     7     2    1
    38     7     8    1
    39     9    11    1
    40     9     8    2
    41    36    39    1
    42     8    12    1
    43    39    40    1
    44    12    13    2
    45    40    41    1
    46    13    14    1
    47    41    42   ar
    48    41    43   ar
    49    14    15   ar
    50    14    16   ar
