@<TRIPOS>MOLECULE
1pq3_S2C_A_1.pdb
 13 12 0 0 0
SMALL
GASTEIGER

@<TRIPOS>ATOM
      1  OXT       67.5410   54.4530   -7.9130 O.co2 551  S2C551      0.0000
      2  N         69.9570   56.7220   -7.0040 N.3   551  S2C551      0.0000
      3  CA        69.3600   55.4110   -6.7190 C.3   551  S2C551      0.0000
      4  C         67.8640   55.4270   -7.0490 C.2   551  S2C551      0.0000
      5  O         67.0580   56.1990   -6.5860 O.co2 551  S2C551      0.0000
      6  CB        69.6200   55.1600   -5.2610 C.3   551  S2C551      0.0000
      7  SG        69.8800   53.4270   -4.9500 S.3   551  S2C551      0.0000
      8  CD        69.6590   53.5510   -3.1860 C.3   551  S2C551      0.0000
      9  CE        69.8640   52.1930   -2.5440 C.3   551  S2C551      0.0000
     10  B         70.5950   52.2460   -1.1890 B     551  S2C551      0.0000
     11  O1        71.4540   53.4070   -1.0910 O.3   551  S2C551      0.0000
     12  O2        69.6810   52.2770   -0.0610 O.3   551  S2C551      0.0000
     13  O3        71.4190   51.0770   -1.0380 O.3   551  S2C551      0.0000
@<TRIPOS>BOND
     1     1     4   ar
     2     4     3    1
     3     4     5   ar
     4     2     3    1
     5     3     6    1
     6     6     7    1
     7     7     8    1
     8     8     9    1
     9     9    10    1
    10    10    11    1
    11    10    13    1
    12    10    12    1
