@<TRIPOS>MOLECULE
1pq5_ARG_A_1.pdb
 23 22 0 0 0
SMALL
GASTEIGER

@<TRIPOS>ATOM
      1  N          7.1460    1.8820   -6.0950 N.3   703  ARG703     -0.1313
      2  CA         6.2260    3.1960   -6.1850 C.3   703  ARG703      0.1094
      3  C          6.3160    4.3600   -5.1730 C.2   703  ARG703      0.2196
      4  O          5.8560    4.7350   -4.0950 O.2   703  ARG703     -0.2871
      5  CB         4.7420    2.5920   -6.4370 C.3   703  ARG703     -0.0243
      6  CG         4.8320    2.4630   -7.9680 C.3   703  ARG703     -0.0203
      7  CD         3.5280    1.7730   -8.5070 C.3   703  ARG703      0.0646
      8  NE         3.4270    1.8460   -9.8590 N.pl3 703  ARG703     -0.2787
      9  CZ         2.4090    1.5000  -10.5670 C.cat 703  ARG703      0.3410
     10  NH1        1.3570    1.0270  -10.1610 N.pl3 703  ARG703     -0.2919
     11  NH2        2.4300    1.6090  -11.9160 N.pl3 703  ARG703     -0.2919
     12  HA         6.4690    3.6020   -7.0420 H     703  ARG703      0.0576
     13  HB2        4.6160    1.7340   -6.0030 H     703  ARG703      0.0287
     14  HB3        4.0440    3.2060   -6.1610 H     703  ARG703      0.0287
     15  HG2        5.6090    1.9330   -8.2080 H     703  ARG703      0.0296
     16  HG3        4.9290    3.3420   -8.3670 H     703  ARG703      0.0296
     17  HD2        3.5270    0.8410   -8.2380 H     703  ARG703      0.0655
     18  HD3        2.7540    2.1990   -8.1070 H     703  ARG703      0.0655
     19  HE         4.1090    2.1530  -10.2840 H     703  ARG703      0.2578
     20 HH11        1.2410    0.8950   -9.3190 H     703  ARG703      0.2545
     21 HH12        0.7320    0.8270  -10.7170 H     703  ARG703      0.2545
     22 HH21        1.7500    1.3580  -12.3780 H     703  ARG703      0.2545
     23 HH22        3.1240    1.9300  -12.3100 H     703  ARG703      0.2545
@<TRIPOS>BOND
     1    22    11    1
     2    23    11    1
     3    11     9    2
     4    21    10    1
     5     9    10    1
     6     9     8    1
     7    19     8    1
     8    10    20    1
     9     8     7    1
    10     7    17    1
    11     7    18    1
    12     7     6    1
    13    16     6    1
    14    15     6    1
    15     6     5    1
    16    12     2    1
    17     5     2    1
    18     5    14    1
    19     5    13    1
    20     2     1    1
    21     2     3    1
    22     3     4    2
