@<TRIPOS>MOLECULE
1pq6_965_A_1.pdb
 41 44 0 0 0
SMALL
GASTEIGER

@<TRIPOS>ATOM
      1  O37       45.9280   22.4830   41.9660 O.co2 1500  9651500    -0.2453
      2  C35       46.0060   22.9220   43.1170 C.2   1500  9651500     0.3692
      3  O36       46.1540   24.1370   43.3520 O.co2 1500  9651500    -0.2453
      4  C34       45.9910   22.0480   44.3360 C.3   1500  9651500     0.1405
      5  C32       45.0900   20.8430   44.1200 C.ar  1500  9651500    -0.0079
      6  C31       43.7290   20.9850   44.3850 C.ar  1500  9651500    -0.0035
      7  C30       42.8480   19.9350   44.1450 C.ar  1500  9651500     0.0028
      8  C29       43.3330   18.7340   43.6340 C.ar  1500  9651500     0.0369
      9  C28       44.6910   18.5920   43.3610 C.ar  1500  9651500     0.1382
     10  O27       45.1450   17.3970   42.8930 O.3   1500  9651500    -0.4754
     11  C26       44.6170   16.8430   41.7080 C.3   1500  9651500     0.2068
     12  C25       44.9200   15.3770   41.7030 C.3   1500  9651500     0.0646
     13  C17       44.1000   14.6790   40.6300 C.3   1500  9651500     0.0762
     14  N09       43.5910   13.3960   41.1190 N.3   1500  9651500    -0.2682
     15  C16       44.5040   12.5210   41.8260 C.3   1500  9651500     0.1000
     16  C18       43.8830   11.8270   42.9990 C.ar  1500  9651500     0.0044
     17  C23       43.1380   12.4980   43.9500 C.ar  1500  9651500    -0.0021
     18  C22       42.5800   11.7950   45.0150 C.ar  1500  9651500    -0.0003
     19  C21       42.7420   10.4150   45.1750 C.ar  1500  9651500     0.0047
     20  C20       43.4790    9.6620   44.2660 C.ar  1500  9651500     0.0817
     21  C19       44.0860   10.3810   43.1320 C.ar  1500  9651500     0.0589
     22 CL4        45.0460    9.5000   41.9130 Cl    1500  9651500    -0.0826
     23  C39       43.6720    8.1640   44.3680 C.3   1500  9651500     0.4194
     24  F41       43.0970    7.6170   43.2920 F     1500  9651500    -0.1658
     25  F40       43.1460    7.6810   45.4810 F     1500  9651500    -0.1658
     26  F42       44.9580    7.8540   44.3740 F     1500  9651500    -0.1658
     27  C08       42.3410   12.8510   40.5950 C.3   1500  9651500     0.0811
     28  C07       41.1590   13.8370   40.5850 C.3   1500  9651500     0.0605
     29  C01       40.1170   13.4550   39.5870 C.ar  1500  9651500    -0.0171
     30  C02       39.8390   12.1220   39.2590 C.ar  1500  9651500    -0.0039
     31  C03       38.8640   11.7950   38.3180 C.ar  1500  9651500    -0.0003
     32  C04       38.1420   12.8000   37.6930 C.ar  1500  9651500    -0.0000
     33  C05       38.4280   14.1250   37.9970 C.ar  1500  9651500    -0.0003
     34  C06       39.3930   14.4610   38.9490 C.ar  1500  9651500    -0.0039
     35  C10       40.5620   13.9380   41.9350 C.ar  1500  9651500    -0.0171
     36  C15       40.0380   12.8110   42.5720 C.ar  1500  9651500    -0.0039
     37  C14       39.5020   12.9050   43.8580 C.ar  1500  9651500    -0.0003
     38  C13       39.4570   14.1470   44.4890 C.ar  1500  9651500    -0.0000
     39  C12       39.9780   15.2600   43.8430 C.ar  1500  9651500    -0.0003
     40  C11       40.5300   15.1630   42.5700 C.ar  1500  9651500    -0.0039
     41  C33       45.5770   19.6360   43.6050 C.ar  1500  9651500     0.0332
@<TRIPOS>BOND
     1    32    33   ar
     2    32    31   ar
     3    33    34   ar
     4    31    30   ar
     5    34    29   ar
     6    30    29   ar
     7    29    28    1
     8    28    27    1
     9    28    35    1
    10    27    14    1
    11    13    14    1
    12    13    12    1
    13    14    15    1
    14    12    11    1
    15    11    10    1
    16    15    16    1
    17    22    21    1
    18    35    40   ar
    19    35    36   ar
    20     1     2   ar
    21    40    39   ar
    22    36    37   ar
    23    10     9    1
    24    16    21   ar
    25    16    17   ar
    26     2     3   ar
    27     2     4    1
    28    21    20   ar
    29    24    23    1
    30     9    41   ar
    31     9     8   ar
    32    41     5   ar
    33     8     7   ar
    34    39    38   ar
    35    37    38   ar
    36    17    18   ar
    37     5     4    1
    38     5     6   ar
    39     7     6   ar
    40    20    23    1
    41    20    19   ar
    42    23    26    1
    43    23    25    1
    44    18    19   ar
