@<TRIPOS>MOLECULE
1pq7_ARG_A_1.pdb
 11 10 0 0 0
SMALL
GASTEIGER

@<TRIPOS>ATOM
      1  N          7.2130    1.5710   -6.2450 N.3   703  ARG703     -0.1245
      2  CA         6.3410    2.7580   -6.5230 C.3   703  ARG703      0.1563
      3  C          6.7690    3.8850   -5.5880 C.2   703  ARG703      0.2260
      4  O          6.3200    4.3920   -4.5740 O.2   703  ARG703     -0.2867
      5  CB         4.7970    2.5460   -6.4460 C.3   703  ARG703      0.0307
      6  CG         4.0780    2.9540   -7.7140 C.3   703  ARG703      0.0489
      7  CD         3.5480    1.7060   -8.4110 C.3   703  ARG703      0.2205
      8  NE         3.5670    1.5390   -9.7830 N.pl3 703  ARG703     -0.0865
      9  CZ         2.3340    1.4520  -10.4060 C.cat 703  ARG703      0.5346
     10  NH1        1.3410    1.5670   -9.4920 N.pl3 703  ARG703      0.1354
     11  NH2        2.4210    1.2850  -11.7190 N.pl3 703  ARG703      0.1354
@<TRIPOS>BOND
     1    11     9    1
     2     9     8    2
     3     9    10    1
     4     8     7    1
     5     7     6    1
     6     6     5    1
     7     2     5    1
     8     2     1    1
     9     2     3    1
    10     3     4    2
