@<TRIPOS>MOLECULE
1pq8_III_C_1.pdb
 30 29 0 0 0
SMALL
GASTEIGER

@<TRIPOS>ATOM
      1  N          9.5800   -3.0280   -4.5780 N.3     1  GLY1       -0.1210
      2  CA        10.4460   -1.8890   -4.8640 C.3     1  GLY1        0.1938
      3  C          9.9630   -0.9840   -5.9800 C.2     1  GLY1        0.2417
      4  O         10.4290   -1.0970   -7.1270 O.2     1  GLY1       -0.2735
      5  N          9.1440   -0.2050   -5.6770 N.am    2  GLY2       -0.3049
      6  CA         8.3220    0.5890   -6.5380 C.3     2  GLY2        0.0898
      7  C          8.0690    2.0470   -6.2860 C.2     2  GLY2        0.2496
      8  O          8.8700    2.9330   -6.6050 O.2     2  GLY2       -0.2723
      9  H          9.0210   -0.0960   -4.8330 H       2  GLY2        0.1492
     10  HA2        8.7020    0.5210   -7.4280 H       2  GLY2        0.0558
     11  HA3        7.4540    0.1570   -6.5730 H       2  GLY2        0.0558
     12  N          7.2520    2.6330   -4.8840 N.am    3  ARG3       -0.2051
     13  CA         6.2650    3.0810   -5.8570 C.3     3  ARG3        0.1110
     14  C          5.2900    4.0980   -5.2660 C.2     3  ARG3        0.2220
     15  O          5.5980    4.6710   -4.2010 O.2     3  ARG3       -0.2869
     16  CB         5.4880    1.8780   -6.4080 C.3     3  ARG3       -0.0224
     17  CG         5.1260    2.0570   -7.8730 C.3     3  ARG3       -0.0201
     18  CD         3.7420    1.4970   -8.1580 C.3     3  ARG3        0.0650
     19  NE         3.4040    1.6820   -9.5710 N.pl3   3  ARG3       -0.2676
     20  CZ         2.2020    1.3670  -10.0410 C.cat   3  ARG3        0.4998
     21  NH1        1.2750    0.8730   -9.2270 N.pl3   3  ARG3        0.1319
     22  NH2        1.9510    1.5540  -11.3240 N.pl3   3  ARG3        0.1319
     23  HA         6.7400    3.5070   -6.6010 H       3  ARG3        0.0602
     24  HB2        6.0260    1.0770   -6.3080 H       3  ARG3        0.0289
     25  HB3        4.6760    1.7580   -5.8910 H       3  ARG3        0.0289
     26  HG2        5.1460    3.0000   -8.0990 H       3  ARG3        0.0296
     27  HG3        5.7800    1.6020   -8.4260 H       3  ARG3        0.0296
     28  HD2        3.7220    0.5520   -7.9390 H       3  ARG3        0.0655
     29  HD3        3.0870    1.9490   -7.6040 H       3  ARG3        0.0655
     30  HE         3.9960    2.0020  -10.1080 H       3  ARG3        0.2582
@<TRIPOS>BOND
     1    22    20    2
     2    30    19    1
     3    20    19    1
     4    20    21    1
     5    19    18    1
     6    27    17    1
     7    18    28    1
     8    18    17    1
     9    18    29    1
    10    26    17    1
    11    17    16    1
    12    10     6    1
    13     4     3    2
    14     8     7    2
    15    23    13    1
    16    11     6    1
    17     6     7    1
    18     6     5    1
    19    16    24    1
    20    16    25    1
    21    16    13    1
    22     7    12   am
    23     3     5   am
    24     3     2    1
    25    13    14    1
    26    13    12    1
    27     5     9    1
    28    14    15    2
    29     2     1    1
