@<TRIPOS>MOLECULE
1pq9_44B_A_1.pdb
 22 22 0 0 0
SMALL
GASTEIGER

@<TRIPOS>ATOM
      1  F35      -11.8140   40.2110   39.3730 F     1501  44B1501    -0.1668
      2  C34      -11.5250   40.3390   40.6730 C.3   1501  44B1501     0.4344
      3  F37      -10.1860   40.2750   40.7570 F     1501  44B1501    -0.1668
      4  F36      -11.9090   41.5460   41.0040 F     1501  44B1501    -0.1668
      5  C33      -12.2250   39.3280   41.6150 C.3   1501  44B1501     0.3171
      6  O42      -12.1700   39.8140   42.9840 O.3   1501  44B1501    -0.2033
      7  C38      -13.7560   39.2320   41.2120 C.3   1501  44B1501     0.4344
      8  F39      -13.9680   38.8230   39.9580 F     1501  44B1501    -0.1668
      9  F40      -14.3570   38.2990   41.9700 F     1501  44B1501    -0.1668
     10  F41      -14.4730   40.3670   41.3280 F     1501  44B1501    -0.1668
     11  C26      -11.6260   37.9070   41.4230 C.ar  1501  44B1501     0.0216
     12  C27      -11.3870   37.2810   40.1480 C.ar  1501  44B1501    -0.0000
     13  C28      -10.8740   35.9620   40.0690 C.ar  1501  44B1501     0.0159
     14  C25      -11.3460   37.1510   42.5920 C.ar  1501  44B1501    -0.0000
     15  C24      -10.8280   35.8410   42.5030 C.ar  1501  44B1501     0.0159
     16  C23      -10.5780   35.2400   41.2530 C.ar  1501  44B1501     0.0656
     17  N15      -10.0640   33.8450   41.2250 N.pl3 1501  44B1501    -0.2287
     18  C16       -9.0610   33.5400   40.1600 C.3   1501  44B1501     0.2151
     19  C19       -7.7230   33.6720   40.8220 C.3   1501  44B1501     0.4173
     20  F22       -6.8010   33.0650   40.0630 F     1501  44B1501    -0.1681
     21  F21       -7.6450   33.0950   42.0240 F     1501  44B1501    -0.1681
     22  F20       -7.4870   34.9680   41.0400 F     1501  44B1501    -0.1681
@<TRIPOS>BOND
     1     1     2    1
     2     8     7    1
     3    20    19    1
     4    13    12   ar
     5    13    16   ar
     6    12    11   ar
     7    18    19    1
     8    18    17    1
     9     2     3    1
    10     2     4    1
    11     2     5    1
    12    19    22    1
    13    19    21    1
    14     7    10    1
    15     7     5    1
    16     7     9    1
    17    17    16    1
    18    16    15   ar
    19    11     5    1
    20    11    14   ar
    21     5     6    1
    22    15    14   ar
