@<TRIPOS>MOLECULE
1pqc_444_A_1.pdb
 31 32 0 0 0
SMALL
GASTEIGER

@<TRIPOS>ATOM
      1  O13      -12.9030   32.5200   41.9080 O.2   1500  4441500    -0.1497
      2  S12      -11.7140   32.2680   41.1740 S.O2  1500  4441500     0.0768
      3  O14      -11.2330   30.9450   41.5000 O.2   1500  4441500    -0.1497
      4  C01      -12.3070   32.2400   39.5010 C.ar  1500  4441500     0.1254
      5  C02      -11.7620   31.3120   38.5460 C.ar  1500  4441500     0.0202
      6  C03      -12.2240   31.3000   37.2090 C.ar  1500  4441500     0.0014
      7  C04      -13.2240   32.2130   36.8270 C.ar  1500  4441500     0.0001
      8  C05      -13.7490   33.1390   37.7830 C.ar  1500  4441500     0.0014
      9  C06      -13.2960   33.1640   39.1290 C.ar  1500  4441500     0.0202
     10  N15      -10.4330   33.5360   41.2050 N.pl3 1500  4441500    -0.1818
     11  C16       -9.2920   33.2720   40.2260 C.3   1500  4441500     0.2186
     12  C19       -7.9830   33.6200   40.8420 C.3   1500  4441500     0.4174
     13  F22       -7.0290   33.1160   40.0450 F     1500  4441500    -0.1681
     14  F21       -7.8180   33.1670   42.0910 F     1500  4441500    -0.1681
     15  F20       -7.8320   34.9230   40.9560 F     1500  4441500    -0.1681
     16  C23      -10.8350   34.9820   41.1850 C.ar  1500  4441500     0.0691
     17  C24      -10.9650   35.6720   42.3970 C.ar  1500  4441500     0.0159
     18  C25      -11.3790   37.0200   42.4580 C.ar  1500  4441500    -0.0000
     19  C28      -11.1600   35.7250   40.0000 C.ar  1500  4441500     0.0159
     20  C27      -11.5810   37.0740   40.0530 C.ar  1500  4441500    -0.0000
     21  C26      -11.6930   37.7790   41.2890 C.ar  1500  4441500     0.0216
     22  C33      -12.1900   39.2470   41.4800 C.3   1500  4441500     0.3171
     23  C34      -11.5510   40.2410   40.5020 C.3   1500  4441500     0.4344
     24  F36      -11.9670   41.5100   40.7690 F     1500  4441500    -0.1668
     25  F37      -10.2180   40.1500   40.5930 F     1500  4441500    -0.1668
     26  F35      -11.8190   39.9740   39.2150 F     1500  4441500    -0.1668
     27  O42      -11.9930   39.7830   42.8230 O.3   1500  4441500    -0.2033
     28  C38      -13.7280   39.2350   41.1630 C.3   1500  4441500     0.4344
     29  F39      -14.0060   38.7640   39.9130 F     1500  4441500    -0.1668
     30  F40      -14.3730   38.3940   42.0180 F     1500  4441500    -0.1668
     31  F41      -14.3970   40.4110   41.2320 F     1500  4441500    -0.1668
@<TRIPOS>BOND
     1     7     6   ar
     2     7     8   ar
     3     6     5   ar
     4     8     9   ar
     5     5     4   ar
     6     9     4   ar
     7    26    23    1
     8     4     2    1
     9    29    28    1
    10    19    20   ar
    11    19    16   ar
    12    13    12    1
    13    20    21   ar
    14    11    12    1
    15    11    10    1
    16    23    25    1
    17    23    24    1
    18    23    22    1
    19    12    15    1
    20    12    14    1
    21    28    31    1
    22    28    22    1
    23    28    30    1
    24     2    10    1
    25     2     3    2
    26     2     1    2
    27    16    10    1
    28    16    17   ar
    29    21    22    1
    30    21    18   ar
    31    22    27    1
    32    17    18   ar
