@<TRIPOS>MOLECULE
1pqu_NAP_A_1.pdb
 48 52 0 0 0
SMALL
GASTEIGER

@<TRIPOS>ATOM
      1  PA       -16.0760  193.4330   18.9060 P.3   1372  NAP1372     0.2189
      2  O1A      -14.8050  192.9750   18.3030 O.2   1372  NAP1372    -0.5170
      3  O2A      -17.0470  192.4080   19.3690 O.3   1372  NAP1372    -0.4371
      4  O5B      -15.7360  194.4160   20.1330 O.3   1372  NAP1372    -0.3112
      5  C5B      -16.7750  195.0800   20.8490 C.3   1372  NAP1372     0.1813
      6  C4B      -16.6640  194.7750   22.3520 C.3   1372  NAP1372     0.1820
      7  O4B      -16.9350  193.3910   22.7020 O.3   1372  NAP1372    -0.3136
      8  C3B      -15.3060  195.0340   22.9710 C.3   1372  NAP1372     0.2157
      9  O3B      -15.1040  196.4410   23.1500 O.3   1372  NAP1372    -0.2175
     10  C2B      -15.4330  194.3520   24.3130 C.3   1372  NAP1372     0.2314
     11  O2B      -16.0660  195.2350   25.2550 O.3   1372  NAP1372    -0.2630
     12  C1B      -16.3630  193.1580   24.0420 C.3   1372  NAP1372     0.3158
     13  N9A      -15.6290  191.8550   24.0440 N.pl3 1372  NAP1372    -0.1439
     14  C8A      -16.1090  190.6970   24.5220 C.3   1372  NAP1372     0.3377
     15  N7A      -15.1920  189.7390   24.3580 N.2   1372  NAP1372    -0.2095
     16  C5A      -14.1320  190.2850   23.7800 C.2   1372  NAP1372     0.2526
     17  C6A      -12.8910  189.7930   23.3840 C.2   1372  NAP1372     0.4393
     18  N6A      -12.5880  188.5070   23.5520 N.pl3 1372  NAP1372     0.2180
     19  N1A      -11.9960  190.6370   22.8210 N.2   1372  NAP1372     0.0021
     20  C2A      -12.2850  191.9330   22.6350 C.3   1372  NAP1372     0.5254
     21  N3A      -13.4700  192.4230   23.0060 N.2   1372  NAP1372    -0.0055
     22  C4A      -14.4020  191.6250   23.5770 C.2   1372  NAP1372     0.3518
     23  O3       -16.8590  194.3910   17.8560 O.3   1372  NAP1372    -0.2703
     24  PN       -16.1320  195.0460   16.5540 P.3   1372  NAP1372     0.2189
     25  O1N      -16.0820  194.0470   15.4550 O.2   1372  NAP1372    -0.5170
     26  O2N      -14.8740  195.7060   16.9670 O.3   1372  NAP1372    -0.4371
     27  O5D      -17.1880  196.1790   16.1120 O.3   1372  NAP1372    -0.3112
     28  C5D      -17.4450  197.2970   16.9730 C.3   1372  NAP1372     0.1813
     29  C4D      -18.3460  198.3390   16.2850 C.3   1372  NAP1372     0.1799
     30  O4D      -17.6530  198.7590   15.0430 O.3   1372  NAP1372    -0.3327
     31  C3D      -19.6580  197.7170   15.8170 C.3   1372  NAP1372     0.2158
     32  O3D      -20.7040  198.6940   15.8540 O.3   1372  NAP1372    -0.2175
     33  C2D      -19.3950  197.3140   14.3940 C.3   1372  NAP1372     0.2309
     34  O2D      -20.6060  197.2880   13.6390 O.3   1372  NAP1372    -0.2158
     35  C1D      -18.5040  198.4400   13.8980 C.3   1372  NAP1372     0.2263
     36  N1N      -17.7520  198.1800   12.6430 N.pl3 1372  NAP1372    -0.2787
     37  C2N      -17.0550  196.9560   12.4470 C.3   1372  NAP1372     0.1244
     38  C3N      -16.3120  196.7630   11.2710 C.2   1372  NAP1372     0.0544
     39  C7N      -15.5620  195.4450   11.0280 C.2   1372  NAP1372     0.2818
     40  O7N      -14.8700  195.2870   10.0180 O.2   1372  NAP1372    -0.2670
     41  N7N      -15.7190  194.5180   11.9730 N.am  1372  NAP1372    -0.0839
     42  C4N      -16.2630  197.7810   10.3020 C.2   1372  NAP1372     0.0033
     43  C5N      -16.9500  198.9900   10.4880 C.2   1372  NAP1372     0.0157
     44  C6N      -17.6980  199.1940   11.6560 C.2   1372  NAP1372     0.0633
     45  P2B      -15.4870  195.3750   26.7560 P.3   1372  NAP1372     0.5328
     46  O1X      -15.7880  193.9300   27.3710 O.3   1372  NAP1372    -0.1145
     47  O2X      -16.2990  196.3850   27.4740 O.3   1372  NAP1372    -0.1145
     48  O3X      -14.0210  195.5630   26.6780 O.2   1372  NAP1372    -0.2224
@<TRIPOS>BOND
     1    40    39    2
     2    42    43    1
     3    42    38    2
     4    43    44    2
     5    39    38    1
     6    39    41   am
     7    38    37    1
     8    44    36    1
     9    37    36    1
    10    36    35    1
    11    34    33    1
    12    35    33    1
    13    35    30    1
    14    33    31    1
    15    30    29    1
    16    25    24    2
    17    31    32    1
    18    31    29    1
    19    27    24    1
    20    27    28    1
    21    29    28    1
    22    24    26    1
    23    24    23    1
    24    23     1    1
    25     2     1    2
    26     1     3    1
    27     1     4    1
    28     4     5    1
    29     5     6    1
    30     6     7    1
    31     6     8    1
    32    20    19    1
    33    20    21    1
    34     7    12    1
    35    19    17    2
    36     8     9    1
    37     8    10    1
    38    21    22    2
    39    17    18    1
    40    17    16    1
    41    22    16    1
    42    22    13    1
    43    16    15    2
    44    12    13    1
    45    12    10    1
    46    13    14    1
    47    10    11    1
    48    15    14    1
    49    11    45    1
    50    48    45    2
    51    45    46    1
    52    45    47    1
