@<TRIPOS>MOLECULE
1pr0_NOS_A_1.pdb
 19 21 0 0 0
SMALL
GASTEIGER

@<TRIPOS>ATOM
      1  N9        90.9610   66.6840   20.2140 N.pl3 1245  NOS1245    -0.1435
      2  C4        89.8810   66.2150   19.4410 C.2   1245  NOS1245     0.3528
      3  N3        89.4360   64.9190   19.2710 N.2   1245  NOS1245    -0.0334
      4  C2        88.3540   64.7810   18.4500 C.3   1245  NOS1245     0.4017
      5  N1        87.7480   65.8630   17.8330 N.2   1245  NOS1245    -0.1458
      6  C6        88.1670   67.1980   17.9780 C.1   1245  NOS1245     0.1792
      7  O6        87.5520   68.0860   17.3810 O.2   1245  NOS1245    -0.2203
      8  C5        89.3080   67.3380   18.8440 C.2   1245  NOS1245     0.2446
      9  N7        89.9920   68.4720   19.2180 N.2   1245  NOS1245    -0.2054
     10  C8        91.0110   68.0650   20.0620 C.3   1245  NOS1245     0.3382
     11  C5'       93.2710   64.8490   18.2910 C.3   1245  NOS1245     0.2143
     12  O5'       93.7620   65.9260   17.5030 O.3   1245  NOS1245    -0.2176
     13  C4'       93.7030   65.0040   19.7710 C.3   1245  NOS1245     0.1851
     14  O4'       93.1600   66.2210   20.3330 O.3   1245  NOS1245    -0.3134
     15  C1'       91.9150   65.9850   21.0500 C.3   1245  NOS1245     0.3186
     16  C2'       91.9040   64.4530   21.2760 C.3   1245  NOS1245     0.2570
     17  O2'       91.8000   64.2160   22.6950 O.3   1245  NOS1245    -0.2130
     18  C3'       93.1990   63.8770   20.6660 C.3   1245  NOS1245     0.2186
     19  O3'       94.1970   63.6270   21.6750 O.3   1245  NOS1245    -0.2174
@<TRIPOS>BOND
     1     7     6    2
     2    12    11    1
     3     5     6    2
     4     5     4    1
     5     6     8    1
     6    11    13    1
     7     4     3    1
     8     8     9    2
     9     8     2    1
    10     9    10    1
    11     3     2    2
    12     2     1    1
    13    13    14    1
    14    13    18    1
    15    10     1    1
    16     1    15    1
    17    14    15    1
    18    18    16    1
    19    18    19    1
    20    15    16    1
    21    16    17    1
