@<TRIPOS>MOLECULE
1pr1_FMB_A_1.pdb
 19 21 0 0 0
SMALL
GASTEIGER

@<TRIPOS>ATOM
      1  N1        87.4890   65.9250   17.7080 N.2   245  FMB245     -0.1739
      2  C2        88.1440   64.8000   18.2760 C.3   245  FMB245      0.2626
      3  N3        89.2540   64.9770   19.0850 N.2   245  FMB245     -0.2399
      4  C4        89.6470   66.2750   19.3090 C.2   245  FMB245      0.1264
      5  C5        89.0050   67.4310   18.7950 C.2   245  FMB245      0.2032
      6  C6        87.8710   67.2660   17.9260 C.1   245  FMB245      0.1734
      7  O6        87.2530   68.1700   17.3840 O.2   245  FMB245     -0.2205
      8  N7        89.6040   68.5870   19.2210 N.2   245  FMB245     -0.1347
      9  N8        90.6690   68.1320   19.9920 N.2   245  FMB245     -0.1475
     10  C9        90.7400   66.7270   20.0430 C.2   245  FMB245      0.1295
     11  C1'       91.8340   66.0780   20.7670 C.3   245  FMB245      0.1910
     12  C2'       91.6940   64.5840   21.1650 C.3   245  FMB245      0.2173
     13  O2'       91.8850   64.5630   22.5730 O.3   245  FMB245     -0.2173
     14  C3'       92.7660   63.8050   20.3850 C.3   245  FMB245      0.2144
     15  O3'       93.8180   63.2550   21.2060 O.3   245  FMB245     -0.2176
     16  C4'       93.4550   64.8110   19.4940 C.3   245  FMB245      0.1814
     17  O4'       92.9400   66.1140   19.8240 O.3   245  FMB245     -0.3446
     18  C5'       93.2720   64.4190   18.0160 C.3   245  FMB245      0.2141
     19  O5'       93.3410   65.5160   17.1070 O.3   245  FMB245     -0.2176
@<TRIPOS>BOND
     1    19    18    1
     2     7     6    2
     3     1     6    2
     4     1     2    1
     5     6     5    1
     6    18    16    1
     7     2     3    1
     8     5     8    2
     9     5     4    1
    10     3     4    2
    11     8     9    1
    12     4    10    1
    13    16    17    1
    14    16    14    1
    15    17    11    1
    16     9    10    2
    17    10    11    1
    18    14    12    1
    19    14    15    1
    20    11    12    1
    21    12    13    1
