@<TRIPOS>MOLECULE
1pr2_MDR_A_1.pdb
 18 20 0 0 0
SMALL
GASTEIGER

@<TRIPOS>ATOM
      1  C6'       87.4180   67.9730   16.5920 C.3   1245  MDR1245     0.0537
      2  C6        88.0490   66.8240   17.3280 C.2   1245  MDR1245     0.0831
      3  N1        87.6420   65.5120   17.2220 N.2   1245  MDR1245    -0.2213
      4  C2        88.2790   64.5490   17.9240 C.3   1245  MDR1245     0.3916
      5  N3        89.3210   64.7470   18.7570 N.2   1245  MDR1245    -0.0349
      6  C4        89.7040   66.0880   18.8400 C.2   1245  MDR1245     0.3426
      7  C5        89.1130   67.1390   18.1610 C.2   1245  MDR1245     0.1750
      8  N7        89.7240   68.3440   18.4550 N.2   1245  MDR1245    -0.2152
      9  C8        90.6490   67.9980   19.2860 C.3   1245  MDR1245     0.3375
     10  N9        90.7390   66.7040   19.5890 N.pl3 1245  MDR1245    -0.1463
     11  C1'       91.7670   66.2290   20.5200 C.3   1245  MDR1245     0.2873
     12  C2'       91.8520   64.8480   21.1710 C.3   1245  MDR1245     0.1151
     13  C3'       92.9780   64.1190   20.4970 C.3   1245  MDR1245     0.1884
     14  O3'       93.9160   63.7060   21.4920 O.3   1245  MDR1245    -0.2202
     15  C4'       93.5120   65.1380   19.4950 C.3   1245  MDR1245     0.1824
     16  C5'       93.0560   64.8090   18.0490 C.3   1245  MDR1245     0.2142
     17  O5'       93.5360   65.7550   17.0700 O.3   1245  MDR1245    -0.2176
     18  O4'       93.0680   66.4340   19.9170 O.3   1245  MDR1245    -0.3154
@<TRIPOS>BOND
     1     1     2    1
     2    17    16    1
     3     3     2    2
     4     3     4    1
     5     2     7    1
     6     4     5    1
     7    16    15    1
     8     7     8    2
     9     7     6    1
    10     8     9    1
    11     5     6    2
    12     6    10    1
    13     9    10    1
    14    15    18    1
    15    15    13    1
    16    10    11    1
    17    18    11    1
    18    13    12    1
    19    13    14    1
    20    11    12    1
