@<TRIPOS>MOLECULE
1pr4_MTP_A_1.pdb
 20 22 0 0 0
SMALL
GASTEIGER

@<TRIPOS>ATOM
      1  O5'       93.4420   65.5490   17.3940 O.3   1245  MTP1245    -0.2176
      2  C5'       92.9680   64.5060   18.2240 C.3   1245  MTP1245     0.2143
      3  C4'       93.4380   64.6800   19.6680 C.3   1245  MTP1245     0.1851
      4  O4'       92.9840   65.8980   20.2890 O.3   1245  MTP1245    -0.3134
      5  C1'       91.6500   65.7350   20.8610 C.3   1245  MTP1245     0.3186
      6  N9        90.7570   66.5850   20.0040 N.pl3 1245  MTP1245    -0.1441
      7  C8        90.6300   67.9260   19.6810 C.3   1245  MTP1245     0.3376
      8  N7        89.6120   68.1320   18.8100 N.2   1245  MTP1245    -0.2143
      9  C5        89.0780   66.9230   18.5660 C.2   1245  MTP1245     0.1849
     10  C6        87.9930   66.6590   17.7020 C.2   1245  MTP1245     0.1305
     11  S6        87.1050   67.9170   16.7380 S.3   1245  MTP1245    -0.0926
     12  CS        85.8910   66.7860   15.9020 C.3   1245  MTP1245     0.0757
     13  N1        87.6450   65.3370   17.6320 N.2   1245  MTP1245    -0.2106
     14  C2        88.3180   64.4010   18.3490 C.3   1245  MTP1245     0.3924
     15  N3        89.3700   64.5950   19.1920 N.2   1245  MTP1245    -0.0348
     16  C4        89.7180   65.9300   19.2600 C.2   1245  MTP1245     0.3435
     17  C2'       91.6230   64.1960   21.1040 C.3   1245  MTP1245     0.2570
     18  O2'       91.4340   64.0590   22.5000 O.3   1245  MTP1245    -0.2130
     19  C3'       92.9700   63.6060   20.6100 C.3   1245  MTP1245     0.2186
     20  O3'       93.9610   63.5020   21.6290 O.3   1245  MTP1245    -0.2174
@<TRIPOS>BOND
     1    12    11    1
     2    11    10    1
     3     1     2    1
     4    13    10    2
     5    13    14    1
     6    10     9    1
     7     2     3    1
     8    14    15    1
     9     9     8    2
    10     9    16    1
    11     8     7    1
    12    15    16    2
    13    16     6    1
    14     3     4    1
    15     3    19    1
    16     7     6    1
    17     6     5    1
    18     4     5    1
    19    19    17    1
    20    19    20    1
    21     5    17    1
    22    17    18    1
