@<TRIPOS>MOLECULE
1pr5_TBN_A_1.pdb
 19 21 0 0 0
SMALL
GASTEIGER

@<TRIPOS>ATOM
      1  O5'       93.1020   65.3430   17.0350 O.3   1245  TBN1245    -0.2176
      2  C5'       92.9520   64.2410   17.9490 C.3   1245  TBN1245     0.2143
      3  C4'       93.3630   64.6330   19.3910 C.3   1245  TBN1245     0.1851
      4  O4'       93.0510   65.9980   19.6980 O.3   1245  TBN1245    -0.3132
      5  C1'       91.8750   66.0560   20.5210 C.3   1245  TBN1245     0.3212
      6  N9        90.8320   66.7750   19.7220 N.pl3 1245  TBN1245    -0.1468
      7  C8        90.7280   68.1580   19.5650 C.2   1245  TBN1245     0.1741
      8  C7        89.6670   68.4780   18.7670 C.2   1245  TBN1245     0.0420
      9  C5        89.0920   67.2960   18.4130 C.3   1245  TBN1245     0.2444
     10  C6        87.9540   67.1120   17.5810 C.2   1245  TBN1245     0.4064
     11  N1        87.6000   65.7900   17.3980 N.2   1245  TBN1245    -0.0027
     12  C2        88.3190   64.7970   17.9910 C.3   1245  TBN1245     0.5248
     13  N3        89.4130   64.9040   18.7920 N.2   1245  TBN1245    -0.0106
     14  C4        89.7640   66.2270   18.9720 C.2   1245  TBN1245     0.3215
     15  N6        87.2630   68.1100   17.0060 N.pl3 1245  TBN1245     0.2117
     16  C2'       91.6160   64.6470   21.0890 C.3   1245  TBN1245     0.2573
     17  O2'       91.8140   64.7190   22.5020 O.3   1245  TBN1245    -0.2130
     18  C3'       92.6290   63.7410   20.3970 C.3   1245  TBN1245     0.2186
     19  O3'       93.5020   63.0550   21.3100 O.3   1245  TBN1245    -0.2174
@<TRIPOS>BOND
     1    15    10    1
     2     1     2    1
     3    11    10    2
     4    11    12    1
     5    10     9    1
     6     2     3    1
     7    12    13    1
     8     9     8    1
     9     9    14    1
    10     8     7    2
    11    13    14    2
    12    14     6    1
    13     3     4    1
    14     3    18    1
    15     7     6    1
    16     4     5    1
    17     6     5    1
    18    18    16    1
    19    18    19    1
    20     5    16    1
    21    16    17    1
