@<TRIPOS>MOLECULE
1pr6_XYA_A_1.pdb
 19 21 0 0 0
SMALL
GASTEIGER

@<TRIPOS>ATOM
      1  O5'       94.3570   65.8800   17.5860 O.3   1245  XYA1245    -0.2176
      2  C5'       94.0190   65.0450   18.6880 C.3   1245  XYA1245     0.2143
      3  C4'       94.4310   65.7050   20.0140 C.3   1245  XYA1245     0.1851
      4  O4'       93.7190   66.9250   20.2390 O.3   1245  XYA1245    -0.3134
      5  C1'       92.5510   66.6860   21.0790 C.3   1245  XYA1245     0.3186
      6  N9        91.4380   67.2180   20.2220 N.pl3 1245  XYA1245    -0.1439
      7  C8        91.2990   68.5350   19.9040 C.3   1245  XYA1245     0.3377
      8  N7        90.3610   68.8410   19.0700 N.2   1245  XYA1245    -0.2095
      9  C5        89.7900   67.6020   18.7860 C.2   1245  XYA1245     0.2526
     10  C6        88.7240   67.2210   17.9440 C.2   1245  XYA1245     0.4393
     11  N1        88.3770   65.8980   17.8660 N.2   1245  XYA1245     0.0021
     12  C2        89.0580   65.0000   18.5890 C.3   1245  XYA1245     0.5254
     13  N3        90.0970   65.2490   19.4250 N.2   1245  XYA1245    -0.0055
     14  C4        90.4230   66.5850   19.4830 C.2   1245  XYA1245     0.3518
     15  N6        88.0610   68.1210   17.2320 N.pl3 1245  XYA1245     0.2180
     16  C2'       92.6170   65.1750   21.4050 C.3   1245  XYA1245     0.2570
     17  O2'       92.2500   64.8900   22.7470 O.3   1245  XYA1245    -0.2130
     18  C3'       94.1000   64.8990   21.2310 C.3   1245  XYA1245     0.2186
     19  O3'       94.4630   63.5570   21.0550 O.3   1245  XYA1245    -0.2174
@<TRIPOS>BOND
     1    15    10    1
     2     1     2    1
     3    11    10    2
     4    11    12    1
     5    10     9    1
     6    12    13    1
     7     2     3    1
     8     9     8    2
     9     9    14    1
    10     8     7    1
    11    13    14    2
    12    14     6    1
    13     7     6    1
    14     3     4    1
    15     3    18    1
    16     6     5    1
    17     4     5    1
    18    19    18    1
    19     5    16    1
    20    18    16    1
    21    16    17    1
