@<TRIPOS>MOLECULE
1pr9_NAP_A_1.pdb
 48 52 0 0 0
SMALL
GASTEIGER

@<TRIPOS>ATOM
      1  PA        16.5090   76.2340   56.9760 P.3   245  NAP245      0.2189
      2  O1A       15.5030   75.7510   57.9400 O.3   245  NAP245     -0.4371
      3  O2A       17.5510   75.3680   56.3780 O.2   245  NAP245     -0.5170
      4  O5B       17.1960   77.5790   57.5500 O.3   245  NAP245     -0.3112
      5  C5B       16.3570   78.6520   58.0420 C.3   245  NAP245      0.1813
      6  C4B       17.2300   79.4510   58.9980 C.3   245  NAP245      0.1820
      7  O4B       16.4180   80.5250   59.5680 O.3   245  NAP245     -0.3136
      8  C3B       17.7180   78.6070   60.1730 C.3   245  NAP245      0.2157
      9  O3B       19.0720   78.9340   60.5070 O.3   245  NAP245     -0.2175
     10  C2B       16.7930   79.0310   61.3070 C.3   245  NAP245      0.2314
     11  O2B       17.3500   78.8220   62.6180 O.3   245  NAP245     -0.2630
     12  C1B       16.6350   80.5260   60.9770 C.3   245  NAP245      0.3158
     13  N9A       15.4730   80.9750   61.7690 N.pl3 245  NAP245     -0.1439
     14  C8A       14.2250   80.4670   61.7190 C.3   245  NAP245      0.3377
     15  N7A       13.4050   81.1040   62.5420 N.2   245  NAP245     -0.2095
     16  C5A       14.1890   81.9980   63.1220 C.2   245  NAP245      0.2526
     17  C6A       13.8260   82.9170   64.1240 C.2   245  NAP245      0.4393
     18  N6A       12.6140   82.9460   64.6770 N.pl3 245  NAP245      0.2180
     19  N1A       14.8040   83.7680   64.5160 N.2   245  NAP245      0.0021
     20  C2A       16.0700   83.7420   64.0550 C.3   245  NAP245      0.5254
     21  N3A       16.4110   82.8530   63.1090 N.2   245  NAP245     -0.0055
     22  C4A       15.4900   81.9580   62.6470 C.2   245  NAP245      0.3518
     23  O3        15.6200   76.8860   55.7750 O.3   245  NAP245     -0.2703
     24  PN        15.9030   77.2050   54.2120 P.3   245  NAP245      0.2189
     25  O1N       15.4520   76.0350   53.4120 O.2   245  NAP245     -0.5170
     26  O2N       17.3170   77.6640   54.1610 O.3   245  NAP245     -0.4371
     27  O5D       14.9650   78.4900   53.9540 O.3   245  NAP245     -0.3112
     28  C5D       15.4400   79.8420   54.0380 C.3   245  NAP245      0.1813
     29  C4D       14.5120   80.7730   53.2660 C.3   245  NAP245      0.1799
     30  O4D       14.2720   80.1450   51.9750 O.3   245  NAP245     -0.3327
     31  C3D       13.1320   80.9100   53.9080 C.3   245  NAP245      0.2158
     32  O3D       12.5990   82.2110   53.8750 O.3   245  NAP245     -0.2175
     33  C2D       12.3490   79.7960   53.2650 C.3   245  NAP245      0.2309
     34  O2D       10.9570   80.1180   53.3910 O.3   245  NAP245     -0.2158
     35  C1D       12.8520   79.9950   51.8220 C.3   245  NAP245      0.2263
     36  N1N       12.4990   78.8790   50.9100 N.pl3 245  NAP245     -0.2787
     37  C2N       13.0510   77.6200   51.2260 C.3   245  NAP245      0.1244
     38  C3N       12.7210   76.5430   50.4080 C.2   245  NAP245      0.0544
     39  C7N       13.2300   75.1240   50.6430 C.2   245  NAP245      0.2818
     40  O7N       12.6450   74.1990   50.0710 O.2   245  NAP245     -0.2670
     41  N7N       14.2830   74.9680   51.4360 N.am  245  NAP245     -0.0839
     42  C4N       11.8650   76.7690   49.3140 C.2   245  NAP245      0.0033
     43  C5N       11.3310   77.9910   48.9270 C.2   245  NAP245      0.0157
     44  C6N       11.6590   79.0410   49.7460 C.2   245  NAP245      0.0633
     45  P2B       17.0330   77.4980   63.4940 P.3   245  NAP245      0.5328
     46  O1X       17.1350   76.3130   62.5970 O.2   245  NAP245     -0.2224
     47  O2X       18.0880   77.5610   64.5350 O.3   245  NAP245     -0.1145
     48  O3X       15.6680   77.7370   63.9990 O.3   245  NAP245     -0.1145
@<TRIPOS>BOND
     1    43    42    1
     2    43    44    2
     3    42    38    2
     4    44    36    1
     5    40    39    2
     6    38    39    1
     7    38    37    1
     8    39    41   am
     9    36    37    1
    10    36    35    1
    11    35    30    1
    12    35    33    1
    13    30    29    1
    14    33    34    1
    15    33    31    1
    16    29    31    1
    17    29    28    1
    18    25    24    2
    19    32    31    1
    20    27    28    1
    21    27    24    1
    22    26    24    1
    23    24    23    1
    24    23     1    1
    25     3     1    2
    26     1     4    1
    27     1     2    1
    28     4     5    1
    29     5     6    1
    30     6     7    1
    31     6     8    1
    32     7    12    1
    33     8     9    1
    34     8    10    1
    35    12    10    1
    36    12    13    1
    37    10    11    1
    38    14    13    1
    39    14    15    1
    40    13    22    1
    41    15    16    2
    42    46    45    2
    43    11    45    1
    44    22    21    2
    45    22    16    1
    46    21    20    1
    47    16    17    1
    48    45    48    1
    49    45    47    1
    50    20    19    1
    51    17    19    2
    52    17    18    1
