@<TRIPOS>MOLECULE
1prc_UQ1_L_1.pdb
 18 18 0 0 0
SMALL
GASTEIGER

@<TRIPOS>ATOM
      1  C1       132.1700   72.1220   -3.8560 C.2   614  UQ1614      0.2285
      2  O1       132.1580   72.0250   -5.0780 O.2   614  UQ1614     -0.2835
      3  C2       132.2720   73.4400   -3.2070 C.2   614  UQ1614      0.2140
      4  O2       132.3590   74.4740   -4.0470 O.2   614  UQ1614     -0.4652
      5  CM2      133.3950   74.5060   -5.0620 C.3   614  UQ1614      0.2528
      6  C3       132.2660   73.5690   -1.8680 C.2   614  UQ1614      0.2140
      7  O3       132.3340   74.7110   -1.1580 O.2   614  UQ1614     -0.4652
      8  CM3      132.6380   75.9950   -1.7630 C.3   614  UQ1614      0.2528
      9  C4       132.1650   72.3350   -1.0640 C.2   614  UQ1614      0.2282
     10  O4       132.1700   72.4350    0.1610 O.2   614  UQ1614     -0.2836
     11  C5       132.0730   71.0000   -1.7150 C.2   614  UQ1614      0.0198
     12  CM5      131.9750   69.7560   -0.8900 C.3   614  UQ1614      0.0343
     13  C6       132.0660   70.9100   -3.0500 C.2   614  UQ1614      0.0235
     14  C7       131.9840   69.5900   -3.7540 C.3   614  UQ1614      0.0548
     15  C8       130.6360   68.9020   -3.4890 C.2   614  UQ1614     -0.0298
     16  C9       130.3290   67.7800   -4.1570 C.2   614  UQ1614     -0.0475
     17  C10      131.3090   67.2090   -5.1710 C.3   614  UQ1614      0.0260
     18  C11      128.9920   67.0670   -3.9100 C.3   614  UQ1614      0.0260
@<TRIPOS>BOND
     1    17    16    1
     2     2     1    2
     3     5     4    1
     4    16    18    1
     5    16    15    2
     6     4     3    1
     7     1     3    1
     8     1    13    1
     9    14    15    1
    10    14    13    1
    11     3     6    2
    12    13    11    2
    13     6     7    1
    14     6     9    1
    15     8     7    1
    16    11     9    1
    17    11    12    1
    18     9    10    2
