@<TRIPOS>MOLECULE
1prc_HEM_C_1.pdb
 43 50 0 0 0
SMALL
GASTEIGER

@<TRIPOS>ATOM
      1  CHA       79.5140    9.4230   18.0350 C.2   609  HEM609      0.0000
      2  CHB       76.0200   10.2690   14.8740 C.2   609  HEM609      0.0000
      3  CHC       78.7520   13.3140   12.4090 C.2   609  HEM609      0.0000
      4  CHD       82.2900   12.1910   15.3700 C.2   609  HEM609      0.0000
      5  C1A       78.3390    9.3020   17.3440 C.ar  609  HEM609      0.0000
      6  C2A       77.2990    8.3880   17.6320 C.ar  609  HEM609      0.0000
      7  C3A       76.2910    8.6270   16.7220 C.ar  609  HEM609      0.0000
      8  C4A       76.7440    9.6650   15.8850 C.ar  609  HEM609      0.0000
      9  CMA       74.9550    7.8910   16.6510 C.3   609  HEM609      0.0000
     10  CAA       77.2340    7.3190   18.7140 C.3   609  HEM609      0.0000
     11  CBA       77.3500    5.9010   18.0680 C.3   609  HEM609      0.0000
     12  CGA       77.6110    4.7920   19.1010 C.2   609  HEM609      0.0000
     13  O1A       78.5820    4.9300   19.7500 O.co2 609  HEM609      0.0000
     14  O2A       76.6620    3.8400   19.3730 O.co2 609  HEM609      0.0000
     15  C1B       76.4240   11.2480   13.9750 C.2   609  HEM609      0.0000
     16  C2B       75.6540   11.8370   12.9530 C.2   609  HEM609      0.0000
     17  C3B       76.4590   12.6820   12.2410 C.2   609  HEM609      0.0000
     18  C4B       77.6660   12.6670   12.8760 C.2   609  HEM609      0.0000
     19  CMB       74.2130   11.5820   12.6520 C.3   609  HEM609      0.0000
     20  CAB       75.9820   13.6160   11.1710 C.3   609  HEM609      0.0000
     21  CBB       74.7830   14.3860   11.6670 C.3   609  HEM609      0.0000
     22  C1C       79.9660   13.2230   13.0070 C.ar  609  HEM609      0.0000
     23  C2C       81.0520   13.8160   12.4660 C.ar  609  HEM609      0.0000
     24  C3C       82.0930   13.4440   13.3200 C.ar  609  HEM609      0.0000
     25  C4C       81.6010   12.6070   14.2730 C.ar  609  HEM609      0.0000
     26  CMC       81.0550   14.6270   11.1690 C.3   609  HEM609      0.0000
     27  CAC       83.5080   13.8310   13.1570 C.3   609  HEM609      0.0000
     28  CBC       83.7880   15.3350   13.1620 C.3   609  HEM609      0.0000
     29  C1D       81.8570   11.4160   16.4030 C.2   609  HEM609      0.0000
     30  C2D       82.6320   11.0140   17.5260 C.2   609  HEM609      0.0000
     31  C3D       81.8620   10.2040   18.2580 C.2   609  HEM609      0.0000
     32  C4D       80.5860   10.1860   17.6490 C.2   609  HEM609      0.0000
     33  CMD       84.0530   11.3650   17.9010 C.3   609  HEM609      0.0000
     34  CAD       82.3330    9.6500   19.5730 C.3   609  HEM609      0.0000
     35  CBD       81.5460   10.4560   20.6660 C.3   609  HEM609      0.0000
     36  CGD       82.0830   10.3760   22.0590 C.2   609  HEM609      0.0000
     37  O1D       81.5280   10.9770   22.9240 O.co2 609  HEM609      0.0000
     38  O2D       83.1280    9.5340   22.2370 O.co2 609  HEM609      0.0000
     39  NA        77.9790   10.0330   16.2790 N.ar  609  HEM609      0.0000
     40  NB        77.6710   11.7450   13.8620 N.2   609  HEM609      0.0000
     41  NC        80.2800   12.5620   14.1490 N.ar  609  HEM609      0.0000
     42  ND        80.6470   10.8650   16.4820 N.2   609  HEM609      0.0000
     43 FE         79.1220   11.2340   15.1470 Fe    609  HEM609      0.0000
@<TRIPOS>BOND
     1    26    23    1
     2    20    21    1
     3    20    17    1
     4    17    18    1
     5    17    16    2
     6     3    18    2
     7     3    22    1
     8    23    22   ar
     9    23    24   ar
    10    19    16    1
    11    18    40    1
    12    16    15    1
    13    22    41   ar
    14    27    28    1
    15    27    24    1
    16    24    25   ar
    17    40    15    2
    18    40    43    1
    19    15     2    1
    20    41    25   ar
    21    41    43    1
    22    25     4    1
    23     2     8    2
    24    43    39    1
    25    43    42    1
    26     4    29    2
    27     8    39   ar
    28     8     7   ar
    29    39     5   ar
    30    29    42    1
    31    29    30    1
    32    42    32    2
    33     9     7    1
    34     7     6   ar
    35     5     6   ar
    36     5     1    2
    37    30    33    1
    38    30    31    2
    39     6    10    1
    40    32     1    1
    41    32    31    1
    42    11    10    1
    43    11    12    1
    44    31    34    1
    45    12    14   ar
    46    12    13   ar
    47    34    35    1
    48    35    36    1
    49    36    38   ar
    50    36    37   ar
