@<TRIPOS>MOLECULE
1prc_NS1_M_1.pdb
 40 39 0 0 0
SMALL
GASTEIGER

@<TRIPOS>ATOM
      1  C1       127.6620   44.7760   -9.1440 C.2   613  NS1613     -0.0478
      2  CM1      128.8130   44.4650  -10.1200 C.3   613  NS1613      0.0260
      3  CM2      126.2670   45.1260   -9.6940 C.3   613  NS1613      0.0260
      4  C2       127.8750   44.7410   -7.8290 C.2   613  NS1613     -0.0342
      5  C3       126.7260   45.0530   -6.8480 C.3   613  NS1613      0.0297
      6  C4       127.2090   44.9200   -5.3880 C.3   613  NS1613      0.0263
      7  C5       126.0580   45.2860   -4.4300 C.2   613  NS1613     -0.0478
      8  C6       124.6660   45.6160   -4.9980 C.3   613  NS1613      0.0260
      9  C7       126.2490   45.3190   -3.1140 C.2   613  NS1613     -0.0346
     10  C8       125.0740   45.7010   -2.1910 C.3   613  NS1613      0.0257
     11  C9       125.4730   45.4620   -0.7260 C.3   613  NS1613      0.0090
     12  C10      124.4500   46.0380    0.2620 C.3   613  NS1613      0.0224
     13  C11      123.0580   46.3860   -0.2000 C.3   613  NS1613      0.0047
     14  C12      124.8030   46.2530    1.5880 C.2   613  NS1613     -0.0265
     15  C13      124.1400   47.1660    2.3930 C.2   613  NS1613     -0.0052
     16  C14      124.6130   47.3650    3.6750 C.2   613  NS1613     -0.0085
     17  C15      124.0110   48.3260    4.4550 C.2   613  NS1613     -0.0395
     18  C16      122.8880   49.1370    3.8120 C.3   613  NS1613      0.0267
     19  C17      124.4950   48.6810    5.7240 C.3   613  NS1613      0.0480
     20  C18      125.2490   47.8160    6.5290 C.2   613  NS1613     -0.0218
     21  C19      125.8770   48.3430    7.6810 C.2   613  NS1613     -0.0046
     22  C20      126.6720   47.5640    8.5140 C.2   613  NS1613     -0.0046
     23  C21      127.7800   47.8290    9.3460 C.2   613  NS1613     -0.0219
     24  C22      128.1870   49.2990    9.6370 C.3   613  NS1613      0.0310
     25  C23      128.5190   46.7910    9.9570 C.2   613  NS1613     -0.0043
     26  C24      129.8710   47.0100   10.3450 C.2   613  NS1613     -0.0006
     27  C25      130.7500   45.9370   10.6420 C.2   613  NS1613     -0.0043
     28  C26      132.1430   46.0720   10.9020 C.2   613  NS1613     -0.0218
     29  C27      132.7970   47.4620   10.7750 C.3   613  NS1613      0.0310
     30  C28      132.8830   44.9620   11.3800 C.2   613  NS1613     -0.0043
     31  C29      134.2810   44.9240   11.5240 C.2   613  NS1613     -0.0010
     32  C30      134.9730   43.7630   11.9750 C.2   613  NS1613     -0.0085
     33  C31      136.3720   43.7740   12.1980 C.2   613  NS1613     -0.0439
     34  C32      137.1830   45.0260   11.8350 C.3   613  NS1613      0.0264
     35  C33      137.1450   42.5690   12.7900 C.3   613  NS1613      0.0220
     36  C34      138.6210   42.9920   12.9560 C.3   613  NS1613      0.0043
     37  C35      139.5030   41.7930   13.3510 C.3   613  NS1613      0.0003
     38  C36      140.9540   42.2600   13.5900 C.3   613  NS1613      0.0000
     39  CM3      141.5270   42.8870   12.3040 C.3   613  NS1613      0.0000
     40  CM4      141.8220   41.0600   14.0110 C.3   613  NS1613      0.0000
@<TRIPOS>BOND
     1     2     1    1
     2     3     1    1
     3     1     4    2
     4     4     5    1
     5     5     6    1
     6     6     7    1
     7     8     7    1
     8     7     9    2
     9     9    10    1
    10    10    11    1
    11    11    12    1
    12    13    12    1
    13    12    14    1
    14    14    15    2
    15    15    16    1
    16    16    17    2
    17    18    17    1
    18    17    19    1
    19    19    20    1
    20    20    21    2
    21    21    22    1
    22    22    23    2
    23    23    24    1
    24    23    25    1
    25    25    26    2
    26    26    27    1
    27    27    28    2
    28    29    28    1
    29    28    30    1
    30    30    31    2
    31    31    32    1
    32    34    33    1
    33    32    33    2
    34    33    35    1
    35    39    38    1
    36    35    36    1
    37    36    37    1
    38    37    38    1
    39    38    40    1
