@<TRIPOS>MOLECULE
1prc_MQ7_M_1.pdb
 48 49 0 0 0
SMALL
GASTEIGER

@<TRIPOS>ATOM
      1  C1       125.3270   82.5810    7.8030 C.2   608  MQ7608      0.1915
      2  O1       125.3090   82.0470    6.7050 O.2   608  MQ7608     -0.2869
      3  C2       124.5150   82.1290    8.9580 C.2   608  MQ7608      0.0165
      4  C2M      123.5890   81.0130    8.5660 C.3   608  MQ7608      0.0342
      5  C3       124.5850   82.7710   10.1090 C.2   608  MQ7608      0.0202
      6  C4       125.4630   83.8950   10.2220 C.2   608  MQ7608      0.1918
      7  O4       125.5480   84.4260   11.3510 O.2   608  MQ7608     -0.2869
      8  C5       126.3340   84.2780    9.1120 C.ar  608  MQ7608      0.0417
      9  C6       127.2560   85.2570    9.2420 C.ar  608  MQ7608      0.0033
     10  C7       128.1280   85.5530    8.1670 C.ar  608  MQ7608      0.0001
     11  C8       128.0140   84.8900    7.0020 C.ar  608  MQ7608      0.0001
     12  C9       127.0790   83.8920    6.8920 C.ar  608  MQ7608      0.0033
     13  C10      126.2650   83.6200    7.9390 C.ar  608  MQ7608      0.0417
     14  C11      123.8750   82.5920   11.4020 C.3   608  MQ7608      0.0547
     15  C12      124.5850   81.4780   12.1610 C.2   608  MQ7608     -0.0298
     16  C13      125.1530   81.6570   13.3890 C.2   608  MQ7608     -0.0475
     17  C14      125.1360   83.0280   14.0730 C.3   608  MQ7608      0.0260
     18  C15      125.7860   80.4560   14.1080 C.3   608  MQ7608      0.0264
     19  C16      124.9880   80.0120   15.3580 C.3   608  MQ7608      0.0297
     20  C17      123.5530   79.6550   14.9630 C.2   608  MQ7608     -0.0342
     21  C18      122.9860   78.4690   15.2790 C.2   608  MQ7608     -0.0478
     22  C19      123.6990   77.4120   16.1050 C.3   608  MQ7608      0.0260
     23  C20      121.5710   78.2050   14.8540 C.3   608  MQ7608      0.0263
     24  C21      120.6510   78.1610   16.0910 C.3   608  MQ7608      0.0297
     25  C22      120.3180   79.5680   16.6290 C.2   608  MQ7608     -0.0342
     26  C23      119.9850   79.6630   17.9280 C.2   608  MQ7608     -0.0478
     27  C24      119.9380   78.3720   18.7840 C.3   608  MQ7608      0.0260
     28  C25      119.6500   81.0220   18.5450 C.3   608  MQ7608      0.0263
     29  C26      118.1110   81.1810   18.5720 C.3   608  MQ7608      0.0297
     30  C27      117.8350   82.5900   19.0700 C.2   608  MQ7608     -0.0342
     31  C28      116.6470   83.1870   18.9650 C.2   608  MQ7608     -0.0478
     32  C29      115.4500   82.4850   18.3740 C.3   608  MQ7608      0.0260
     33  C30      116.5210   84.6370   19.4430 C.3   608  MQ7608      0.0263
     34  C31      115.3880   84.7800   20.4550 C.3   608  MQ7608      0.0297
     35  C32      115.3820   86.2870   20.7370 C.2   608  MQ7608     -0.0342
     36  C33      114.2390   86.9840   20.7720 C.2   608  MQ7608     -0.0478
     37  C34      112.9120   86.2350   20.6230 C.3   608  MQ7608      0.0260
     38  C35      114.2870   88.4940   21.0520 C.3   608  MQ7608      0.0263
     39  C36      113.5570   89.2740   19.9310 C.3   608  MQ7608      0.0297
     40  C37      113.5490   90.7980   20.3030 C.2   608  MQ7608     -0.0343
     41  C38      112.7600   91.6040   19.5720 C.2   608  MQ7608     -0.0482
     42  C39      111.9600   90.9400   18.4300 C.3   608  MQ7608      0.0260
     43  C40      112.6490   93.1070   19.8880 C.3   608  MQ7608      0.0217
     44  C41      112.1780   93.3100   21.3650 C.3   608  MQ7608      0.0043
     45  C42      112.0920   94.8080   21.7410 C.3   608  MQ7608      0.0003
     46  C43      111.1770   95.2420   22.6420 C.3   608  MQ7608      0.0000
     47  C44      110.4990   94.2500   23.6100 C.3   608  MQ7608      0.0000
     48  C45      110.8060   96.7360   22.7060 C.3   608  MQ7608      0.0000
@<TRIPOS>BOND
     1     2     1    2
     2    12    11   ar
     3    12    13   ar
     4    11    10   ar
     5     1    13    1
     6     1     3    1
     7    13     8   ar
     8    10     9   ar
     9     4     3    1
    10     3     5    2
    11     8     9   ar
    12     8     6    1
    13     5     6    1
    14     5    14    1
    15     6     7    2
    16    14    15    1
    17    15    16    2
    18    16    17    1
    19    16    18    1
    20    18    19    1
    21    23    21    1
    22    23    24    1
    23    20    21    2
    24    20    19    1
    25    21    22    1
    26    24    25    1
    27    25    26    2
    28    26    28    1
    29    26    27    1
    30    32    31    1
    31    42    41    1
    32    28    29    1
    33    29    30    1
    34    31    30    2
    35    31    33    1
    36    33    34    1
    37    41    43    1
    38    41    40    2
    39    43    44    1
    40    39    40    1
    41    39    38    1
    42    34    35    1
    43    37    36    1
    44    35    36    2
    45    36    38    1
    46    44    45    1
    47    45    46    1
    48    46    48    1
    49    46    47    1
