@<TRIPOS>MOLECULE
1prh_HEM_A_1.pdb
 43 50 0 0 0
SMALL
GASTEIGER

@<TRIPOS>ATOM
      1  CHA       23.1100   44.8700  191.7600 C.2   601  HEM601      0.0000
      2  CHB       23.1300   44.0900  196.4600 C.2   601  HEM601      0.0000
      3  CHC       20.2900   47.8900  197.1000 C.2   601  HEM601      0.0000
      4  CHD       19.8500   48.3100  192.3800 C.2   601  HEM601      0.0000
      5  C1A       23.4700   44.4000  193.0000 C.2   601  HEM601      0.0000
      6  C2A       24.5000   43.3900  193.2700 C.2   601  HEM601      0.0000
      7  C3A       24.4200   43.1300  194.5800 C.2   601  HEM601      0.0000
      8  C4A       23.4100   44.0000  195.1300 C.2   601  HEM601      0.0000
      9  CMA       25.2500   42.0900  195.2900 C.3   601  HEM601      0.0000
     10  CAA       25.5100   42.7500  192.3000 C.2   601  HEM601      0.0000
     11  CBA       26.6700   43.6500  191.8200 C.2   601  HEM601      0.0000
     12  CGA       27.5000   43.1200  190.6300 C.2   601  HEM601      0.0000
     13  O1A       27.7300   43.8400  189.6700 O.co2 601  HEM601      0.0000
     14  O2A       27.9600   41.9800  190.6600 O.co2 601  HEM601      0.0000
     15  C1B       22.3300   45.0500  197.0400 C.ar  601  HEM601      0.0000
     16  C2B       22.1600   45.1800  198.4700 C.ar  601  HEM601      0.0000
     17  C3B       21.3800   46.2700  198.6300 C.ar  601  HEM601      0.0000
     18  C4B       21.0600   46.7900  197.3200 C.ar  601  HEM601      0.0000
     19  CMB       22.7500   44.2900  199.5700 C.3   601  HEM601      0.0000
     20  CAB       21.0200   46.8300  199.8400 C.3   601  HEM601      0.0000
     21  CBB       19.8000   46.4700  200.5400 C.3   601  HEM601      0.0000
     22  C1C       19.9900   48.4000  195.8700 C.2   601  HEM601      0.0000
     23  C2C       19.1100   49.5600  195.6400 C.2   601  HEM601      0.0000
     24  C3C       18.9800   49.6300  194.3200 C.2   601  HEM601      0.0000
     25  C4C       19.7400   48.5500  193.7300 C.2   601  HEM601      0.0000
     26  CMC       18.4700   50.5400  196.6100 C.3   601  HEM601      0.0000
     27  CAC       18.2200   50.5800  193.6700 C.3   601  HEM601      0.0000
     28  CBC       18.8300   51.7300  193.0500 C.3   601  HEM601      0.0000
     29  C1D       20.6700   47.3800  191.7900 C.ar  601  HEM601      0.0000
     30  C2D       20.9400   47.3200  190.3600 C.ar  601  HEM601      0.0000
     31  C3D       21.8900   46.3900  190.1900 C.ar  601  HEM601      0.0000
     32  C4D       22.1700   45.8500  191.5100 C.ar  601  HEM601      0.0000
     33  CMD       20.3300   48.1900  189.2700 C.3   601  HEM601      0.0000
     34  CAD       22.6900   46.1600  188.9100 C.3   601  HEM601      0.0000
     35  CBD       21.9500   45.6000  187.6800 C.3   601  HEM601      0.0000
     36  CGD       21.5600   44.1100  187.6500 C.2   601  HEM601      0.0000
     37  O1D       21.9800   43.3100  188.5200 O.co2 601  HEM601      0.0000
     38  O2D       20.8400   43.7500  186.7100 O.co2 601  HEM601      0.0000
     39  NA        22.8400   44.8100  194.1600 N.2   601  HEM601      0.0000
     40  NB        21.6500   46.0400  196.3400 N.ar  601  HEM601      0.0000
     41  NC        20.3800   47.8100  194.6800 N.2   601  HEM601      0.0000
     42  ND        21.4400   46.4900  192.4900 N.ar  601  HEM601      0.0000
     43 FE         21.5400   46.2800  194.3900 Fe    601  HEM601      0.0000
@<TRIPOS>BOND
     1    38    36   ar
     2    36    35    1
     3    36    37   ar
     4    35    34    1
     5    34    31    1
     6    33    30    1
     7    13    12   ar
     8    31    30   ar
     9    31    32   ar
    10    30    29   ar
    11    12    14   ar
    12    12    11    1
    13    32     1    2
    14    32    42   ar
    15     1     5    1
    16    29     4    2
    17    29    42   ar
    18    11    10    2
    19    10     6    1
    20     4    25    1
    21    42    43    1
    22     5     6    1
    23     5    39    2
    24    28    27    1
    25     6     7    2
    26    27    24    1
    27    25    24    1
    28    25    41    2
    29    39    43    1
    30    39     8    1
    31    24    23    2
    32    43    41    1
    33    43    40    1
    34     7     8    1
    35     7     9    1
    36    41    22    1
    37     8     2    2
    38    23    22    1
    39    23    26    1
    40    22     3    2
    41    40    15   ar
    42    40    18   ar
    43     2    15    1
    44    15    16   ar
    45     3    18    1
    46    18    17   ar
    47    16    17   ar
    48    16    19    1
    49    17    20    1
    50    20    21    1
