@<TRIPOS>MOLECULE
1prn_C8E_A_1.pdb
 21 20 0 0 0
SMALL
GASTEIGER

@<TRIPOS>ATOM
      1  C1         4.4760   59.6610   44.5460 C.3   900  C8E900      0.0000
      2  C2         3.3960   59.0590   43.7270 C.3   900  C8E900      0.0000
      3  C3         2.1610   59.0160   44.5040 C.3   900  C8E900      0.0000
      4  C4         2.2100   57.7490   45.2500 C.3   900  C8E900      0.0000
      5  C5         2.1670   58.1750   46.6640 C.3   900  C8E900      0.0001
      6  C6         0.9610   57.6850   47.3020 C.3   900  C8E900      0.0026
      7  C7         1.4220   57.6740   48.6760 C.3   900  C8E900      0.0321
      8  C8         0.2520   57.3560   49.5030 C.3   900  C8E900      0.1423
      9  O9         0.5390   56.9510   50.8330 O.3   900  C8E900     -0.3498
     10  C10        0.9710   58.0000   51.6840 C.3   900  C8E900      0.1893
     11  C11        0.9650   57.4870   53.0900 C.3   900  C8E900      0.2376
     12  O12       -0.3110   56.9400   53.4900 O.2   900  C8E900     -0.4666
     13  C13       -0.4590   55.4810   53.4740 C.2   900  C8E900      0.2131
     14  C14       -1.6030   54.8680   52.6140 C.2   900  C8E900      0.2197
     15  O15       -2.2250   53.5560   52.7040 O.2   900  C8E900     -0.4407
     16  C16       -1.7600   52.6590   51.6900 C.2   900  C8E900      0.2197
     17  C17       -1.9840   53.0030   50.2060 C.2   900  C8E900      0.2131
     18  O18       -1.5380   52.1020   49.1750 O.2   900  C8E900     -0.4664
     19  C19       -2.2470   50.8190   49.1320 C.3   900  C8E900      0.2411
     20  C20       -3.3300   50.3630   48.0730 C.3   900  C8E900      0.2292
     21  O21       -2.9660   50.4370   46.6850 O.3   900  C8E900     -0.2162
@<TRIPOS>BOND
     1     2     3    1
     2     2     1    1
     3     3     4    1
     4     4     5    1
     5     5     6    1
     6    21    20    1
     7     6     7    1
     8    20    19    1
     9     7     8    1
    10    19    18    1
    11    18    17    1
    12     8     9    1
    13    17    16    2
    14     9    10    1
    15    10    11    1
    16    16    15    1
    17    14    15    1
    18    14    13    2
    19    11    12    1
    20    13    12    1
