@<TRIPOS>MOLECULE
1pro_A88_A_1.pdb
 43 47 0 0 0
SMALL
GASTEIGER

@<TRIPOS>ATOM
      1  N1        -8.6090   17.4790   26.9670 N.3   301  A88301     -0.1940
      2  N2        -8.6350   16.0340   26.7950 N.am  301  A88301     -0.2007
      3  C3        -8.8340   15.1390   27.7930 C.2   301  A88301      0.3212
      4  O3        -8.1960   14.0580   27.7490 O.2   301  A88301     -0.2510
      5  N4        -9.7380   15.5000   28.7370 N.am  301  A88301     -0.2577
      6  C5       -10.7830   16.4110   28.6900 C.3   301  A88301      0.1133
      7  C6       -10.5070   17.9430   28.3120 C.3   301  A88301      0.1879
      8  O6       -11.7120   18.5780   28.6250 O.3   301  A88301     -0.2198
      9  C7        -9.9550   18.2170   26.9280 C.3   301  A88301      0.1271
     10  C8        -7.5970   18.0110   27.9810 C.3   301  A88301      0.1186
     11  C9        -6.2610   18.0140   27.2600 C.ar  301  A88301     -0.0045
     12  C10       -5.9990   18.9990   26.2900 C.ar  301  A88301     -0.0029
     13  C11       -4.7980   18.9680   25.5870 C.ar  301  A88301     -0.0003
     14  C12       -3.8660   17.9650   25.8660 C.ar  301  A88301     -0.0000
     15  C13       -4.1400   16.9950   26.8340 C.ar  301  A88301     -0.0003
     16  C14       -5.3300   17.0100   27.5410 C.ar  301  A88301     -0.0029
     17  C15      -11.8350   15.7240   27.7790 C.3   301  A88301      0.0488
     18  C16      -12.5130   14.5110   28.4400 C.ar  301  A88301     -0.0204
     19  C17      -13.5150   14.6890   29.4100 C.ar  301  A88301     -0.0042
     20  C18      -14.1260   13.5700   29.9890 C.ar  301  A88301     -0.0003
     21  C19      -13.7420   12.2830   29.6090 C.ar  301  A88301     -0.0000
     22  C20      -12.7480   12.1180   28.6470 C.ar  301  A88301     -0.0003
     23  C21      -12.1290   13.2200   28.0570 C.ar  301  A88301     -0.0042
     24  C22       -9.5080   14.6890   30.0310 C.3   301  A88301      0.1219
     25  C23       -9.7610   15.3130   31.3930 C.ar  301  A88301      0.0009
     26  C24      -10.8880   14.9570   32.1220 C.ar  301  A88301      0.0376
     27  C25      -11.1060   15.5500   33.3650 C.ar  301  A88301      0.1771
     28  C26      -10.1860   16.4640   33.8690 C.ar  301  A88301      0.2293
     29  C27       -9.0600   16.8300   33.1410 C.ar  301  A88301      0.0449
     30  C28       -8.8540   16.2530   31.8950 C.ar  301  A88301      0.0009
     31  O29      -10.3860   17.0270   35.0700 O.3   301  A88301     -0.2833
     32  O30      -12.3300   15.2890   33.9950 O.3   301  A88301     -0.4682
     33  C31      -13.2190   14.1460   33.8460 C.3   301  A88301      0.2526
     34  C32       -7.9030   15.5780   25.5260 C.3   301  A88301      0.1396
     35  C33       -8.3250   16.1260   24.1900 C.ar  301  A88301      0.0024
     36  C34       -9.6010   15.8450   23.6790 C.ar  301  A88301      0.0009
     37  C35       -9.9640   16.3570   22.4350 C.ar  301  A88301      0.0449
     38  C36       -9.0500   17.1410   21.7250 C.ar  301  A88301      0.2293
     39  C37       -7.7900   17.4080   22.2460 C.ar  301  A88301      0.1771
     40  C38       -7.4230   16.8970   23.4700 C.ar  301  A88301      0.0377
     41  O39       -9.6420   17.4790   20.5660 O.3   301  A88301     -0.2833
     42  O40       -6.9770   18.2840   21.5320 O.3   301  A88301     -0.4682
     43  C41       -6.2750   19.3230   22.2660 C.3   301  A88301      0.2526
@<TRIPOS>BOND
     1    41    38    1
     2    42    39    1
     3    42    43    1
     4    38    39   ar
     5    38    37   ar
     6    39    40   ar
     7    37    36   ar
     8    40    35   ar
     9    36    35   ar
    10    35    34    1
    11    34     2    1
    12    13    14   ar
    13    13    12   ar
    14    14    15   ar
    15    12    11   ar
    16     2     1    1
    17     2     3   am
    18    15    16   ar
    19     9     1    1
    20     9     7    1
    21     1    10    1
    22    11    16   ar
    23    11    10    1
    24     4     3    2
    25    17    18    1
    26    17     6    1
    27     3     5   am
    28    23    18   ar
    29    23    22   ar
    30     7     8    1
    31     7     6    1
    32    18    19   ar
    33    22    21   ar
    34     6     5    1
    35     5    24    1
    36    19    20   ar
    37    21    20   ar
    38    24    25    1
    39    25    30   ar
    40    25    26   ar
    41    30    29   ar
    42    26    27   ar
    43    29    28   ar
    44    27    28   ar
    45    27    32    1
    46    33    32    1
    47    28    31    1
