@<TRIPOS>MOLECULE
1ps0_NAP_A_1.pdb
 48 52 0 0 0
SMALL
GASTEIGER

@<TRIPOS>ATOM
      1  PA        22.6290   47.9810   51.8110 P.3   4292  NAP4292     0.2189
      2  O1A       23.9080   48.4960   51.4850 O.3   4292  NAP4292    -0.4371
      3  O2A       21.6540   47.3360   50.8430 O.2   4292  NAP4292    -0.5170
      4  O5B       21.7600   49.1290   52.5670 O.3   4292  NAP4292    -0.3112
      5  C5B       22.1350   49.5820   53.9040 C.3   4292  NAP4292     0.1813
      6  C4B       20.7530   49.7870   54.6140 C.3   4292  NAP4292     0.1820
      7  O4B       21.0840   50.2190   56.0030 O.3   4292  NAP4292    -0.3136
      8  C3B       19.8560   50.9520   54.0660 C.3   4292  NAP4292     0.2157
      9  O3B       18.7830   50.3210   53.3590 O.3   4292  NAP4292    -0.2175
     10  C2B       19.3760   51.7400   55.2970 C.3   4292  NAP4292     0.2314
     11  O2B       18.0390   51.4020   55.8010 O.3   4292  NAP4292    -0.2630
     12  C1B       20.4800   51.4460   56.3850 C.3   4292  NAP4292     0.3158
     13  N9A       21.4460   52.5560   56.4920 N.pl3 4292  NAP4292    -0.1439
     14  C8A       22.2950   53.1470   55.5760 C.3   4292  NAP4292     0.3377
     15  N7A       23.0250   54.1420   56.0660 N.2   4292  NAP4292    -0.2095
     16  C5A       22.6260   54.2030   57.3930 C.2   4292  NAP4292     0.2526
     17  C6A       23.0490   55.0640   58.4310 C.2   4292  NAP4292     0.4393
     18  N6A       23.9660   56.0500   58.3570 N.pl3 4292  NAP4292     0.2180
     19  N1A       22.4560   54.8820   59.6900 N.2   4292  NAP4292     0.0021
     20  C2A       21.4830   53.8840   59.8960 C.3   4292  NAP4292     0.5254
     21  N3A       21.0470   53.0250   58.8980 N.2   4292  NAP4292    -0.0055
     22  C4A       21.6480   53.2210   57.6600 C.2   4292  NAP4292     0.3518
     23  O3        22.7880   46.8980   52.9420 O.3   4292  NAP4292    -0.2703
     24  PN        23.0410   45.3400   52.9100 P.3   4292  NAP4292     0.2189
     25  O1N       23.8840   44.9510   51.7550 O.2   4292  NAP4292    -0.5170
     26  O2N       21.6880   44.7360   52.9910 O.3   4292  NAP4292    -0.4371
     27  O5D       23.9030   45.1280   54.2360 O.3   4292  NAP4292    -0.3112
     28  C5D       25.2760   45.6350   54.2710 C.3   4292  NAP4292     0.1813
     29  C4D       25.7490   45.6880   55.7080 C.3   4292  NAP4292     0.1799
     30  O4D       25.7890   44.3350   56.2500 O.3   4292  NAP4292    -0.3327
     31  C3D       27.2080   46.2320   55.8670 C.3   4292  NAP4292     0.2158
     32  O3D       27.3370   47.0210   57.0720 O.3   4292  NAP4292    -0.2175
     33  C2D       28.0330   44.9490   55.8760 C.3   4292  NAP4292     0.2309
     34  O2D       29.3600   45.1130   56.3830 O.3   4292  NAP4292    -0.2158
     35  C1D       27.1610   44.0530   56.7120 C.3   4292  NAP4292     0.2263
     36  N1N       27.2920   42.5760   56.5340 N.pl3 4292  NAP4292    -0.2787
     37  C2N       27.5430   41.7000   57.6240 C.3   4292  NAP4292     0.1244
     38  C3N       27.6540   40.3240   57.3660 C.2   4292  NAP4292     0.0544
     39  C7N       27.9240   39.3600   58.5320 C.2   4292  NAP4292     0.2818
     40  O7N       28.0140   38.1950   58.2370 O.2   4292  NAP4292    -0.2670
     41  N7N       28.0500   39.7830   59.7700 N.am  4292  NAP4292    -0.0839
     42  C4N       27.5190   39.7860   56.0080 C.2   4292  NAP4292     0.0033
     43  C5N       27.2680   40.7020   54.9530 C.2   4292  NAP4292     0.0157
     44  C6N       27.1490   42.1040   55.1880 C.2   4292  NAP4292     0.0633
     45  P2B       16.7110   52.4160   55.8720 P.3   4292  NAP4292     0.5328
     46  O1X       16.4490   52.7270   57.3550 O.3   4292  NAP4292    -0.1145
     47  O2X       17.1880   53.5980   55.0870 O.2   4292  NAP4292    -0.2224
     48  O3X       15.5430   51.6590   55.2890 O.3   4292  NAP4292    -0.1145
@<TRIPOS>BOND
     1     3     1    2
     2     2     1    1
     3    25    24    2
     4     1     4    1
     5     1    23    1
     6     4     5    1
     7    24    23    1
     8    24    26    1
     9    24    27    1
    10     9     8    1
    11     5     6    1
    12     8     6    1
    13     8    10    1
    14    27    28    1
    15    28    29    1
    16     6     7    1
    17    43    44    2
    18    43    42    1
    19    47    45    2
    20    44    36    1
    21    48    45    1
    22    10    11    1
    23    10    12    1
    24    14    15    1
    25    14    13    1
    26    29    31    1
    27    29    30    1
    28    11    45    1
    29    31    33    1
    30    31    32    1
    31    45    46    1
    32    33    34    1
    33    33    35    1
    34     7    12    1
    35    42    38    2
    36    15    16    2
    37    30    35    1
    38    12    13    1
    39    13    22    1
    40    36    35    1
    41    36    37    1
    42    38    37    1
    43    38    39    1
    44    16    22    1
    45    16    17    1
    46    22    21    2
    47    40    39    2
    48    18    17    1
    49    17    19    2
    50    39    41   am
    51    21    20    1
    52    19    20    1
