@<TRIPOS>MOLECULE
1ps3_KIF_A_1.pdb
 16 17 0 0 0
SMALL
GASTEIGER

@<TRIPOS>ATOM
      1  C4        31.4730   66.7250    6.8040 C.3   1501  KIF1501     0.2054
      2  O4        31.7420   67.6100    5.7130 O.3   1501  KIF1501    -0.2184
      3  C3        32.6900   66.7920    7.8050 C.3   1501  KIF1501     0.2177
      4  O3        33.8510   66.3060    7.1450 O.3   1501  KIF1501    -0.2175
      5  C2        32.5080   66.1550    9.2240 C.3   1501  KIF1501     0.2268
      6  O2        33.2470   65.3230    9.6780 O.3   1501  KIF1501    -0.2163
      7  C1        30.9360   65.5550    9.3520 C.3   1501  KIF1501     0.2260
      8  N9        30.6120   65.4940   10.7760 N.2   1501  KIF1501    -0.1772
      9  C8        29.6480   66.3270   11.0980 C.1   1501  KIF1501     0.2069
     10  O8        29.2090   66.4430   12.2430 O.2   1501  KIF1501    -0.2176
     11  C7        29.2300   67.0570    9.8380 C.2   1501  KIF1501     0.3335
     12  O7        28.3440   67.9250    9.7440 O.2   1501  KIF1501    -0.2568
     13  N         30.0150   66.5810    8.8480 N.am  1501  KIF1501    -0.2424
     14  C5        30.0950   67.1610    7.4490 C.3   1501  KIF1501     0.1439
     15  C6        28.9260   66.6580    6.5580 C.3   1501  KIF1501     0.2045
     16  O6        27.6460   66.9110    7.1600 O.3   1501  KIF1501    -0.2185
@<TRIPOS>BOND
     1     2     1    1
     2    15    16    1
     3    15    14    1
     4     1    14    1
     5     1     3    1
     6     4     3    1
     7    14    13    1
     8     3     5    1
     9    13     7    1
    10    13    11   am
    11     5     7    1
    12     5     6    1
    13     7     8    1
    14    12    11    2
    15    11     9    1
    16     8     9    2
    17     9    10    2
