@<TRIPOS>MOLECULE
1ps6_4TP_A_1.pdb
 13 12 0 0 0
SMALL
GASTEIGER

@<TRIPOS>ATOM
      1  N          8.4100   -1.2250   -3.8220 N.3   332  4TP332     -0.1180
      2  CA         9.3810   -2.1040   -4.4900 C.3   332  4TP332      0.2269
      3  CB         8.6630   -3.0740   -5.4480 C.3   332  4TP332      0.2104
      4  OG1        7.2650   -3.1320   -5.1510 O.3   332  4TP332     -0.2183
      5  CG2        9.2810   -4.4990   -5.3680 C.3   332  4TP332      0.1885
      6  C         10.4060   -1.3090   -5.3020 C.2   332  4TP332      0.3845
      7  O         10.9320   -1.7860   -6.3260 O.co2 332  4TP332     -0.2440
      8  OXT       10.7060   -0.1700   -4.9250 O.co2 332  4TP332     -0.2440
      9  OP4        8.5870   -5.4870   -6.3140 O.3   332  4TP332     -0.2674
     10  P          9.0530   -6.9780   -6.4230 P.3   332  4TP332      0.5327
     11  OP1        8.4300   -7.5010   -7.6800 O.2   332  4TP332     -0.2224
     12  OP2       10.5950   -7.0870   -6.5920 O.3   332  4TP332     -0.1145
     13  OP3        8.5150   -7.8440   -5.2560 O.3   332  4TP332     -0.1145
@<TRIPOS>BOND
     1    11    10    2
     2    12    10    1
     3    10     9    1
     4    10    13    1
     5     7     6   ar
     6     9     5    1
     7     3     5    1
     8     3     4    1
     9     3     2    1
    10     6     8   ar
    11     6     2    1
    12     2     1    1
