@<TRIPOS>MOLECULE
1ps9_NAP_A_1.pdb
 48 52 0 0 0
SMALL
GASTEIGER

@<TRIPOS>ATOM
      1  PA        16.1640   17.2630   36.5950 P.3   703  NAP703      0.2189
      2  O1A       17.3640   16.8500   35.8180 O.2   703  NAP703     -0.5170
      3  O2A       14.9670   16.5990   36.0090 O.3   703  NAP703     -0.4371
      4  O5B       16.3340   16.7760   38.1260 O.3   703  NAP703     -0.3112
      5  C5B       17.2010   17.3900   39.1170 C.3   703  NAP703      0.1813
      6  C4B       18.7080   17.1290   38.8680 C.3   703  NAP703      0.1820
      7  O4B       19.4850   17.8920   39.8190 O.3   703  NAP703     -0.3136
      8  C3B       19.0980   15.6620   39.0310 C.3   703  NAP703      0.2157
      9  O3B       19.8540   15.1860   37.9150 O.3   703  NAP703     -0.2175
     10  C2B       19.8760   15.5780   40.3630 C.3   703  NAP703      0.2314
     11  O2B       21.1030   14.8390   40.2780 O.3   703  NAP703     -0.2630
     12  C1B       20.0930   17.0360   40.8080 C.3   703  NAP703      0.3158
     13  N9A       19.5050   17.3080   42.1620 N.pl3 703  NAP703     -0.1439
     14  C8A       18.2080   17.1660   42.6810 C.3   703  NAP703      0.3377
     15  N7A       17.8950   17.4750   43.9800 N.2   703  NAP703     -0.2095
     16  C5A       19.1690   17.8730   44.3650 C.2   703  NAP703      0.2526
     17  C6A       19.6640   18.3560   45.6550 C.2   703  NAP703      0.4393
     18  N6A       18.8690   18.4760   46.7080 N.pl3 703  NAP703      0.2180
     19  N1A       20.9530   18.6940   45.8150 N.2   703  NAP703      0.0021
     20  C2A       21.8060   18.5940   44.7960 C.3   703  NAP703      0.5254
     21  N3A       21.5550   18.1810   43.5640 N.2   703  NAP703     -0.0055
     22  C4A       20.1530   17.7800   43.2760 C.2   703  NAP703      0.3518
     23  O3        15.9740   18.7560   36.6400 O.3   703  NAP703     -0.2703
     24  PN        16.4690   19.6110   35.5010 P.3   703  NAP703      0.2189
     25  O1N       17.8030   19.1840   34.9950 O.2   703  NAP703     -0.5170
     26  O2N       16.6140   20.9990   35.9970 O.3   703  NAP703     -0.4371
     27  O5D       15.3710   19.5850   34.3220 O.3   703  NAP703     -0.3112
     28  C5D       15.4170   20.0240   32.9440 C.3   703  NAP703      0.1813
     29  C4D       14.0780   19.7630   32.2730 C.3   703  NAP703      0.1799
     30  O4D       14.1670   19.4360   30.8680 O.3   703  NAP703     -0.3327
     31  C3D       13.3100   18.5980   32.9150 C.3   703  NAP703      0.2158
     32  O3D       11.9090   18.8800   33.0230 O.3   703  NAP703     -0.2175
     33  C2D       13.5930   17.4000   32.0020 C.3   703  NAP703      0.2309
     34  O2D       12.5210   16.4550   31.9800 O.3   703  NAP703     -0.2158
     35  C1D       13.8920   18.0390   30.6160 C.3   703  NAP703      0.2263
     36  N1N       15.0870   17.4060   29.8580 N.pl3 703  NAP703     -0.2787
     37  C2N       15.1890   17.5710   28.5090 C.3   703  NAP703      0.1244
     38  C3N       16.2750   17.0040   27.7290 C.2   703  NAP703      0.0544
     39  C7N       16.4520   17.1490   26.2090 C.2   703  NAP703      0.2818
     40  O7N       17.3830   16.6560   25.5640 O.2   703  NAP703     -0.2670
     41  N7N       15.5850   17.8340   25.4780 N.am  703  NAP703     -0.0839
     42  C4N       17.2570   16.2450   28.4550 C.2   703  NAP703      0.0033
     43  C5N       17.1710   16.0610   29.8530 C.2   703  NAP703      0.0157
     44  C6N       16.0810   16.6480   30.5350 C.2   703  NAP703      0.0633
     45  P2B       21.7060   14.0450   41.5570 P.3   703  NAP703      0.5328
     46  O1X       22.4960   12.7590   41.0310 O.2   703  NAP703     -0.2224
     47  O2X       20.4990   13.5990   42.5240 O.3   703  NAP703     -0.1145
     48  O3X       22.7030   14.9980   42.3610 O.3   703  NAP703     -0.1145
@<TRIPOS>BOND
     1    41    39   am
     2    40    39    2
     3    39    38    1
     4    38    42    2
     5    38    37    1
     6    42    43    1
     7    37    36    1
     8    43    44    2
     9    36    44    1
    10    36    35    1
    11    35    30    1
    12    35    33    1
    13    30    29    1
    14    34    33    1
    15    33    31    1
    16    29    31    1
    17    29    28    1
    18    31    32    1
    19    28    27    1
    20    27    24    1
    21    25    24    2
    22    24    26    1
    23    24    23    1
    24     2     1    2
    25     3     1    1
    26     1    23    1
    27     1     4    1
    28     9     8    1
    29     4     5    1
    30     6     8    1
    31     6     5    1
    32     6     7    1
    33     8    10    1
    34     7    12    1
    35    11    10    1
    36    11    45    1
    37    10    12    1
    38    12    13    1
    39    46    45    2
    40    45    48    1
    41    45    47    1
    42    13    14    1
    43    13    22    1
    44    14    15    1
    45    22    21    2
    46    22    16    1
    47    21    20    1
    48    15    16    2
    49    16    17    1
    50    20    19    1
    51    17    19    2
    52    17    18    1
