@<TRIPOS>MOLECULE
1ps9_FMN_A_1.pdb
 31 33 0 0 0
SMALL
GASTEIGER

@<TRIPOS>ATOM
      1  N1        15.5940    7.1030    7.1820 N.2   702  FMN702     -0.2890
      2  C2        15.5320    5.9570    6.4080 C.1   702  FMN702      0.3669
      3  O2        16.2010    5.8530    5.4080 O.2   702  FMN702     -0.1744
      4  N3        14.6830    4.9660    6.8300 N.2   702  FMN702     -0.2300
      5  C4        13.8910    5.0260    7.9680 C.1   702  FMN702      0.2513
      6  O4        13.1940    4.0390    8.1860 O.2   702  FMN702     -0.2057
      7  C4A       14.0210    6.2980    8.7440 C.2   702  FMN702      0.2700
      8  N5        13.2540    6.4170    9.8990 N.2   702  FMN702     -0.3878
      9  C5A       13.2980    7.5650   10.6520 C.2   702  FMN702      0.1320
     10  C6        12.4760    7.6160   11.7770 C.2   702  FMN702      0.0250
     11  C7        12.4200    8.8000   12.5630 C.2   702  FMN702     -0.0238
     12  C7M       11.4780    8.9030   13.8020 C.3   702  FMN702      0.0308
     13  C8        13.2400    9.9050   12.2060 C.2   702  FMN702     -0.0280
     14  C8M       13.2050   11.2100   13.0410 C.3   702  FMN702      0.0304
     15  C9        14.0800    9.8280   11.1010 C.2   702  FMN702     -0.0041
     16  C9A       14.1320    8.6590   10.2810 C.3   702  FMN702      0.1497
     17  N10       14.9850    8.6020    9.0890 N.pl3 702  FMN702     -0.2691
     18  C10       14.8860    7.3740    8.3530 C.2   702  FMN702      0.2416
     19  C1'       15.8320    9.5840    8.6550 C.3   702  FMN702      0.1294
     20  C2'       15.0670   10.5660    7.7210 C.3   702  FMN702      0.2044
     21  O2'       14.7560    9.8310    6.5340 O.3   702  FMN702     -0.2185
     22  C3'       15.9050   11.7860    7.3200 C.3   702  FMN702      0.2164
     23  O3'       17.0880   11.3330    6.7000 O.3   702  FMN702     -0.2175
     24  C4'       16.2810   12.7420    8.4600 C.3   702  FMN702      0.2147
     25  O4'       15.4060   12.7760    9.6410 O.3   702  FMN702     -0.2176
     26  C5'       16.3240   14.0140    7.7120 C.3   702  FMN702      0.1892
     27  O5'       16.2740   15.1100    8.5800 O.3   702  FMN702     -0.2674
     28  P         14.9690   16.0090    8.6060 P.3   702  FMN702      0.5327
     29  O1P       15.6080   17.2010    9.2180 O.3   702  FMN702     -0.1145
     30  O2P       14.0190   15.2380    9.4750 O.3   702  FMN702     -0.1145
     31  O3P       14.5330   16.1740    7.2160 O.2   702  FMN702     -0.2224
@<TRIPOS>BOND
     1     3     2    2
     2     2     4    2
     3     2     1    2
     4    21    20    1
     5    23    22    1
     6     4     5    2
     7     1    18    2
     8    31    28    2
     9    22    20    1
    10    22    24    1
    11    26    24    1
    12    26    27    1
    13    20    19    1
    14     5     6    2
    15     5     7    1
    16    18     7    1
    17    18    17    1
    18    24    25    1
    19    27    28    1
    20    28    29    1
    21    28    30    1
    22    19    17    1
    23     7     8    2
    24    17    16    1
    25     8     9    2
    26    16     9    1
    27    16    15    1
    28     9    10    1
    29    15    13    2
    30    10    11    2
    31    13    11    1
    32    13    14    1
    33    11    12    1
