@<TRIPOS>MOLECULE
1psa_0ZL_A_1.pdb
 38 38 0 0 0
SMALL
GASTEIGER

@<TRIPOS>ATOM
      1  C3        24.5720    7.9460   -0.2480 C.3   327  0ZL327      0.0513
      2  C4        25.7930    7.7200   -1.1590 C.3   327  0ZL327      0.2103
      3  O2        26.9380    7.8830   -0.4390 O.3   327  0ZL327     -0.4335
      4  C1        28.2740    7.6890   -0.8960 C.2   327  0ZL327      0.4215
      5  O1        28.4940    7.1990   -2.0040 O.2   327  0ZL327     -0.2246
      6  N         29.2550    8.0400   -0.0610 N.am  327  0ZL327     -0.1611
      7  CA        30.6750    7.8380   -0.3540 C.3   327  0ZL327      0.1761
      8  C         31.0550    6.3760   -0.1460 C.2   327  0ZL327      0.2617
      9  O         30.4400    5.6110    0.6260 O.2   327  0ZL327     -0.2715
     10  CB        31.5760    8.6390    0.5640 C.3   327  0ZL327      0.0312
     11  CG        31.3710   10.1120    0.6760 C.3   327  0ZL327      0.0022
     12  CD1       32.3230   10.5660    1.7640 C.3   327  0ZL327      0.0001
     13  CD2       31.5580   10.8150   -0.6550 C.3   327  0ZL327      0.0001
     14  N1        32.1180    6.0320   -0.8520 N.am  327  0ZL327     -0.1963
     15  CA1       32.6630    4.7100   -0.7400 C.3   327  0ZL327      0.1728
     16  C2        34.1580    4.9210   -0.7980 C.2   327  0ZL327      0.2612
     17  O3        34.7590    4.9350   -1.8680 O.2   327  0ZL327     -0.2715
     18  CB1       32.1300    3.8920   -1.8970 C.3   327  0ZL327      0.0311
     19  CG1       32.1780    2.3930   -1.9150 C.3   327  0ZL327      0.0022
     20 CD11       31.5150    1.7800   -0.7090 C.3   327  0ZL327      0.0001
     21 CD21       31.3940    1.9660   -3.1210 C.3   327  0ZL327      0.0001
     22  C11       36.2140    5.3720    0.3670 C.3   327  0ZL327      0.1282
     23  N2        34.7760    5.2020    0.3430 N.am  327  0ZL327     -0.2031
     24  C21       36.9170    4.2000    1.0840 C.3   327  0ZL327      0.2018
     25  O21       36.1340    3.9150    2.2350 O.3   327  0ZL327     -0.2186
     26  C31       36.9180    2.9340    0.2060 C.3   327  0ZL327      0.1839
     27  O31       37.9270    3.1510   -0.7650 O.3   327  0ZL327     -0.2204
     28  C41       37.1920    1.6330    0.9010 C.3   327  0ZL327      0.0356
     29  C5        37.1210    0.4450   -0.0320 C.3   327  0ZL327      0.0026
     30  C6        35.7780    0.4500   -0.7400 C.3   327  0ZL327      0.0001
     31  C7        37.3630   -0.8360    0.7550 C.3   327  0ZL327      0.0001
     32  C7'       36.4970    6.7000    1.0190 C.3   327  0ZL327      0.0244
     33  C1'       35.8860    7.8910    0.3630 C.3   327  0ZL327      0.0018
     34  C2'       36.2150    7.9280   -1.1270 C.3   327  0ZL327      0.0001
     35  C6'       36.4150    9.0970    1.0560 C.3   327  0ZL327      0.0001
     36  C3'       35.7660    9.1850   -1.8110 C.3   327  0ZL327      0.0000
     37  C5'       35.8280   10.3150    0.4010 C.3   327  0ZL327      0.0000
     38  C4'       36.3150   10.3590   -1.0400 C.3   327  0ZL327      0.0000
@<TRIPOS>BOND
     1    21    19    1
     2     5     4    2
     3    19    18    1
     4    19    20    1
     5    18    15    1
     6    17    16    2
     7    36    34    1
     8    36    38    1
     9     2     3    1
    10     2     1    1
    11    34    33    1
    12    38    37    1
    13     4     3    1
    14     4     6   am
    15    14    15    1
    16    14     8   am
    17    16    15    1
    18    16    23   am
    19    27    26    1
    20    30    29    1
    21    13    11    1
    22     7     8    1
    23     7     6    1
    24     7    10    1
    25     8     9    2
    26    29    31    1
    27    29    28    1
    28    26    28    1
    29    26    24    1
    30    23    22    1
    31    33    32    1
    32    33    35    1
    33    22    32    1
    34    22    24    1
    35    37    35    1
    36    10    11    1
    37    11    12    1
    38    24    25    1
