@<TRIPOS>MOLECULE
1psd_NAD_A_1.pdb
 44 48 0 0 0
SMALL
GASTEIGER

@<TRIPOS>ATOM
      1  PA        43.8640    7.4920   43.9880 P.3   450  NAD450      0.2189
      2  O1A       42.3910    7.6160   44.1450 O.3   450  NAD450     -0.4371
      3  O2A       44.4510    6.3870   43.1860 O.2   450  NAD450     -0.5170
      4  O5B       44.7010    7.5760   45.3840 O.3   450  NAD450     -0.3112
      5  C5B       44.5730    8.6940   46.2640 C.3   450  NAD450      0.1813
      6  C4B       45.1960    8.3940   47.6090 C.3   450  NAD450      0.1821
      7  O4B       44.8160    9.3880   48.5850 O.3   450  NAD450     -0.3135
      8  C3B       44.7350    7.0790   48.2060 C.3   450  NAD450      0.2184
      9  O3B       45.8600    6.2650   48.4680 O.3   450  NAD450     -0.2174
     10  C2B       44.1090    7.4430   49.5430 C.3   450  NAD450      0.2570
     11  O2B       44.4120    6.5320   50.5890 O.3   450  NAD450     -0.2130
     12  C1B       44.7810    8.7300   49.8560 C.3   450  NAD450      0.3186
     13  N9A       44.0620    9.4460   50.9080 N.pl3 450  NAD450     -0.1439
     14  C8A       42.7340    9.5690   51.0160 C.3   450  NAD450      0.3377
     15  N7A       42.4110   10.5420   51.8870 N.2   450  NAD450     -0.2095
     16  C5A       43.5780   10.9890   52.3250 C.2   450  NAD450      0.2526
     17  C6A       43.7660   11.9470   53.3270 C.2   450  NAD450      0.4393
     18  N6A       42.7660   12.6180   53.8880 N.pl3 450  NAD450      0.2180
     19  N1A       45.0440   12.1930   53.6910 N.2   450  NAD450      0.0021
     20  C2A       46.0590   11.5600   53.0950 C.3   450  NAD450      0.5254
     21  N3A       45.8700   10.6320   52.1470 N.2   450  NAD450     -0.0055
     22  C4A       44.6270   10.3140   51.7410 C.2   450  NAD450      0.3518
     23  O3        44.2130    8.8550   43.3010 O.3   450  NAD450     -0.2703
     24  PN        44.8690    9.1570   41.9240 P.3   450  NAD450      0.2189
     25  O1N       44.2520    8.3560   40.8340 O.2   450  NAD450     -0.5170
     26  O2N       46.3360    9.0650   42.1420 O.3   450  NAD450     -0.4371
     27  O5D       44.3930   10.6580   41.8710 O.3   450  NAD450     -0.3112
     28  C5D       44.5760   11.5090   42.9950 C.3   450  NAD450      0.1813
     29  C4D       43.8390   12.7680   42.5940 C.3   450  NAD450      0.1799
     30  O4D       44.2710   13.2380   41.3090 O.3   450  NAD450     -0.3327
     31  C3D       42.3470   12.5370   42.4140 C.3   450  NAD450      0.2158
     32  O3D       41.6750   12.6350   43.6740 O.3   450  NAD450     -0.2175
     33  C2D       41.9320   13.7120   41.5530 C.3   450  NAD450      0.2309
     34  O2D       41.6020   14.7770   42.4550 O.3   450  NAD450     -0.2158
     35  C1D       43.2200   14.1150   40.8710 C.3   450  NAD450      0.2263
     36  N1N       43.1070   14.2730   39.4140 N.pl3 450  NAD450     -0.2787
     37  C2N       43.2650   15.5760   38.8990 C.3   450  NAD450      0.1244
     38  C3N       43.6500   15.7570   37.5670 C.2   450  NAD450      0.0544
     39  C7N       44.0310   17.1430   37.0390 C.2   450  NAD450      0.2818
     40  O7N       43.7950   17.4280   35.8690 O.2   450  NAD450     -0.2670
     41  N7N       44.4460   18.0370   37.9270 N.am  450  NAD450     -0.0839
     42  C4N       43.8160   14.6380   36.7370 C.2   450  NAD450      0.0033
     43  C5N       43.6220   13.3470   37.2270 C.2   450  NAD450      0.0157
     44  C6N       43.2710   13.1570   38.5670 C.2   450  NAD450      0.0633
@<TRIPOS>BOND
     1    40    39    2
     2    42    43    1
     3    42    38    2
     4    39    38    1
     5    39    41   am
     6    43    44    2
     7    38    37    1
     8    44    36    1
     9    37    36    1
    10    36    35    1
    11    25    24    2
    12    35    30    1
    13    35    33    1
    14    30    29    1
    15    33    31    1
    16    33    34    1
    17    27    24    1
    18    27    28    1
    19    24    26    1
    20    24    23    1
    21    31    29    1
    22    31    32    1
    23    29    28    1
    24     3     1    2
    25    23     1    1
    26     1     2    1
    27     1     4    1
    28     4     5    1
    29     5     6    1
    30     6     8    1
    31     6     7    1
    32     8     9    1
    33     8    10    1
    34     7    12    1
    35    10    12    1
    36    10    11    1
    37    12    13    1
    38    13    14    1
    39    13    22    1
    40    14    15    1
    41    22    21    2
    42    22    16    1
    43    15    16    2
    44    21    20    1
    45    16    17    1
    46    20    19    1
    47    17    19    2
    48    17    18    1
