@<TRIPOS>MOLECULE
1pss_U10_L_1.pdb
 41 41 0 0 0
SMALL
GASTEIGER

@<TRIPOS>ATOM
      1  C1        42.2970   36.0220   70.4140 C.2   272  U10272      0.0198
      2  C2        41.9900   34.7330   70.8900 C.2   272  U10272      0.2282
      3  C3        41.6950   34.5110   72.2460 C.2   272  U10272      0.2140
      4  C4        41.7000   35.6030   73.1250 C.2   272  U10272      0.2140
      5  C5        42.0080   36.9110   72.6560 C.2   272  U10272      0.2285
      6  C6        42.3100   37.1250   71.2790 C.2   272  U10272      0.0235
      7  C1M       42.6200   36.2630   68.9450 C.3   272  U10272      0.0343
      8  C3M       40.4000   32.3980   72.3040 C.3   272  U10272      0.2528
      9  C4M       40.0480   35.0290   74.8270 C.3   272  U10272      0.2528
     10  C7        42.6820   38.4300   70.5440 C.3   272  U10272      0.0548
     11  C8        42.4930   39.7170   71.1660 C.2   272  U10272     -0.0298
     12  C9        42.0950   40.7990   70.3920 C.2   272  U10272     -0.0475
     13  C10       41.9670   42.1350   71.1130 C.3   272  U10272      0.0260
     14  C11       41.7380   40.6640   68.8860 C.3   272  U10272      0.0264
     15  C12       42.6190   41.3500   67.8270 C.3   272  U10272      0.0297
     16  C13       42.1420   42.7050   67.6240 C.2   272  U10272     -0.0342
     17  C14       42.9540   43.8370   67.7270 C.2   272  U10272     -0.0478
     18  C15       42.2900   45.2050   67.5350 C.3   272  U10272      0.0260
     19  C16       44.4630   43.7440   68.0520 C.3   272  U10272      0.0263
     20  C17       45.2220   45.0540   68.4140 C.3   272  U10272      0.0297
     21  C18       45.1910   45.3290   69.8740 C.2   272  U10272     -0.0342
     22  C19       46.0330   46.2050   70.5750 C.2   272  U10272     -0.0478
     23  C20       45.8030   46.4080   72.0810 C.3   272  U10272      0.0260
     24  C21       47.1240   47.0190   69.8720 C.3   272  U10272      0.0263
     25  C22       48.3900   47.2990   70.6840 C.3   272  U10272      0.0297
     26  C23       49.5580   47.2430   69.8080 C.2   272  U10272     -0.0342
     27  C24       50.8260   47.7090   70.1280 C.2   272  U10272     -0.0478
     28  C25       51.9180   47.5450   69.0800 C.3   272  U10272      0.0260
     29  C26       51.1690   48.3400   71.4800 C.3   272  U10272      0.0263
     30  C27       51.3250   47.2870   72.5930 C.3   272  U10272      0.0297
     31  C28       52.0040   47.7730   73.7870 C.2   272  U10272     -0.0343
     32  C29       51.3500   48.3870   74.8470 C.2   272  U10272     -0.0482
     33  C30       52.1820   48.7720   76.0680 C.3   272  U10272      0.0260
     34  C31       49.8270   48.6270   74.8260 C.3   272  U10272      0.0217
     35  C32       49.2140   49.4450   75.9890 C.3   272  U10272      0.0043
     36  C33       47.7460   49.4550   75.8930 C.3   272  U10272      0.0003
     37  C34       46.9490   48.3100   76.3430 C.3   272  U10272      0.0000
     38  O2        42.0100   33.7840   70.1020 O.2   272  U10272     -0.2836
     39  O3        41.4810   33.2160   72.7430 O.2   272  U10272     -0.4652
     40  O4        41.3800   35.3630   74.4560 O.2   272  U10272     -0.4652
     41  O5        42.0310   37.8620   73.4500 O.2   272  U10272     -0.2835
@<TRIPOS>BOND
     1    18    17    1
     2    16    17    2
     3    16    15    1
     4    17    19    1
     5    15    14    1
     6    19    20    1
     7    20    21    1
     8    14    12    1
     9     7     1    1
    10    28    27    1
    11    26    27    2
    12    26    25    1
    13    24    22    1
    14    24    25    1
    15    21    22    2
    16    38     2    2
    17    27    29    1
    18    12    13    1
    19    12    11    2
    20     1     2    1
    21     1     6    2
    22    10    11    1
    23    10     6    1
    24    22    23    1
    25     2     3    1
    26     6     5    1
    27    29    30    1
    28     3    39    1
    29     3     4    2
    30     8    39    1
    31    30    31    1
    32     5     4    1
    33     5    41    2
    34     4    40    1
    35    31    32    2
    36    40     9    1
    37    34    32    1
    38    34    35    1
    39    32    33    1
    40    36    35    1
    41    36    37    1
