@<TRIPOS>MOLECULE
1pss_CRT_M_1.pdb
 42 41 0 0 0
SMALL
GASTEIGER

@<TRIPOS>ATOM
      1  C1M       56.2490   65.0500   66.0620 C.3   304  CRT304      0.1739
      2  O1        55.3960   63.9570   65.9850 O.3   304  CRT304     -0.3559
      3  C1        54.1190   63.9210   66.6350 C.3   304  CRT304      0.0933
      4  C2        53.1630   65.0810   66.2160 C.3   304  CRT304      0.0296
      5  C3        54.3320   63.9560   68.1660 C.3   304  CRT304      0.0296
      6  C4        53.4690   62.5880   66.2660 C.3   304  CRT304      0.0319
      7  C5        53.0150   62.4420   64.7890 C.3   304  CRT304      0.0278
      8  C6        53.2840   61.1510   63.9880 C.2   304  CRT304     -0.0342
      9  C7        52.7070   60.9000   62.7670 C.2   304  CRT304     -0.0438
     10  C8        51.7580   61.9500   62.1350 C.3   304  CRT304      0.0264
     11  C9        52.9710   59.6570   62.2080 C.3   304  CRT304      0.0476
     12  C10       52.3270   59.2620   60.8730 C.2   304  CRT304     -0.0221
     13  C11       52.3540   57.9070   60.1350 C.2   304  CRT304     -0.0088
     14  C12       51.7380   57.8960   58.9000 C.2   304  CRT304     -0.0261
     15  C13       51.1780   59.1910   58.2690 C.3   304  CRT304      0.0307
     16  C14       51.6300   56.7690   58.1220 C.2   304  CRT304     -0.0257
     17  C15       52.0640   55.3500   58.4590 C.3   304  CRT304      0.0510
     18  C16       52.3000   54.3200   57.3270 C.2   304  CRT304     -0.0299
     19  C17       51.3870   53.9160   56.3650 C.2   304  CRT304     -0.0478
     20  C18       49.9750   54.5260   56.2150 C.3   304  CRT304      0.0260
     21  C19       51.8090   52.9720   55.4510 C.3   304  CRT304      0.0217
     22  C20       53.2130   52.3550   55.5410 C.3   304  CRT304      0.0043
     23  C21       53.9800   51.8390   54.3220 C.3   304  CRT304      0.0003
     24  C22       53.9900   50.3830   53.8760 C.3   304  CRT304      0.0003
     25  C23       55.0590   49.5190   53.9780 C.3   304  CRT304      0.0043
     26  C24       55.0640   48.3250   53.0190 C.3   304  CRT304      0.0003
     27  C25       56.2430   49.8480   54.6010 C.3   304  CRT304      0.0257
     28  C26       57.3560   48.7600   54.7180 C.2   304  CRT304     -0.0304
     29  C27       58.7570   49.1040   55.2180 C.2   304  CRT304     -0.0267
     30  C28       59.8160   48.2370   55.1710 C.3   304  CRT304      0.0433
     31  C29       59.6180   46.7090   55.1570 C.3   304  CRT304      0.0094
     32  C30       61.0230   48.7970   55.4920 C.2   304  CRT304     -0.0267
     33  C31       62.3490   48.0530   55.3040 C.2   304  CRT304     -0.0304
     34  C32       63.6950   48.6750   55.7690 C.3   304  CRT304      0.0257
     35  C33       64.2810   49.8110   55.2520 C.3   304  CRT304      0.0043
     36  C34       64.0250   50.3360   53.8310 C.3   304  CRT304      0.0003
     37  C35       65.5970   50.3790   55.8140 C.3   304  CRT304      0.0003
     38  C36       66.9010   49.7730   55.2710 C.3   304  CRT304      0.0000
     39  C37       67.1020   48.2830   55.6370 C.3   304  CRT304      0.0000
     40  C38       67.6300   47.6490   56.7330 C.3   304  CRT304      0.0000
     41  C39       68.7990   48.2440   57.5390 C.3   304  CRT304      0.0000
     42  C40       67.6560   46.1180   56.8730 C.3   304  CRT304      0.0000
@<TRIPOS>BOND
     1    26    25    1
     2    36    35    1
     3    24    25    1
     4    24    23    1
     5    25    27    1
     6    23    22    1
     7    27    28    1
     8    28    29    2
     9    31    30    1
    10    30    29    1
    11    30    32    1
    12    35    34    1
    13    35    37    1
    14    38    39    1
    15    38    37    1
    16    33    32    2
    17    33    34    1
    18    21    22    1
    19    21    19    1
    20    39    40    1
    21    20    19    1
    22    19    18    2
    23    40    42    1
    24    40    41    1
    25    18    17    1
    26    16    17    1
    27    16    14    2
    28    15    14    1
    29    14    13    1
    30    13    12    2
    31    12    11    1
    32    10     9    1
    33    11     9    1
    34     9     8    2
    35     8     7    1
    36     7     6    1
    37     2     1    1
    38     2     3    1
    39     4     3    1
    40     6     3    1
    41     3     5    1
