@<TRIPOS>MOLECULE
1pst_U10_L_1.pdb
 41 41 0 0 0
SMALL
GASTEIGER

@<TRIPOS>ATOM
      1  C1        41.5630   36.9120   70.7610 C.2   272  U10272      0.0198
      2  C2        41.4690   35.5040   70.7270 C.2   272  U10272      0.2282
      3  C3        41.4320   34.7280   71.8920 C.2   272  U10272      0.2140
      4  C4        41.5000   35.3700   73.1250 C.2   272  U10272      0.2140
      5  C5        41.6080   36.7680   73.1780 C.2   272  U10272      0.2285
      6  C6        41.6160   37.5630   72.0120 C.2   272  U10272      0.0235
      7  C1M       41.6700   37.7010   69.4600 C.3   272  U10272      0.0343
      8  C3M       40.0890   32.7360   72.1000 C.3   272  U10272      0.2528
      9  C4M       40.1810   34.6510   74.9630 C.3   272  U10272      0.2528
     10  C7        41.5190   39.0920   72.1370 C.3   272  U10272      0.0548
     11  C8        42.8140   39.7180   72.1810 C.2   272  U10272     -0.0298
     12  C9        43.1000   40.8590   71.4540 C.2   272  U10272     -0.0475
     13  C10       44.5150   41.3920   71.5690 C.3   272  U10272      0.0260
     14  C11       42.0730   41.5560   70.5400 C.3   272  U10272      0.0264
     15  C12       42.1200   41.1080   69.0590 C.3   272  U10272      0.0297
     16  C13       41.7010   42.1710   68.1690 C.2   272  U10272     -0.0342
     17  C14       42.5690   42.9800   67.4510 C.2   272  U10272     -0.0478
     18  C15       41.9400   44.0640   66.5860 C.3   272  U10272      0.0260
     19  C16       44.1010   42.8630   67.5010 C.3   272  U10272      0.0263
     20  C17       44.8070   43.6650   68.6160 C.3   272  U10272      0.0297
     21  C18       44.7600   45.1190   68.4310 C.2   272  U10272     -0.0342
     22  C19       45.7660   46.0050   68.8200 C.2   272  U10272     -0.0478
     23  C20       45.5310   47.4900   68.5360 C.3   272  U10272      0.0260
     24  C21       47.0730   45.5110   69.4800 C.3   272  U10272      0.0263
     25  C22       47.9310   46.4880   70.3280 C.3   272  U10272      0.0297
     26  C23       49.1290   46.9530   69.5870 C.2   272  U10272     -0.0342
     27  C24       50.4100   47.1670   70.1080 C.2   272  U10272     -0.0478
     28  C25       51.5030   47.6960   69.1940 C.3   272  U10272      0.0260
     29  C26       50.7840   46.9540   71.5650 C.3   272  U10272      0.0263
     30  C27       50.6050   48.2360   72.3550 C.3   272  U10272      0.0297
     31  C28       51.6430   48.4110   73.3590 C.2   272  U10272     -0.0343
     32  C29       51.3680   48.6340   74.7060 C.2   272  U10272     -0.0482
     33  C30       52.5490   48.8430   75.6590 C.3   272  U10272      0.0260
     34  C31       49.9280   48.6900   75.2430 C.3   272  U10272      0.0217
     35  C32       49.6620   49.8170   76.2560 C.3   272  U10272      0.0043
     36  C33       48.6590   50.7470   75.7340 C.3   272  U10272      0.0003
     37  C34       48.9010   52.1920   75.7070 C.3   272  U10272      0.0000
     38  O2        41.4040   34.9340   69.6440 O.2   272  U10272     -0.2836
     39  O3        41.3390   33.3440   71.8170 O.2   272  U10272     -0.4652
     40  O4        41.4350   34.6290   74.2900 O.2   272  U10272     -0.4652
     41  O5        41.7620   37.3110   74.2680 O.2   272  U10272     -0.2835
@<TRIPOS>BOND
     1    18    17    1
     2    17    19    1
     3    17    16    2
     4    19    20    1
     5    16    15    1
     6    21    20    1
     7    21    22    2
     8    23    22    1
     9    22    24    1
    10    15    14    1
    11    28    27    1
    12     7     1    1
    13    24    25    1
    14    26    27    2
    15    26    25    1
    16    38     2    2
    17    27    29    1
    18    14    12    1
    19     2     1    1
    20     2     3    1
    21     1     6    2
    22    12    13    1
    23    12    11    2
    24    29    30    1
    25    39     3    1
    26    39     8    1
    27     3     4    2
    28     6    10    1
    29     6     5    1
    30    10    11    1
    31    30    31    1
    32     4     5    1
    33     4    40    1
    34     5    41    2
    35    31    32    2
    36    40     9    1
    37    32    34    1
    38    32    33    1
    39    34    35    1
    40    37    36    1
    41    36    35    1
