@<TRIPOS>MOLECULE
1pst_CRT_M_1.pdb
 42 41 0 0 0
SMALL
GASTEIGER

@<TRIPOS>ATOM
      1  C1M       56.2040   65.1190   65.8790 C.3   304  CRT304      0.1739
      2  O1        54.8050   65.0640   65.9070 O.3   304  CRT304     -0.3555
      3  C1        54.0040   64.2350   66.7820 C.3   304  CRT304      0.0970
      4  C2        52.6100   64.9320   66.8960 C.3   304  CRT304      0.0300
      5  C3        54.6350   64.0840   68.2080 C.3   304  CRT304      0.0300
      6  C4        53.9080   62.7970   66.1870 C.3   304  CRT304      0.0532
      7  C5        52.7830   62.6420   65.1410 C.2   304  CRT304     -0.0240
      8  C6        52.7900   61.7130   63.8990 C.2   304  CRT304     -0.0091
      9  C7        51.7530   61.8770   62.9970 C.2   304  CRT304     -0.0261
     10  C8        50.8880   63.1650   63.0030 C.3   304  CRT304      0.0307
     11  C9        51.5350   60.9810   61.9680 C.2   304  CRT304     -0.0257
     12  C10       52.2870   59.7000   61.5930 C.3   304  CRT304      0.0513
     13  C11       51.6910   58.9870   60.3630 C.2   304  CRT304     -0.0257
     14  C12       52.1800   57.8170   59.8480 C.2   304  CRT304     -0.0261
     15  C13       53.2730   57.0410   60.5800 C.3   304  CRT304      0.0307
     16  C14       51.4360   57.2210   58.8610 C.2   304  CRT304     -0.0091
     17  C15       51.8320   55.8750   58.2050 C.2   304  CRT304     -0.0265
     18  C16       50.7580   55.1250   57.4010 C.3   304  CRT304      0.0260
     19  C17       50.9280   54.0550   56.5470 C.3   304  CRT304      0.0043
     20  C18       49.7980   53.8710   55.5230 C.3   304  CRT304      0.0003
     21  C19       52.1770   53.5050   56.3210 C.3   304  CRT304      0.0003
     22  C20       52.3330   52.2500   55.4300 C.3   304  CRT304      0.0000
     23  C21       53.6450   51.9290   54.6870 C.3   304  CRT304      0.0000
     24  C22       54.1280   50.4820   54.4550 C.3   304  CRT304      0.0003
     25  C23       55.4670   50.2050   54.2980 C.3   304  CRT304      0.0043
     26  C24       56.4400   51.1870   53.6180 C.3   304  CRT304      0.0003
     27  C25       55.8290   48.8990   54.4460 C.3   304  CRT304      0.0257
     28  C26       57.2850   48.3860   54.3240 C.2   304  CRT304     -0.0307
     29  C27       58.4650   48.7770   55.2350 C.2   304  CRT304     -0.0310
     30  C28       59.6770   48.1490   55.0440 C.3   304  CRT304      0.0217
     31  C29       59.7100   46.6540   54.6650 C.3   304  CRT304      0.0047
     32  C30       60.7120   48.6340   55.7930 C.3   304  CRT304      0.0043
     33  C31       62.1900   48.2960   55.5160 C.3   304  CRT304      0.0003
     34  C32       62.9880   49.3100   54.6580 C.3   304  CRT304      0.0000
     35  C33       64.3360   49.5650   54.7910 C.3   304  CRT304      0.0003
     36  C34       64.9460   50.9310   54.4270 C.3   304  CRT304      0.0000
     37  C35       65.1690   48.8370   55.8460 C.3   304  CRT304      0.0046
     38  C36       66.6580   48.8030   55.5960 C.3   304  CRT304      0.0254
     39  C37       67.2240   47.7520   56.5550 C.2   304  CRT304     -0.0346
     40  C38       68.4810   47.2510   56.7610 C.2   304  CRT304     -0.0478
     41  C39       69.7330   47.6650   55.9610 C.3   304  CRT304      0.0260
     42  C40       68.7940   46.1520   57.7940 C.3   304  CRT304      0.0260
@<TRIPOS>BOND
     1    26    25    1
     2    25    27    1
     3    25    24    1
     4    28    27    1
     5    28    29    2
     6    36    35    1
     7    24    23    1
     8    34    35    1
     9    34    33    1
    10    31    30    1
    11    23    22    1
    12    35    37    1
    13    30    29    1
    14    30    32    1
    15    22    21    1
    16    33    32    1
    17    20    19    1
    18    38    37    1
    19    38    39    1
    20    41    40    1
    21    21    19    1
    22    19    18    1
    23    39    40    2
    24    40    42    1
    25    18    17    1
    26    17    16    2
    27    16    14    1
    28    14    13    2
    29    14    15    1
    30    13    12    1
    31    12    11    1
    32    11     9    2
    33     9    10    1
    34     9     8    1
    35     8     7    2
    36     7     6    1
    37     1     2    1
    38     2     3    1
    39     6     3    1
    40     3     4    1
    41     3     5    1
