@<TRIPOS>MOLECULE
1pt2_SUC_A_1.pdb
 23 24 0 0 0
SMALL
GASTEIGER

@<TRIPOS>ATOM
      1  C1        39.0870   37.2670   14.5830 C.3   501  SUC501      0.2713
      2  C2        39.1040   37.8480   16.0020 C.3   501  SUC501      0.2406
      3  C3        37.9750   37.3020   16.8810 C.3   501  SUC501      0.2198
      4  C4        36.6400   37.4520   16.1570 C.3   501  SUC501      0.2144
      5  C5        36.7440   36.8670   14.7450 C.3   501  SUC501      0.1835
      6  C6        35.4470   37.0850   13.9730 C.3   501  SUC501      0.2142
      7  O1        39.4010   35.8830   14.5610 O.3   501  SUC501     -0.3033
      8  O2        40.3420   37.5540   16.5890 O.3   501  SUC501     -0.2149
      9  O3        37.9380   37.9550   18.1460 O.3   501  SUC501     -0.2174
     10  O4        35.6150   36.7760   16.8650 O.3   501  SUC501     -0.2176
     11  O5        37.8080   37.4510   14.0140 O.3   501  SUC501     -0.3256
     12  O6        35.2860   38.4540   13.6950 O.3   501  SUC501     -0.2176
     13  C1'       41.7970   35.6950   14.3860 C.3   501  SUC501      0.2406
     14  C2'       40.4510   35.5170   13.6770 C.3   501  SUC501      0.2516
     15  C3'       40.2370   34.0680   13.2380 C.3   501  SUC501      0.2381
     16  C4'       39.2610   34.2380   12.0910 C.3   501  SUC501      0.2167
     17  C5'       39.6720   35.5700   11.4830 C.3   501  SUC501      0.1835
     18  C6'       38.4820   36.3600   10.9650 C.3   501  SUC501      0.2142
     19  O1'       42.3790   36.9410   14.0930 O.3   501  SUC501     -0.2149
     20  O2'       40.3630   36.2900   12.4850 O.3   501  SUC501     -0.3272
     21  O3'       39.7500   33.2400   14.2780 O.3   501  SUC501     -0.2150
     22  O4'       39.3600   33.2140   11.1340 O.3   501  SUC501     -0.2175
     23  O6'       38.9160   37.6170   10.4860 O.3   501  SUC501     -0.2176
@<TRIPOS>BOND
     1    23    18    1
     2    18    17    1
     3    22    16    1
     4    17    16    1
     5    17    20    1
     6    16    15    1
     7    20    14    1
     8    15    14    1
     9    15    21    1
    10    14    13    1
    11    14     7    1
    12    12     6    1
    13     6     5    1
    14    11     1    1
    15    11     5    1
    16    19    13    1
    17     7     1    1
    18     1     2    1
    19     5     4    1
    20     2     8    1
    21     2     3    1
    22     4    10    1
    23     4     3    1
    24     3     9    1
