@<TRIPOS>MOLECULE
1pt9_TAP_A_1.pdb
 48 52 0 0 0
SMALL
GASTEIGER

@<TRIPOS>ATOM
      1  PA        41.7460   27.5570   24.0610 P.3   300  TAP300      0.2189
      2  O1A       40.7950   26.7360   23.4680 O.2   300  TAP300     -0.5170
      3  O2A       42.3760   27.6900   25.3420 O.3   300  TAP300     -0.4371
      4  O5B       42.2250   28.5470   22.9760 O.3   300  TAP300     -0.3112
      5  C5B       43.5400   29.0080   22.9800 C.3   300  TAP300      0.1813
      6  C4B       43.7640   29.1740   21.5150 C.3   300  TAP300      0.1820
      7  O4B       44.4230   30.3630   21.1230 O.3   300  TAP300     -0.3136
      8  C3B       44.6860   27.9910   21.2480 C.3   300  TAP300      0.2157
      9  O3B       44.2540   26.7930   20.6020 O.3   300  TAP300     -0.2175
     10  C2B       45.9070   28.5940   20.5850 C.3   300  TAP300      0.2314
     11  O2B       46.2640   28.0070   19.3260 O.3   300  TAP300     -0.2630
     12  C1B       45.5960   30.0930   20.4280 C.3   300  TAP300      0.3158
     13  N9A       46.6520   31.0320   20.8030 N.pl3 300  TAP300     -0.1439
     14  C8A       47.4570   31.0690   21.9130 C.3   300  TAP300      0.3377
     15  N7A       48.2970   32.1080   21.8080 N.2   300  TAP300     -0.2095
     16  C5A       48.0150   32.6910   20.6680 C.2   300  TAP300      0.2526
     17  C6A       48.5780   33.8070   20.0560 C.2   300  TAP300      0.4393
     18  N6A       49.5700   34.4660   20.6330 N.pl3 300  TAP300      0.2180
     19  N1A       48.0910   34.2440   18.8050 N.2   300  TAP300      0.0021
     20  C2A       47.0750   33.6000   18.1690 C.3   300  TAP300      0.5254
     21  N3A       46.5370   32.5120   18.7760 N.2   300  TAP300     -0.0055
     22  C4A       46.9830   32.0440   20.0090 C.2   300  TAP300      0.3518
     23  O3        40.6290   28.5600   24.6010 O.3   300  TAP300     -0.2703
     24  PN        39.1890   29.4690   24.4680 P.3   300  TAP300      0.2189
     25  O1N       38.4940   29.3430   23.2220 O.2   300  TAP300     -0.5170
     26  O2N       39.5770   30.8350   24.7880 O.3   300  TAP300     -0.4371
     27  O5D       38.5080   28.6660   25.6700 O.3   300  TAP300     -0.3112
     28  C5D       39.0880   28.6980   26.9680 C.3   300  TAP300      0.1813
     29  C4D       39.3400   27.2920   27.4720 C.3   300  TAP300      0.1799
     30  O4D       39.9400   27.3870   28.7750 O.3   300  TAP300     -0.3327
     31  C3D       38.0580   26.4460   27.6940 C.3   300  TAP300      0.2158
     32  O3D       38.3180   25.0420   27.3960 O.3   300  TAP300     -0.2175
     33  C2D       37.7390   26.6160   29.1770 C.3   300  TAP300      0.2309
     34  O2D       36.9080   25.5670   29.6670 O.3   300  TAP300     -0.2158
     35  C1D       39.1290   26.7150   29.7710 C.3   300  TAP300      0.2263
     36  N1N       39.1310   27.4770   31.0170 N.pl3 300  TAP300     -0.2788
     37  C2N       38.3830   28.7120   31.1060 C.3   300  TAP300      0.1216
     38  C3N       38.4000   29.4360   32.3130 C.2   300  TAP300      0.0211
     39  C7N       37.6040   30.7430   32.4350 C.2   300  TAP300      0.1221
     40  S7N       36.8280   31.0220   33.8330 S.2   300  TAP300     -0.0315
     41  N7N       37.4750   31.6440   31.4650 N.am  300  TAP300     -0.1207
     42  C4N       39.1770   28.8940   33.4030 C.2   300  TAP300      0.0006
     43  C5N       39.9340   27.6590   33.3280 C.2   300  TAP300      0.0156
     44  C6N       39.9070   26.9360   32.1060 C.2   300  TAP300      0.0633
     45  P2B       47.7690   28.0390   18.7050 P.3   300  TAP300      0.5328
     46  O1X       48.0700   29.5120   18.4750 O.3   300  TAP300     -0.1145
     47  O2X       48.6360   27.3630   19.7040 O.3   300  TAP300     -0.1145
     48  O3X       47.6520   27.3150   17.3800 O.2   300  TAP300     -0.2224
@<TRIPOS>BOND
     1    48    45    2
     2    20    21    1
     3    20    19    1
     4    46    45    1
     5    45    11    1
     6    45    47    1
     7    21    22    2
     8    19    17    2
     9    11    10    1
    10    22    16    1
    11    22    13    1
    12    17    18    1
    13    17    16    1
    14    12    10    1
    15    12    13    1
    16    12     7    1
    17    10     8    1
    18     9     8    1
    19    16    15    2
    20    13    14    1
    21     7     6    1
    22     8     6    1
    23     6     5    1
    24    15    14    1
    25     4     5    1
    26     4     1    1
    27    25    24    2
    28     2     1    2
    29     1    23    1
    30     1     3    1
    31    24    23    1
    32    24    26    1
    33    24    27    1
    34    27    28    1
    35    28    29    1
    36    32    31    1
    37    29    31    1
    38    29    30    1
    39    31    33    1
    40    30    35    1
    41    33    34    1
    42    33    35    1
    43    35    36    1
    44    36    37    1
    45    36    44    1
    46    37    38    1
    47    41    39    1
    48    44    43    2
    49    38    39    1
    50    38    42    2
    51    39    40    2
    52    43    42    1
