@<TRIPOS>MOLECULE
1ptg_INS_A_1.pdb
 12 12 0 0 0
SMALL
GASTEIGER

@<TRIPOS>ATOM
      1  C1        20.5000   26.6600  102.9020 C.3   801  INS801      0.2175
      2  C2        20.3160   28.0790  103.2730 C.3   801  INS801      0.2175
      3  C3        21.6920   28.7790  103.5150 C.3   801  INS801      0.2175
      4  C4        22.5120   28.6570  102.2690 C.3   801  INS801      0.2175
      5  C5        22.8670   27.2080  102.1770 C.3   801  INS801      0.2175
      6  C6        21.5470   26.4060  101.8810 C.3   801  INS801      0.2175
      7  O1        19.2430   26.0540  102.5300 O.3   801  INS801     -0.2175
      8  O2        19.5360   28.7690  102.2790 O.3   801  INS801     -0.2175
      9  O3        21.5450   30.1520  103.8750 O.3   801  INS801     -0.2175
     10  O4        23.6630   29.4880  102.3050 O.3   801  INS801     -0.2175
     11  O5        23.8370   27.0380  101.1550 O.3   801  INS801     -0.2175
     12  O6        21.8050   24.9940  101.7850 O.3   801  INS801     -0.2175
@<TRIPOS>BOND
     1    11     5    1
     2    12     6    1
     3     6     5    1
     4     6     1    1
     5     5     4    1
     6     4    10    1
     7     4     3    1
     8     8     2    1
     9     7     1    1
    10     1     2    1
    11     2     3    1
    12     3     9    1
