@<TRIPOS>MOLECULE
1pth_NAG_A_1.pdb
 14 14 0 0 0
SMALL
GASTEIGER

@<TRIPOS>ATOM
      1  C1        25.5950    5.7190  191.8800 C.3   661  NAG661      0.1665
      2  C2        24.6510    4.5460  192.1520 C.3   661  NAG661      0.1576
      3  C3        23.8460    4.2400  190.9140 C.3   661  NAG661      0.2069
      4  C4        23.0670    5.4780  190.5130 C.3   661  NAG661      0.2134
      5  C5        24.0500    6.6270  190.2880 C.3   661  NAG661      0.1809
      6  C6        23.3350    7.9350  189.9750 C.3   661  NAG661      0.2141
      7  C7        25.4810    3.0160  193.8250 C.2   661  NAG661      0.2420
      8  C8        26.2580    1.7390  194.1360 C.3   661  NAG661      0.0964
      9  N2        25.3850    3.3530  192.5400 N.am  661  NAG661     -0.2019
     10  O3        22.9590    3.1650  191.1810 O.3   661  NAG661     -0.2184
     11  O4        22.3210    5.2200  189.3250 O.3   661  NAG661     -0.2176
     12  O5        24.8300    6.8540  191.4790 O.3   661  NAG661     -0.3489
     13  O6        22.6360    8.4390  191.1140 O.3   661  NAG661     -0.2176
     14  O7        25.0080    3.7100  194.7400 O.2   661  NAG661     -0.2733
@<TRIPOS>BOND
     1    11     4    1
     2     6     5    1
     3     6    13    1
     4     5     4    1
     5     5    12    1
     6     4     3    1
     7     3    10    1
     8     3     2    1
     9    12     1    1
    10     1     2    1
    11     2     9    1
    12     9     7   am
    13     7     8    1
    14     7    14    2
