@<TRIPOS>MOLECULE
1pth_HEM_A_1.pdb
 43 50 0 0 0
SMALL
GASTEIGER

@<TRIPOS>ATOM
      1  CHA       23.3980   44.6670  193.2970 C.2   601  HEM601      0.0000
      2  CHB       20.1550   48.1440  193.8500 C.2   601  HEM601      0.0000
      3  CHC       20.5380   47.9370  198.6000 C.2   601  HEM601      0.0000
      4  CHD       23.4250   44.0810  198.0120 C.2   601  HEM601      0.0000
      5  C1A       22.6410   45.7990  193.0460 C.ar  601  HEM601      0.0000
      6  C2A       22.2560   46.1940  191.6600 C.ar  601  HEM601      0.0000
      7  C3A       21.2910   47.0470  191.8660 C.ar  601  HEM601      0.0000
      8  C4A       21.0530   47.2370  193.3030 C.ar  601  HEM601      0.0000
      9  CMA       20.5790   47.6120  190.6860 C.3   601  HEM601      0.0000
     10  CAA       22.7060   45.6760  190.2730 C.3   601  HEM601      0.0000
     11  CBA       22.0370   44.4550  189.5860 C.3   601  HEM601      0.0000
     12  CGA       20.8300   44.8250  188.7170 C.2   601  HEM601      0.0000
     13  O1A       21.0300   45.3250  187.5810 O.co2 601  HEM601      0.0000
     14  O2A       19.6810   44.6090  189.1700 O.co2 601  HEM601      0.0000
     15  C1B       20.0550   48.5050  195.1780 C.2   601  HEM601      0.0000
     16  C2B       19.3490   49.7300  195.6830 C.2   601  HEM601      0.0000
     17  C3B       19.4300   49.6860  197.0390 C.2   601  HEM601      0.0000
     18  C4B       20.2590   48.4410  197.3410 C.2   601  HEM601      0.0000
     19  CMB       18.6630   50.8330  194.8730 C.3   601  HEM601      0.0000
     20  CAB       18.7650   50.5320  197.9630 C.3   601  HEM601      0.0000
     21  CBB       18.3630   51.9340  197.8570 C.3   601  HEM601      0.0000
     22  C1C       21.3380   46.8250  198.8040 C.ar  601  HEM601      0.0000
     23  C2C       21.7090   46.3560  200.0750 C.ar  601  HEM601      0.0000
     24  C3C       22.5920   45.3800  199.9230 C.ar  601  HEM601      0.0000
     25  C4C       22.7110   45.1510  198.5500 C.ar  601  HEM601      0.0000
     26  CMC       21.1320   46.8750  201.3630 C.3   601  HEM601      0.0000
     27  CAC       23.2690   44.7160  200.8760 C.3   601  HEM601      0.0000
     28  CBC       22.5740   43.6140  201.4130 C.3   601  HEM601      0.0000
     29  C1D       23.6560   43.9100  196.6650 C.2   601  HEM601      0.0000
     30  C2D       24.6470   43.0110  196.1160 C.2   601  HEM601      0.0000
     31  C3D       24.6480   43.1800  194.7870 C.2   601  HEM601      0.0000
     32  C4D       23.6520   44.1860  194.5400 C.2   601  HEM601      0.0000
     33  CMD       25.6690   42.2350  196.9260 C.3   601  HEM601      0.0000
     34  CAD       25.6080   42.5990  193.7620 C.3   601  HEM601      0.0000
     35  CBD       26.6720   43.5940  193.3190 C.3   601  HEM601      0.0000
     36  CGD       27.6300   43.0520  192.2500 C.2   601  HEM601      0.0000
     37  O1D       27.7790   41.8180  192.1140 O.co2 601  HEM601      0.0000
     38  O2D       28.2580   43.8750  191.5490 O.co2 601  HEM601      0.0000
     39  NA        21.9230   46.4810  194.0310 N.ar  601  HEM601      0.0000
     40  NB        20.6900   47.7880  196.1710 N.2   601  HEM601      0.0000
     41  NC        21.9910   46.0930  197.8310 N.ar  601  HEM601      0.0000
     42  ND        23.1130   44.7180  195.6890 N.2   601  HEM601      0.0000
     43 FE         22.0070   46.3400  195.9110 Fe    601  HEM601      0.0000
@<TRIPOS>BOND
     1    13    12   ar
     2    12    14   ar
     3    12    11    1
     4    11    10    1
     5    10     6    1
     6     9     7    1
     7    38    36   ar
     8     6     7   ar
     9     6     5   ar
    10     7     8   ar
    11    37    36   ar
    12    36    35    1
    13     5     1    2
    14     5    39   ar
    15     1    32    1
    16     8     2    2
    17     8    39   ar
    18    35    34    1
    19    34    31    1
    20     2    15    1
    21    39    43    1
    22    32    31    1
    23    32    42    2
    24    31    30    2
    25    19    16    1
    26    15    16    1
    27    15    40    2
    28    16    17    2
    29    42    43    1
    30    42    29    1
    31    43    40    1
    32    43    41    1
    33    30    29    1
    34    30    33    1
    35    40    18    1
    36    29     4    2
    37    17    18    1
    38    17    20    1
    39    18     3    2
    40    41    25   ar
    41    41    22   ar
    42    21    20    1
    43     4    25    1
    44    25    24   ar
    45     3    22    1
    46    22    23   ar
    47    24    23   ar
    48    24    27    1
    49    23    26    1
    50    27    28    1
