@<TRIPOS>MOLECULE
1pth_SAL_A_1.pdb
 10 10 0 0 0
SMALL
GASTEIGER

@<TRIPOS>ATOM
      1  C1'       27.7110   32.1490  212.5230 C.2   710  SAL710      0.3909
      2  O1'       26.8110   31.2170  212.7110 O.co2 710  SAL710     -0.2404
      3  O2'       28.8180   32.0880  213.0660 O.co2 710  SAL710     -0.2404
      4  C1        27.3170   33.2520  211.6530 C.ar  710  SAL710      0.1186
      5  C2        28.2150   34.2960  211.3810 C.ar  710  SAL710      0.2020
      6  C3        27.8220   35.3380  210.5600 C.ar  710  SAL710      0.0422
      7  C4        26.5610   35.3530  210.0050 C.ar  710  SAL710      0.0033
      8  C5        25.6680   34.3280  210.2640 C.ar  710  SAL710      0.0004
      9  C6        26.0460   33.2950  211.0760 C.ar  710  SAL710      0.0098
     10  O2        29.4690   34.3420  211.8980 O.3   710  SAL710     -0.2863
@<TRIPOS>BOND
     1     7     8   ar
     2     7     6   ar
     3     8     9   ar
     4     6     5   ar
     5     9     4   ar
     6     5     4   ar
     7     5    10    1
     8     4     1    1
     9     1     2   ar
    10     1     3   ar
