@<TRIPOS>MOLECULE
1ptj_SND_A_1.pdb
 44 48 0 0 0
SMALL
GASTEIGER

@<TRIPOS>ATOM
      1  PA        -7.4840    5.9570   26.9500 P.3   500  SND500      0.2189
      2  O1A       -7.2170    4.5570   27.3700 O.2   500  SND500     -0.5170
      3  O2A       -7.0070    6.9270   27.9710 O.3   500  SND500     -0.4371
      4  O5B       -9.0430    6.1670   26.6690 O.3   500  SND500     -0.3112
      5  C5B      -10.0130    5.1120   26.8380 C.3   500  SND500      0.1813
      6  C4B      -11.2870    5.4960   26.1230 C.3   500  SND500      0.1821
      7  O4B      -12.0700    6.2890   27.0510 O.3   500  SND500     -0.3135
      8  C3B      -11.1780    6.4280   24.8900 C.3   500  SND500      0.2184
      9  O3B      -11.5600    5.8990   23.6450 O.3   500  SND500     -0.2174
     10  C2B      -11.9750    7.6580   25.3090 C.3   500  SND500      0.2570
     11  O2B      -12.4670    8.4550   24.2590 O.3   500  SND500     -0.2130
     12  C1B      -12.9920    6.9850   26.2220 C.3   500  SND500      0.3186
     13  N9A      -13.7850    7.8510   27.1450 N.pl3 500  SND500     -0.1439
     14  C8A      -13.3340    8.7820   28.0650 C.3   500  SND500      0.3377
     15  N7A      -14.3190    9.3900   28.7500 N.2   500  SND500     -0.2095
     16  C5A      -15.4640    8.8190   28.2420 C.2   500  SND500      0.2526
     17  C6A      -16.8600    9.0100   28.5320 C.2   500  SND500      0.4393
     18  N6A      -17.3190    9.8680   29.4420 N.pl3 500  SND500      0.2180
     19  N1A      -17.7940    8.2360   27.8040 N.2   500  SND500      0.0021
     20  C2A      -17.3490    7.3200   26.8390 C.3   500  SND500      0.5254
     21  N3A      -16.0750    7.0880   26.5170 N.2   500  SND500     -0.0055
     22  C4A      -15.1620    7.8620   27.2450 C.2   500  SND500      0.3518
     23  O3        -7.0820    6.2450   25.4630 O.3   500  SND500     -0.2703
     24  PN        -6.4580    5.2960   24.4410 P.3   500  SND500      0.2189
     25  O1N       -7.3170    4.0960   24.2650 O.2   500  SND500     -0.5170
     26  O2N       -5.1240    4.8680   24.9220 O.3   500  SND500     -0.4371
     27  O5D       -6.3190    6.0290   23.1470 O.3   500  SND500     -0.3112
     28  C5D       -7.3300    6.3690   22.2570 C.3   500  SND500      0.1813
     29  C4D       -7.1940    6.9910   21.1480 C.3   500  SND500      0.1799
     30  O4D       -5.8530    7.5780   21.1570 O.3   500  SND500     -0.3327
     31  C3D       -7.2680    5.9400   20.0280 C.3   500  SND500      0.2158
     32  O3D       -8.1670    6.4130   19.0160 O.3   500  SND500     -0.2175
     33  C2D       -5.8020    5.7800   19.5740 C.3   500  SND500      0.2309
     34  O2D       -5.6170    5.7110   18.4640 O.3   500  SND500     -0.2158
     35  C1D       -5.0470    6.9940   20.1040 C.3   500  SND500      0.2263
     36  N1N       -3.7160    6.7160   20.5750 N.pl3 500  SND500     -0.2788
     37  C2N       -2.6650    7.2990   19.8480 C.3   500  SND500      0.1216
     38  C3N       -1.3410    7.0600   20.2630 C.2   500  SND500      0.0211
     39  C7N       -0.0100    7.5970   19.6130 C.2   500  SND500      0.1221
     40  S7N       -0.1780    8.5040   18.2850 S.2   500  SND500     -0.0315
     41  N7N        1.2310    7.1860   19.9320 N.am  500  SND500     -0.1207
     42  C4N       -1.0500    6.2200   21.4300 C.2   500  SND500      0.0006
     43  C5N       -2.1640    5.6650   22.1140 C.2   500  SND500      0.0156
     44  C6N       -3.5040    5.8490   21.7740 C.2   500  SND500      0.0633
@<TRIPOS>BOND
     1    40    39    2
     2    34    33    1
     3    32    31    1
     4    33    31    1
     5    33    35    1
     6    39    41    1
     7    39    38    1
     8    37    38    1
     9    37    36    1
    10    31    29    1
    11    35    36    1
    12    35    30    1
    13    38    42    2
    14    36    44    1
    15    29    30    1
    16    29    28    1
    17    42    43    1
    18    44    43    2
    19    28    27    1
    20    27    24    1
    21     9     8    1
    22    11    10    1
    23    25    24    2
    24    24    26    1
    25    24    23    1
    26     8    10    1
    27     8     6    1
    28    10    12    1
    29    23     1    1
    30     6     5    1
    31     6     7    1
    32    12     7    1
    33    12    13    1
    34    21    20    1
    35    21    22    2
    36     4     5    1
    37     4     1    1
    38    20    19    1
    39     1     2    2
    40     1     3    1
    41    13    22    1
    42    13    14    1
    43    22    16    1
    44    19    17    2
    45    14    15    1
    46    16    17    1
    47    16    15    2
    48    17    18    1
