@<TRIPOS>MOLECULE
1ptj_NAP_C_1.pdb
 48 52 0 0 0
SMALL
GASTEIGER

@<TRIPOS>ATOM
      1  PA       -24.9650  -36.8070    7.7130 P.3   300  NAP300      0.2189
      2  O1A      -25.9160  -37.9310    7.7970 O.2   300  NAP300     -0.5170
      3  O2A      -24.1400  -36.1640    8.7530 O.3   300  NAP300     -0.4371
      4  O5B      -24.9820  -36.0830    6.2960 O.3   300  NAP300     -0.3112
      5  C5B      -23.7000  -35.8430    5.7120 C.3   300  NAP300      0.1813
      6  C4B      -23.7330  -35.2380    4.3170 C.3   300  NAP300      0.1820
      7  O4B      -22.5150  -34.6040    3.9280 O.3   300  NAP300     -0.3136
      8  C3B      -23.7750  -36.4540    3.3670 C.3   300  NAP300      0.2157
      9  O3B      -24.7650  -36.2940    2.3410 O.3   300  NAP300     -0.2175
     10  C2B      -22.3620  -36.6550    2.8130 C.3   300  NAP300      0.2314
     11  O2B      -22.4660  -37.4040    1.5630 O.3   300  NAP300     -0.2630
     12  C1B      -21.9230  -35.1800    2.7520 C.3   300  NAP300      0.3158
     13  N9A      -20.5070  -34.8220    2.6330 N.pl3 300  NAP300     -0.1439
     14  C8A      -19.4080  -35.3320    3.2720 C.3   300  NAP300      0.3377
     15  N7A      -18.2870  -34.6840    2.8630 N.2   300  NAP300     -0.2095
     16  C5A      -18.6970  -33.7810    1.9880 C.2   300  NAP300      0.2526
     17  C6A      -17.9780  -32.8350    1.2730 C.2   300  NAP300      0.4393
     18  N6A      -16.6670  -32.7200    1.4050 N.pl3 300  NAP300      0.2180
     19  N1A      -18.6370  -31.9750    0.4060 N.2   300  NAP300      0.0021
     20  C2A      -19.9730  -32.0550    0.2470 C.3   300  NAP300      0.5254
     21  N3A      -20.6540  -32.9720    0.9460 N.2   300  NAP300     -0.0055
     22  C4A      -20.0610  -33.8470    1.8240 C.2   300  NAP300      0.3518
     23  O3       -26.1870  -35.8480    8.1970 O.3   300  NAP300     -0.2703
     24  PN       -26.3910  -34.3280    8.5610 P.3   300  NAP300      0.2189
     25  O1N      -27.4540  -33.7740    7.7490 O.2   300  NAP300     -0.5170
     26  O2N      -25.1010  -33.5910    8.4450 O.3   300  NAP300     -0.4371
     27  O5D      -26.8560  -34.4900   10.0920 O.3   300  NAP300     -0.3112
     28  C5D      -25.9480  -35.0420   11.0580 C.3   300  NAP300      0.1813
     29  C4D      -26.2800  -36.4770   11.4310 C.3   300  NAP300      0.1799
     30  O4D      -25.3070  -36.9090   12.3920 O.3   300  NAP300     -0.3327
     31  C3D      -27.6490  -36.7350   12.1130 C.3   300  NAP300      0.2158
     32  O3D      -28.1260  -38.0730   11.7600 O.3   300  NAP300     -0.2175
     33  C2D      -27.2970  -36.6750   13.6230 C.3   300  NAP300      0.2309
     34  O2D      -28.2470  -37.3180   14.4780 O.3   300  NAP300     -0.2158
     35  C1D      -25.9260  -37.3000   13.6570 C.3   300  NAP300      0.2263
     36  N1N      -25.0870  -36.9530   14.8070 N.pl3 300  NAP300     -0.2787
     37  C2N      -25.1100  -35.6010   15.2680 C.3   300  NAP300      0.1244
     38  C3N      -24.3590  -35.2280   16.3910 C.2   300  NAP300      0.0544
     39  C7N      -24.4340  -33.7620   16.8560 C.2   300  NAP300      0.2818
     40  O7N      -23.8260  -33.4250   17.8560 O.2   300  NAP300     -0.2670
     41  N7N      -25.1520  -32.9220   16.1360 N.am  300  NAP300     -0.0839
     42  C4N      -23.5700  -36.2350   17.0460 C.2   300  NAP300      0.0033
     43  C5N      -23.5000  -37.5990   16.5930 C.2   300  NAP300      0.0157
     44  C6N      -24.2750  -37.9350   15.4600 C.2   300  NAP300      0.0633
     45  P2B      -21.2400  -37.8050    0.5230 P.3   300  NAP300      0.5328
     46  O1X      -21.8880  -38.7940   -0.4500 O.2   300  NAP300     -0.2224
     47  O2X      -20.7430  -36.5410   -0.0550 O.3   300  NAP300     -0.1145
     48  O3X      -20.2390  -38.5500    1.3880 O.3   300  NAP300     -0.1145
@<TRIPOS>BOND
     1    46    45    2
     2    47    45    1
     3    20    19    1
     4    20    21    1
     5    19    17    2
     6    45    48    1
     7    45    11    1
     8    21    22    2
     9    17    18    1
    10    17    16    1
    11    11    10    1
    12    22    16    1
    13    22    13    1
    14    16    15    2
    15     9     8    1
    16    13    12    1
    17    13    14    1
    18    12    10    1
    19    12     7    1
    20    10     8    1
    21    15    14    1
    22     8     6    1
    23     7     6    1
    24     6     5    1
    25     5     4    1
    26     4     1    1
    27     1     2    2
    28     1    23    1
    29     1     3    1
    30    25    24    2
    31    23    24    1
    32    26    24    1
    33    24    27    1
    34    27    28    1
    35    28    29    1
    36    29    31    1
    37    29    30    1
    38    32    31    1
    39    31    33    1
    40    30    35    1
    41    33    35    1
    42    33    34    1
    43    35    36    1
    44    36    37    1
    45    36    44    1
    46    37    38    1
    47    44    43    2
    48    41    39   am
    49    38    39    1
    50    38    42    2
    51    43    42    1
    52    39    40    2
