@<TRIPOS>MOLECULE
1pto_SIA_B_1.pdb
 20 20 0 0 0
SMALL
GASTEIGER

@<TRIPOS>ATOM
      1  C1       -30.1180   32.7490    0.8380 C.2   200  SIA200      0.3914
      2  C2       -31.2900   33.2700    1.7170 C.3   200  SIA200      0.2203
      3  C3       -32.1940   32.1050    2.1730 C.3   200  SIA200      0.0760
      4  C4       -31.4310   31.1600    3.1050 C.3   200  SIA200      0.1773
      5  C5       -30.7490   31.9470    4.2290 C.3   200  SIA200      0.1552
      6  C6       -29.8570   32.9830    3.5650 C.3   200  SIA200      0.1710
      7  C7       -28.8710   33.7560    4.4250 C.3   200  SIA200      0.2134
      8  C8       -28.0540   34.6370    3.4470 C.3   200  SIA200      0.2173
      9  C9       -27.2230   35.7350    4.1570 C.3   200  SIA200      0.2175
     10  C10      -30.1290   31.0560    6.3980 C.2   200  SIA200      0.2420
     11  C11      -29.3510   29.9760    7.1660 C.3   200  SIA200      0.0964
     12  N5       -30.0110   31.0140    5.0640 N.am  200  SIA200     -0.2020
     13  O1A      -30.0890   31.5230    0.5280 O.co2 200  SIA200     -0.2430
     14  O1B      -29.1700   33.5540    0.5210 O.co2 200  SIA200     -0.2430
     15  O4       -32.3020   30.1810    3.6570 O.3   200  SIA200     -0.2211
     16  O6       -30.7010   33.9100    2.8430 O.3   200  SIA200     -0.3429
     17  O7       -29.5770   34.5570    5.3610 O.3   200  SIA200     -0.2176
     18  O8       -27.2070   33.8080    2.6500 O.3   200  SIA200     -0.2175
     19  O9       -27.8880   36.9970    4.0460 O.3   200  SIA200     -0.2175
     20  O10      -30.7660   31.9540    7.0040 O.2   200  SIA200     -0.2733
@<TRIPOS>BOND
     1    14     1   ar
     2    13     1   ar
     3     1     2    1
     4     2     3    1
     5     2    16    1
     6     3     4    1
     7    18     8    1
     8    16     6    1
     9     4    15    1
    10     4     5    1
    11     8     9    1
    12     8     7    1
    13     6     5    1
    14     6     7    1
    15    19     9    1
    16     5    12    1
    17     7    17    1
    18    12    10   am
    19    10    20    2
    20    10    11    1
