@<TRIPOS>MOLECULE
1pto_GAL_I_1.pdb
 12 12 0 0 0
SMALL
GASTEIGER

@<TRIPOS>ATOM
      1  C1         6.5050   57.8650   53.7900 C.3   201  GAL201      0.3024
      2  C2         7.2600   57.8810   55.1470 C.3   201  GAL201      0.2434
      3  C3         8.5220   57.0120   55.0200 C.3   201  GAL201      0.2199
      4  C4         8.0700   55.6030   54.6710 C.3   201  GAL201      0.2144
      5  C5         7.2870   55.6230   53.3360 C.3   201  GAL201      0.1836
      6  C6         6.7060   54.2720   53.0070 C.3   201  GAL201      0.2142
      7  O1         5.3240   58.5940   53.8720 O.3   201  GAL201     -0.1869
      8  O2         7.6120   59.2100   55.5420 O.3   201  GAL201     -0.2148
      9  O3         9.2400   57.0060   56.2510 O.3   201  GAL201     -0.2174
     10  O4         7.2320   55.1440   55.7270 O.3   201  GAL201     -0.2176
     11  O5         6.1530   56.5180   53.4280 O.3   201  GAL201     -0.3236
     12  O6         5.7300   53.9650   54.0240 O.3   201  GAL201     -0.2176
@<TRIPOS>BOND
     1     6     5    1
     2     6    12    1
     3     5    11    1
     4     5     4    1
     5    11     1    1
     6     1     7    1
     7     1     2    1
     8     4     3    1
     9     4    10    1
    10     3     2    1
    11     3     9    1
    12     2     8    1
