@<TRIPOS>MOLECULE
1ptr_PRB_A_1.pdb
 29 32 0 0 0
SMALL
GASTEIGER

@<TRIPOS>ATOM
      1  C1        10.0060   23.8590   22.5830 C.3     3  PRB3        0.0128
      2  C2         9.0890   22.8890   22.9440 C.3     3  PRB3        0.0603
      3  C3         8.7730   23.0570   24.2760 C.2     3  PRB3        0.1778
      4  O3         7.9060   22.3930   24.8690 O.2     3  PRB3       -0.2935
      5  C4         9.4560   24.2740   24.8720 C.3     3  PRB3        0.1830
      6  O4         8.4140   25.2380   25.0310 O.3     3  PRB3       -0.2177
      7  C5        10.1340   23.9340   26.2220 C.3     3  PRB3        0.0619
      8  C6        11.3760   24.6880   26.5980 C.2     3  PRB3       -0.0129
      9  C7        11.6950   25.9360   26.0670 C.2     3  PRB3       -0.0298
     10  C8        10.8240   26.6910   25.0820 C.3     3  PRB3        0.0532
     11  C9        10.8210   26.1830   23.5970 C.3     3  PRB3        0.1354
     12  O9        12.1280   26.2530   23.0400 O.3     3  PRB3       -0.2252
     13  C10       10.5440   24.5830   23.7960 C.3     3  PRB3        0.0640
     14  C11        9.7950   27.0920   22.7960 C.3     3  PRB3        0.0624
     15  C12       10.3300   28.5360   22.7260 C.3     3  PRB3        0.1905
     16  O12        9.2890   29.4730   22.4620 O.3     3  PRB3       -0.2193
     17  C13       11.0240   29.0550   24.0040 C.3     3  PRB3        0.1640
     18  C14       11.1950   28.2040   25.3040 C.3     3  PRB3        0.0489
     19  C15       10.4310   29.4620   25.3950 C.3     3  PRB3        0.0398
     20  C16        8.9680   29.1790   25.8140 C.3     3  PRB3        0.0037
     21  C17       11.0080   30.6700   26.1540 C.3     3  PRB3        0.0037
     22  C18        9.4600   26.6990   21.3640 C.3     3  PRB3        0.0053
     23  C19        8.5200   21.8420   22.0240 C.3     3  PRB3        0.0078
     24  C20       12.2720   24.1470   27.6250 C.3     3  PRB3        0.2042
     25  O20       12.5430   22.7510   27.5090 O.3     3  PRB3       -0.2155
     26  OA1       12.0400   30.0190   23.7050 O.3     3  PRB3       -0.4532
     27  CA1       13.1100   29.7820   22.7690 C.2     3  PRB3        0.3174
     28  OA2       13.3870   28.6210   22.4240 O.2     3  PRB3       -0.2501
     29  CA2       13.8990   30.9400   22.1710 C.3     3  PRB3        0.1212
@<TRIPOS>BOND
     1    22    14    1
     2    23     2    1
     3    29    27    1
     4    28    27    2
     5    16    15    1
     6     1     2    1
     7     1    13    1
     8    15    14    1
     9    15    17    1
    10    27    26    1
    11    14    11    1
    12     2     3    1
    13    12    11    1
    14    11    13    1
    15    11    10    1
    16    26    17    1
    17    13     5    1
    18    17    18    1
    19    17    19    1
    20     3     4    2
    21     3     5    1
    22     5     6    1
    23     5     7    1
    24    10    18    1
    25    10     9    1
    26    18    19    1
    27    19    20    1
    28    19    21    1
    29     9     8    2
    30     7     8    1
    31     8    24    1
    32    25    24    1
