@<TRIPOS>MOLECULE
1ptt_III_B_1.pdb
 44 44 0 0 0
SMALL
GASTEIGER

@<TRIPOS>ATOM
      1  C         49.3660   16.0400   41.6490 C.2   402  ACE402      0.2423
      2  O         48.6940   16.4440   42.6070 O.2   402  ACE402     -0.2733
      3  CH3       50.1620   17.3100   41.4070 C.3   402  ACE402      0.0964
      4  N         49.1740   14.8450   41.1350 N.am  403  ASP403     -0.1972
      5  CA        48.2520   13.9820   41.8110 C.3   403  ASP403      0.1839
      6  C         48.5150   12.5830   42.0770 C.2   403  ASP403      0.2622
      7  O         47.9410   12.0970   43.0120 O.2   403  ASP403     -0.2715
      8  CB        46.8010   14.1600   41.4490 C.3   403  ASP403      0.1450
      9  CG        46.0290   14.8130   42.6160 C.2   403  ASP403      0.3671
     10  OD1       46.5660   14.8630   43.7450 O.co2 403  ASP403     -0.2456
     11  OD2       44.8890   15.2930   42.4610 O.co2 403  ASP403     -0.2456
     12  N         49.4600   12.0130   41.3750 N.am  404  GLU404     -0.1963
     13  CA        49.7970   10.6170   41.6880 C.3   404  GLU404      0.1733
     14  C         51.2880   10.6600   41.9940 C.2   404  GLU404      0.2616
     15  O         51.9970   11.3060   41.2170 O.2   404  GLU404     -0.2715
     16  CB        49.4410    9.6240   40.5860 C.3   404  GLU404      0.0429
     17  CG        50.0620    9.9450   39.3050 C.3   404  GLU404      0.1163
     18  CD        49.5620    9.0630   38.1730 C.2   404  GLU404      0.3649
     19  OE1       48.9080    8.0230   38.4720 O.co2 404  GLU404     -0.2457
     20  OE2       49.8030    9.4360   36.9800 O.co2 404  GLU404     -0.2457
     21  N         51.7290    9.8870   42.9730 N.am  405  TYR405     -0.1960
     22  CA        53.1210    9.8950   43.3900 C.3   405  TYR405      0.1771
     23  C         53.8210    8.6130   43.0530 C.2   405  TYR405      0.2619
     24  O         54.9070    8.5700   42.4580 O.2   405  TYR405     -0.2715
     25  CB        53.1420   10.0270   44.9230 C.3   405  TYR405      0.0574
     26  CG        54.4890    9.9930   45.6590 C.ar  405  TYR405     -0.0198
     27  CD1       55.3620   11.0530   45.5840 C.ar  405  TYR405     -0.0011
     28  CD2       54.8360    8.9340   46.4890 C.ar  405  TYR405     -0.0011
     29  CE1       56.5490   11.0800   46.3310 C.ar  405  TYR405      0.0371
     30  CE2       56.0430    8.9610   47.2450 C.ar  405  TYR405      0.0371
     31  CZ        56.8920   10.0490   47.1420 C.ar  405  TYR405      0.1490
     32  OH        58.1120   10.1350   47.7770 O.3   405  TYR405     -0.3998
     33  P         58.5340   10.8510   49.1190 P.3   405  TYR405      0.5887
     34  O1P       59.8060   10.6480   49.8640 O.3   405  TYR405     -0.1039
     35  O2P       57.6300   10.2270   50.1350 O.3   405  TYR405     -0.1039
     36  O3P       58.3030   12.3330   49.3390 O.2   405  TYR405     -0.2114
     37  N         53.2440    7.5710   43.6050 N.am  406  LEU406     -0.1977
     38  CA        53.7860    6.2360   43.5210 C.3   406  LEU406      0.1596
     39  C         54.5540    5.9430   42.2570 C.2   406  LEU406      0.2287
     40  O         55.6800    5.4980   42.4220 O.2   406  LEU406     -0.2864
     41  CB        52.7200    5.1960   43.7810 C.3   406  LEU406      0.0297
     42  CG        52.4710    4.6800   45.1910 C.3   406  LEU406      0.0022
     43  CD1       52.8300    5.6640   46.2730 C.3   406  LEU406      0.0001
     44  CD2       51.0240    4.1880   45.1850 C.3   406  LEU406      0.0001
@<TRIPOS>BOND
     1    20    18   ar
     2    18    19   ar
     3    18    17    1
     4    17    16    1
     5    16    13    1
     6     4     1   am
     7     4     5    1
     8    15    14    2
     9    12    13    1
    10    12     6   am
    11     3     1    1
    12     8     5    1
    13     8     9    1
    14     1     2    2
    15    13    14    1
    16     5     6    1
    17    14    21   am
    18     6     7    2
    19    39    40    2
    20    39    38    1
    21    24    23    2
    22    11     9   ar
    23     9    10   ar
    24    21    22    1
    25    23    22    1
    26    23    37   am
    27    22    25    1
    28    38    37    1
    29    38    41    1
    30    41    42    1
    31    25    26    1
    32    44    42    1
    33    42    43    1
    34    27    26   ar
    35    27    29   ar
    36    26    28   ar
    37    29    31   ar
    38    28    30   ar
    39    31    30   ar
    40    31    32    1
    41    32    33    1
    42    33    36    2
    43    33    34    1
    44    33    35    1
