@<TRIPOS>MOLECULE
1ptv_PTR_A_1.pdb
 17 17 0 0 0
SMALL
GASTEIGER

@<TRIPOS>ATOM
      1  N         46.2950   11.4910   -0.3740 N.3   322  PTR322     -0.1205
      2  CA        44.8920   11.9130   -0.6660 C.3   322  PTR322      0.1986
      3  C         44.8720   13.3090   -1.2960 C.2   322  PTR322      0.3822
      4  O         43.8010   13.7560   -1.8080 O.co2 322  PTR322     -0.2440
      5  OXT       45.9940   13.7470   -1.6080 O.co2 322  PTR322     -0.2440
      6  CB        44.1060   11.9360    0.6190 C.3   322  PTR322      0.0569
      7  CG        44.6960   12.8860    1.6120 C.ar  322  PTR322     -0.0200
      8  CD1       45.7610   12.5110    2.4070 C.ar  322  PTR322     -0.0011
      9  CD2       44.1420   14.1470    1.7850 C.ar  322  PTR322     -0.0011
     10  CE1       46.2590   13.3940    3.3730 C.ar  322  PTR322      0.0371
     11  CE2       44.6050   15.0220    2.7260 C.ar  322  PTR322      0.0371
     12  CZ        45.6640   14.6530    3.5270 C.ar  322  PTR322      0.1490
     13  OH        46.1130   15.5330    4.4770 O.3   322  PTR322     -0.3998
     14  P         45.2500   16.2030    5.6380 P.3   322  PTR322      0.5887
     15  O1P       46.2490   17.1420    6.3360 O.3   322  PTR322     -0.1039
     16  O2P       45.1630   15.1320    6.8120 O.3   322  PTR322     -0.1039
     17  O3P       43.7720   16.7930    5.4770 O.2   322  PTR322     -0.2114
@<TRIPOS>BOND
     1     4     3   ar
     2     5     3   ar
     3     3     2    1
     4     2     1    1
     5     2     6    1
     6     6     7    1
     7     7     9   ar
     8     7     8   ar
     9     9    11   ar
    10     8    10   ar
    11    11    12   ar
    12    10    12   ar
    13    12    13    1
    14    13    14    1
    15    17    14    2
    16    14    15    1
    17    14    16    1
