@<TRIPOS>MOLECULE
1ptw_AMP_A_1.pdb
 23 25 0 0 0
SMALL
GASTEIGER

@<TRIPOS>ATOM
      1  P         18.0060   -1.4310   26.0860 P.3   507  AMP507      0.5327
      2  O1P       18.3690   -1.0150   27.4550 O.3   507  AMP507     -0.1145
      3  O2P       16.8560   -2.3620   26.0090 O.3   507  AMP507     -0.1145
      4  O3P       17.9760   -0.3200   25.0960 O.2   507  AMP507     -0.2224
      5  O5'       19.2360   -2.3230   25.5990 O.3   507  AMP507     -0.2675
      6  C5'       20.3690   -2.5480   26.4330 C.3   507  AMP507      0.1860
      7  C4'       20.4110   -3.9930   26.8620 C.3   507  AMP507      0.1823
      8  O4'       21.6350   -4.2410   27.6100 O.3   507  AMP507     -0.3135
      9  C3'       19.2930   -4.4160   27.8080 C.3   507  AMP507      0.2184
     10  O3'       18.1160   -4.7790   27.0960 O.3   507  AMP507     -0.2174
     11  C2'       19.9200   -5.6040   28.5210 C.3   507  AMP507      0.2570
     12  O2'       19.9100   -6.7750   27.7380 O.3   507  AMP507     -0.2130
     13  C1'       21.3590   -5.1140   28.6940 C.3   507  AMP507      0.3186
     14  N9        21.5750   -4.3890   29.9460 N.pl3 507  AMP507     -0.1439
     15  C8        21.4780   -3.0390   30.1890 C.3   507  AMP507      0.3377
     16  N7        21.7410   -2.7030   31.4290 N.2   507  AMP507     -0.2095
     17  C5        22.0250   -3.9130   32.0480 C.2   507  AMP507      0.2526
     18  C6        22.3870   -4.2490   33.3770 C.2   507  AMP507      0.4393
     19  N6        22.5060   -3.3600   34.3670 N.pl3 507  AMP507      0.2180
     20  N1        22.6190   -5.5530   33.6530 N.2   507  AMP507      0.0021
     21  C2        22.4810   -6.4550   32.6700 C.3   507  AMP507      0.5254
     22  N3        22.1370   -6.2650   31.3920 N.2   507  AMP507     -0.0055
     23  C4        21.9260   -4.9590   31.1440 C.2   507  AMP507      0.3518
@<TRIPOS>BOND
     1     4     1    2
     2     5     1    1
     3     5     6    1
     4     3     1    1
     5     1     2    1
     6     6     7    1
     7     7     8    1
     8     7     9    1
     9    10     9    1
    10     8    13    1
    11    12    11    1
    12     9    11    1
    13    11    13    1
    14    13    14    1
    15    14    15    1
    16    14    23    1
    17    15    16    1
    18    23    22    2
    19    23    17    1
    20    22    21    1
    21    16    17    2
    22    17    18    1
    23    21    20    1
    24    18    20    2
    25    18    19    1
