@<TRIPOS>MOLECULE
1pty_PTR_A_1.pdb
 17 17 0 0 0
SMALL
GASTEIGER

@<TRIPOS>ATOM
      1  N         46.3660   11.1390   -0.6650 N.3   323  PTR323     -0.1205
      2  CA        44.9690   11.6160   -0.7490 C.3   323  PTR323      0.1986
      3  C         44.9780   13.0100   -1.3580 C.2   323  PTR323      0.3822
      4  O         43.8910   13.5140   -1.7080 O.co2 323  PTR323     -0.2440
      5  OXT       46.0880   13.5750   -1.4970 O.co2 323  PTR323     -0.2440
      6  CB        44.3320   11.6180    0.6440 C.3   323  PTR323      0.0569
      7  CG        44.8850   12.6400    1.6200 C.ar  323  PTR323     -0.0200
      8  CD1       45.9130   12.3020    2.5060 C.ar  323  PTR323     -0.0011
      9  CD2       44.3190   13.9210    1.7160 C.ar  323  PTR323     -0.0011
     10  CE1       46.3640   13.2140    3.4800 C.ar  323  PTR323      0.0371
     11  CE2       44.7530   14.8490    2.6830 C.ar  323  PTR323      0.0371
     12  CZ        45.7720   14.4870    3.5620 C.ar  323  PTR323      0.1490
     13  OH        46.2160   15.3850    4.5940 O.3   323  PTR323     -0.3998
     14  P         45.3820   15.8840    5.7570 P.3   323  PTR323      0.5887
     15  O1P       44.0960   16.4220    5.3550 O.2   323  PTR323     -0.2114
     16  O2P       46.2740   16.9380    6.2180 O.3   323  PTR323     -0.1039
     17  O3P       45.2790   14.8300    6.7780 O.3   323  PTR323     -0.1039
@<TRIPOS>BOND
     1     4     3   ar
     2     5     3   ar
     3     3     2    1
     4     2     1    1
     5     2     6    1
     6     6     7    1
     7     7     9   ar
     8     7     8   ar
     9     9    11   ar
    10     8    10   ar
    11    11    12   ar
    12    10    12   ar
    13    12    13    1
    14    13    14    1
    15    15    14    2
    16    14    16    1
    17    14    17    1
