@<TRIPOS>MOLECULE
1pu7_39A_A_1.pdb
 12 13 0 0 0
SMALL
GASTEIGER

@<TRIPOS>ATOM
      1  N6       121.4080    9.0630   46.2260 N.pl3 219  39A219      0.2174
      2  C6       120.1280    8.8610   46.6300 C.2   219  39A219      0.4277
      3  C5       119.1820    9.6610   46.0500 C.2   219  39A219      0.1754
      4  N7       119.2500   10.6740   45.0980 N.2   219  39A219     -0.2464
      5  C4       117.8290    9.4640   46.4620 C.3   219  39A219      0.1722
      6  N9       117.0850   10.3170   45.8000 N.3   219  39A219     -0.2338
      7  C8       117.9280   11.0250   44.9910 C.3   219  39A219      0.2022
      8  C9M      115.6230   10.3360   46.0290 C.3   219  39A219      0.0928
      9  N3       117.4830    8.4900   47.4270 N.3   219  39A219     -0.2091
     10  C3M      116.0870    8.3100   47.8690 C.3   219  39A219      0.0952
     11  C2       118.4790    7.7520   47.9560 C.3   219  39A219      0.3439
     12  N1       119.7550    7.9360   47.5650 N.2   219  39A219     -0.0375
@<TRIPOS>BOND
     1     7     4    1
     2     7     6    1
     3     4     3    2
     4     6     8    1
     5     6     5    1
     6     3     5    1
     7     3     2    1
     8     1     2    1
     9     5     9    1
    10     2    12    2
    11     9    10    1
    12     9    11    1
    13    12    11    1
