@<TRIPOS>MOLECULE
1pu8_EA1_A_1.pdb
 12 14 0 0 0
SMALL
GASTEIGER

@<TRIPOS>ATOM
      1  N7       116.4870    8.4370   47.6550 N.2   219  EA1219     -0.2305
      2  C8       115.4050    9.1350   47.1680 C.3   219  EA1219      0.2617
      3  C5       117.5520    8.9510   47.0190 C.2   219  EA1219      0.1736
      4  C4       117.0420    9.9930   46.1250 C.1   219  EA1219      0.0511
      5  N3       117.9000   10.7780   45.2700 N.2   219  EA1219     -0.1930
      6  N9       115.7280   10.0880   46.2320 N.2   219  EA1219     -0.1916
      7  C6       118.9270    8.7880   46.9610 C.ar  219  EA1219      0.1725
      8  N6       119.6880    7.9170   47.6610 N.ar  219  EA1219     -0.2229
      9  C11      121.0970    8.0960   47.2860 C.ar  219  EA1219      0.1193
     10  N1       119.7190    9.5860   46.1160 N.ar  219  EA1219     -0.2863
     11  C10      121.0220    9.2130   46.2540 C.ar  219  EA1219      0.0995
     12  C2       119.2230   10.5400   45.2990 C.3   219  EA1219      0.2467
@<TRIPOS>BOND
     1     5    12    1
     2     5     4    2
     3    12    10    1
     4    10    11   ar
     5    10     7   ar
     6     4     6    2
     7     4     3    1
     8     6     2    1
     9    11     9   ar
    10     7     3    1
    11     7     8   ar
    12     3     1    2
    13     2     1    1
    14     9     8   ar
