@<TRIPOS>MOLECULE
1pu9_COA_A_1.pdb
 48 50 0 0 0
SMALL
GASTEIGER

@<TRIPOS>ATOM
      1  N1A       17.5800   29.3620   28.3270 N.2   401  COA401      0.0021
      2  C2A       18.1540   30.3200   27.4880 C.3   401  COA401      0.5254
      3  N3A       17.9630   30.4370   26.1510 N.2   401  COA401     -0.0055
      4  C4A       17.1390   29.5000   25.6390 C.2   401  COA401      0.3518
      5  C5A       16.4580   28.4540   26.3470 C.2   401  COA401      0.2526
      6  C6A       16.7300   28.3870   27.8330 C.2   401  COA401      0.4393
      7  N6A       16.2020   27.5030   28.6150 N.pl3 401  COA401      0.2180
      8  N7A       15.6990   27.6840   25.5120 N.2   401  COA401     -0.2095
      9  C8A       15.8770   28.2450   24.2760 C.3   401  COA401      0.3377
     10  N9A       16.7380   29.3440   24.2880 N.pl3 401  COA401     -0.1439
     11  C1B       17.2320   30.1740   23.0980 C.3   401  COA401      0.3185
     12  C2B       18.3540   29.4720   22.3470 C.3   401  COA401      0.2543
     13  O2B       19.5850   29.8780   22.9190 O.3   401  COA401     -0.2131
     14  C3B       18.2380   29.8900   20.8510 C.3   401  COA401      0.1928
     15  O3B       19.2150   30.7660   20.3630 O.3   401  COA401     -0.2673
     16  P3B       18.7100   32.1160   19.4720 P.3   401  COA401      0.5327
     17  O7A       17.9670   31.5690   18.1580 O.2   401  COA401     -0.2224
     18  O8A       19.9950   32.9280   18.9700 O.3   401  COA401     -0.1145
     19  O9A       17.7460   33.0010   20.3760 O.3   401  COA401     -0.1145
     20  C4B       16.7520   30.2670   20.7170 C.3   401  COA401      0.1795
     21  O4B       16.1800   30.3800   22.1020 O.3   401  COA401     -0.3136
     22  C5B       15.9650   29.3040   19.8460 C.3   401  COA401      0.1812
     23  O5B       14.8890   28.7480   20.6390 O.3   401  COA401     -0.3112
     24  P1A       14.2170   27.3730   20.1140 P.3   401  COA401      0.2189
     25  O1A       15.2300   26.2770   20.2340 O.3   401  COA401     -0.4371
     26  O2A       13.5520   27.5580   18.7770 O.2   401  COA401     -0.5170
     27  O3A       13.1870   27.1810   21.2020 O.3   401  COA401     -0.2703
     28  P2A       12.8970   26.0920   22.3690 P.3   401  COA401      0.2188
     29  O4A       14.0050   25.9850   23.3690 O.3   401  COA401     -0.4371
     30  O5A       12.5380   24.7050   21.9010 O.2   401  COA401     -0.5170
     31  O6A       11.5640   26.8460   22.9760 O.3   401  COA401     -0.3138
     32  CBP       10.7820   28.3860   24.7590 C.3   401  COA401      0.0645
     33  CCP       11.6320   28.2030   23.4620 C.3   401  COA401      0.1519
     34  CDP       10.6660   29.8930   25.1930 C.3   401  COA401      0.0056
     35  CEP        9.4010   27.8260   24.3250 C.3   401  COA401      0.0056
     36  CAP       11.5370   27.5700   25.9040 C.3   401  COA401      0.2312
     37  OAP       12.8090   28.2090   26.2220 O.3   401  COA401     -0.2131
     38  C9P       10.7380   27.4060   27.2000 C.2   401  COA401      0.2719
     39  O9P        9.8840   26.3730   27.3510 O.2   401  COA401     -0.2706
     40  N8P       10.9460   28.3240   28.1130 N.am  401  COA401     -0.2028
     41  C7P       10.3130   28.3520   29.4360 C.3   401  COA401      0.1248
     42  C6P        8.8450   28.7170   29.3100 C.3   401  COA401      0.1102
     43  C5P        8.7020   30.1580   28.9160 C.2   401  COA401      0.2432
     44  O5P        9.3700   31.1070   29.4830 O.2   401  COA401     -0.2733
     45  N4P        7.8340   30.3310   27.9360 N.am  401  COA401     -0.2044
     46  C3P        7.4420   31.6420   27.2650 C.3   401  COA401      0.1276
     47  C2P        6.5100   32.3930   28.1960 C.3   401  COA401      0.0920
     48  S1P        4.9920   31.4950   28.7890 S.3   401  COA401     -0.0802
@<TRIPOS>BOND
     1    17    16    2
     2    26    24    2
     3    18    16    1
     4    16    15    1
     5    16    19    1
     6    22    23    1
     7    22    20    1
     8    24    25    1
     9    24    23    1
    10    24    27    1
    11    15    14    1
    12    20    14    1
    13    20    21    1
    14    14    12    1
    15    27    28    1
    16    30    28    2
    17    21    11    1
    18    12    13    1
    19    12    11    1
    20    28    31    1
    21    28    29    1
    22    31    33    1
    23    11    10    1
    24    33    32    1
    25     9    10    1
    26     9     8    1
    27    10     4    1
    28    35    32    1
    29    32    34    1
    30    32    36    1
    31     8     5    2
    32     4     3    2
    33     4     5    1
    34    36    37    1
    35    36    38    1
    36     3     2    1
    37     5     6    1
    38    38    39    2
    39    38    40   am
    40    46    45    1
    41    46    47    1
    42     2     1    1
    43     6     1    2
    44     6     7    1
    45    45    43   am
    46    40    41    1
    47    47    48    1
    48    43    42    1
    49    43    44    2
    50    42    41    1
