@<TRIPOS>MOLECULE
1pua_COA_A_1.pdb
 48 50 0 0 0
SMALL
GASTEIGER

@<TRIPOS>ATOM
      1  N1A       47.3460   31.1160   10.9230 N.2   401  COA401      0.0021
      2  C2A       46.8410   32.0100    9.9710 C.3   401  COA401      0.5254
      3  N3A       46.6650   31.7670    8.6470 N.2   401  COA401     -0.0055
      4  C4A       47.0300   30.5190    8.2870 C.2   401  COA401      0.3518
      5  C5A       47.5680   29.4820    9.1260 C.2   401  COA401      0.2526
      6  C6A       47.7260   29.8310   10.5730 C.2   401  COA401      0.4393
      7  N6A       48.1940   29.0010   11.4470 N.pl3 401  COA401      0.2180
      8  N7A       47.8270   28.3450    8.4320 N.2   401  COA401     -0.2095
      9  C8A       47.4720   28.6370    7.1570 C.3   401  COA401      0.3377
     10  N9A       46.9810   29.9380    7.0070 N.pl3 401  COA401     -0.1439
     11  C1B       46.4550   30.5650    5.7370 C.3   401  COA401      0.3185
     12  C2B       47.5640   31.1160    4.8500 C.3   401  COA401      0.2543
     13  O2B       47.7250   32.4810    5.1720 O.3   401  COA401     -0.2131
     14  C3B       47.0980   30.9060    3.3820 C.3   401  COA401      0.1928
     15  O3B       46.5720   32.0470    2.7500 O.3   401  COA401     -0.2673
     16  P3B       45.1890   31.8340    1.7770 P.3   401  COA401      0.5327
     17  O7A       45.6060   30.8530    0.5840 O.2   401  COA401     -0.2224
     18  O8A       44.7670   33.2200    1.1020 O.3   401  COA401     -0.1145
     19  O9A       44.0170   31.2280    2.6690 O.3   401  COA401     -0.1145
     20  C4B       46.2000   29.6530    3.5120 C.3   401  COA401      0.1795
     21  O4B       45.8490   29.5090    4.9460 O.3   401  COA401     -0.3136
     22  C5B       46.8500   28.3780    3.0330 C.3   401  COA401      0.1812
     23  O5B       46.6360   27.3240    4.0290 O.3   401  COA401     -0.3112
     24  P1A       47.3790   25.9160    3.7200 P.3   401  COA401      0.2189
     25  O1A       48.8510   26.1590    3.8460 O.3   401  COA401     -0.4371
     26  O2A       46.8810   25.3410    2.4180 O.2   401  COA401     -0.5170
     27  O3A       46.9830   25.0250    4.8860 O.3   401  COA401     -0.2703
     28  P2A       47.7920   24.3930    6.1630 P.3   401  COA401      0.2188
     29  O4A       48.3590   25.4480    7.0750 O.3   401  COA401     -0.4371
     30  O5A       48.8790   23.4090    5.8080 O.2   401  COA401     -0.5170
     31  O6A       46.5350   23.5810    6.8330 O.3   401  COA401     -0.3138
     32  CBP       44.8580   23.5580    8.5960 C.3   401  COA401      0.0645
     33  CCP       45.3410   24.2370    7.2790 C.3   401  COA401      0.1519
     34  CDP       43.4870   24.1250    9.1030 C.3   401  COA401      0.0056
     35  CEP       44.7120   22.0830    8.1530 C.3   401  COA401      0.0056
     36  CAP       45.9890   23.8310    9.6980 C.3   401  COA401      0.2312
     37  OAP       46.0330   25.2410   10.0500 O.3   401  COA401     -0.2131
     38  C9P       45.8020   23.0340   10.9860 C.2   401  COA401      0.2719
     39  O9P       46.3430   21.8030   11.1220 O.2   401  COA401     -0.2706
     40  N8P       45.0970   23.6330   11.9170 N.am  401  COA401     -0.2028
     41  C7P       44.8040   23.0650   13.2300 C.3   401  COA401      0.1248
     42  C6P       43.7530   21.9800   13.0640 C.3   401  COA401      0.1102
     43  C5P       42.4230   22.5830   12.7250 C.2   401  COA401      0.2432
     44  O5P       41.9760   23.6350   13.3070 O.2   401  COA401     -0.2733
     45  N4P       41.7770   21.9240   11.7890 N.am  401  COA401     -0.2044
     46  C3P       40.4030   22.2750   11.2200 C.3   401  COA401      0.1276
     47  C2P       39.3830   21.7830   12.2350 C.3   401  COA401      0.0920
     48  S1P       39.5370   19.9870   12.6290 S.3   401  COA401     -0.0802
@<TRIPOS>BOND
     1    17    16    2
     2    18    16    1
     3    16    19    1
     4    16    15    1
     5    26    24    2
     6    15    14    1
     7    22    20    1
     8    22    23    1
     9    14    20    1
    10    14    12    1
    11    20    21    1
    12    24    25    1
    13    24    23    1
    14    24    27    1
    15    12    13    1
    16    12    11    1
    17    27    28    1
    18    21    11    1
    19    11    10    1
    20    30    28    2
    21    28    31    1
    22    28    29    1
    23    31    33    1
    24    10     9    1
    25    10     4    1
    26     9     8    1
    27    33    32    1
    28    35    32    1
    29     4     3    2
    30     4     5    1
    31     8     5    2
    32    32    34    1
    33    32    36    1
    34     3     2    1
    35     5     6    1
    36    36    37    1
    37    36    38    1
    38     2     1    1
    39     6     1    2
    40     6     7    1
    41    38    39    2
    42    38    40   am
    43    46    45    1
    44    46    47    1
    45    45    43   am
    46    40    41    1
    47    47    48    1
    48    43    42    1
    49    43    44    2
    50    42    41    1
