@<TRIPOS>MOLECULE
1puj_GNP_A_1.pdb
 32 34 0 0 0
SMALL
GASTEIGER

@<TRIPOS>ATOM
      1  PG        17.9380   30.1790   63.0940 P.3   501  GNP501      0.4884
      2  O1G       18.7630   29.0500   62.5770 O.3   501  GNP501     -0.1240
      3  O2G       17.9150   30.1630   64.6020 O.3   501  GNP501     -0.1240
      4  O3G       16.5560   30.1820   62.5590 O.2   501  GNP501     -0.2331
      5  N3B       18.8400   31.5440   62.5580 N.3   501  GNP501     -0.0163
      6  PB        18.3480   33.1090   62.9030 P.3   501  GNP501      0.4669
      7  O1B       17.0450   33.3800   62.2970 O.2   501  GNP501     -0.2351
      8  O2B       18.4830   33.2960   64.3750 O.3   501  GNP501     -0.1253
      9  O3A       19.4750   33.9950   62.1390 O.3   501  GNP501     -0.2360
     10  PA        20.7990   34.6220   62.6720 P.3   501  GNP501      0.2220
     11  O1A       20.5180   35.6510   63.6780 O.3   501  GNP501     -0.4370
     12  O2A       21.7090   33.4700   63.0460 O.2   501  GNP501     -0.5170
     13  O5'       21.3610   35.3140   61.4340 O.3   501  GNP501     -0.3111
     14  C5'       21.7430   34.6060   60.2350 C.3   501  GNP501      0.1813
     15  C4'       22.6680   35.4550   59.4040 C.3   501  GNP501      0.1799
     16  O4'       22.1250   36.6170   58.8660 O.3   501  GNP501     -0.3326
     17  C3'       23.9360   35.9240   60.1850 C.3   501  GNP501      0.2158
     18  O3'       25.1270   35.7510   59.3770 O.3   501  GNP501     -0.2175
     19  C2'       23.6390   37.4120   60.4650 C.3   501  GNP501      0.2310
     20  O2'       24.7650   38.1960   60.6820 O.3   501  GNP501     -0.2158
     21  C1'       22.8830   37.7630   59.2120 C.3   501  GNP501      0.2293
     22  N9        21.9390   38.9040   59.4100 N.pl3 501  GNP501     -0.2354
     23  C8        20.9010   38.9380   60.4440 C.3   501  GNP501      0.2246
     24  N7        20.2310   40.0610   60.3760 N.2   501  GNP501     -0.2322
     25  C5        20.8470   40.8010   59.2520 C.2   501  GNP501      0.2182
     26  C6        20.5210   42.1190   58.7110 C.1   501  GNP501      0.2372
     27  O6        19.6800   42.8850   59.0460 O.2   501  GNP501     -0.2069
     28  N1        21.3650   42.4430   57.6470 N.2   501  GNP501     -0.2485
     29  C2        22.3380   41.5520   57.2600 C.1   501  GNP501      0.2531
     30  N2        23.0790   42.1050   56.1570 N.pl3 501  GNP501     -0.0226
     31  N3        22.6820   40.3840   57.6710 N.2   501  GNP501     -0.3074
     32  C4        21.8700   40.0660   58.7260 C.2   501  GNP501      0.2300
@<TRIPOS>BOND
     1    30    29    1
     2    29    28    2
     3    29    31    2
     4    28    26    2
     5    31    32    2
     6    26    27    2
     7    26    25    1
     8    32    25    1
     9    32    22    1
    10    16    21    1
    11    16    15    1
    12    21    22    1
    13    21    19    1
    14    25    24    2
    15    18    17    1
    16    15    17    1
    17    15    14    1
    18    22    23    1
    19    17    19    1
    20    14    13    1
    21    24    23    1
    22    19    20    1
    23    13    10    1
    24     9    10    1
    25     9     6    1
    26     7     6    2
    27     5     6    1
    28     5     1    1
    29     4     1    2
    30     2     1    1
    31    10    12    2
    32    10    11    1
    33     6     8    1
    34     1     3    1
