@<TRIPOS>MOLECULE
1pun_8OG_A_1.pdb
 36 38 0 0 0
SMALL
GASTEIGER

@<TRIPOS>ATOM
      1  OP3       -9.6760   -6.8410   -7.7510 O.2   131  8OG131     -0.2224
      2  P         -9.3540   -7.6430   -6.3930 P.3   131  8OG131      0.5320
      3  OP1       -8.8610   -8.9930   -6.7480 O.3   131  8OG131     -0.1145
      4  OP2      -10.5220   -7.5170   -5.4930 O.3   131  8OG131     -0.1145
      5  O5'       -8.1340   -6.7930   -5.7770 O.3   131  8OG131     -0.2809
      6  C5'       -7.3720   -7.3210   -4.6880 C.3   131  8OG131      0.0879
      7  C4'       -8.2610   -7.5760   -3.4690 C.3   131  8OG131      0.1107
      8  O4'       -9.3520   -8.4960   -3.5780 O.3   131  8OG131     -0.3500
      9  C3'       -7.4700   -8.1400   -2.2870 C.3   131  8OG131      0.0875
     10  O3'       -7.4610   -7.2350   -1.1790 O.3   131  8OG131     -0.3890
     11  C2'       -8.1100   -9.4810   -1.9150 C.3   131  8OG131      0.0194
     12  C1'       -9.2900   -9.7350   -2.8580 C.3   131  8OG131      0.1380
     13  N9        -9.3800  -11.0880   -3.4510 N.am  131  8OG131     -0.2042
     14  C8        -8.3320  -11.6340   -4.1430 C.2   131  8OG131      0.3113
     15  N7        -8.7830  -12.8670   -4.5310 N.am  131  8OG131     -0.2756
     16  C5       -10.0640  -13.0880   -4.0990 C.3   131  8OG131      0.2182
     17  C6       -10.9480  -14.1050   -4.2030 C.2   131  8OG131      0.2552
     18  O6       -10.5960  -15.1570   -4.8420 O.2   131  8OG131     -0.2724
     19  N1       -12.2230  -14.0600   -3.6500 N.am  131  8OG131     -0.2458
     20  C2       -12.5800  -12.9260   -2.9710 C.2   131  8OG131      0.2388
     21  N2       -13.8080  -12.8860   -2.4380 N.pl3 131  8OG131     -0.3207
     22  N3       -11.7400  -11.8190   -2.8060 N.2   131  8OG131     -0.3602
     23  C4       -10.4610  -11.9610   -3.4070 C.2   131  8OG131      0.1983
     24  O8        -7.1880  -11.1090   -4.3760 O.2   131  8OG131     -0.2521
     25  H5'       -6.6100   -6.6180   -4.4220 H     131  8OG131      0.0592
     26 H5''       -6.9130   -8.1840   -5.1230 H     131  8OG131      0.0592
     27  H4'       -8.6650   -6.6320   -3.1670 H     131  8OG131      0.0646
     28  H3'       -6.4610   -8.3130   -2.5980 H     131  8OG131      0.0621
     29 HO3'       -7.0460   -6.3690   -1.4590 H     131  8OG131      0.2099
     30  H2'       -7.3900  -10.2650   -2.0200 H     131  8OG131      0.0333
     31 H2''       -8.4580   -9.4450   -0.9040 H     131  8OG131      0.0333
     32  H1'      -10.1820   -9.6950   -2.2680 H     131  8OG131      0.0815
     33  H7        -8.2460  -13.5230   -5.0610 H     131  8OG131      0.1518
     34  H1       -12.8760  -14.8140   -3.7280 H     131  8OG131      0.1585
     35  H21      -14.1090  -12.0760   -1.9340 H     131  8OG131      0.1459
     36  H22      -14.4250  -13.6660   -2.5450 H     131  8OG131      0.1459
@<TRIPOS>BOND
     1     1     2    2
     2     3     2    1
     3     2     5    1
     4     2     4    1
     5     5     6    1
     6    26     6    1
     7    33    15    1
     8    18    17    2
     9     6    25    1
    10     6     7    1
    11    15    14   am
    12    15    16    1
    13    24    14    2
    14    17    16    1
    15    17    19   am
    16    14    13   am
    17    16    23    1
    18    34    19    1
    19    19    20    1
    20     8     7    1
    21     8    12    1
    22     7    27    1
    23     7     9    1
    24    13    23    1
    25    13    12    1
    26    23    22    2
    27    20    22    2
    28    20    21    1
    29    12    32    1
    30    12    11    1
    31    28     9    1
    32    36    21    1
    33    21    35    1
    34     9    11    1
    35     9    10    1
    36    30    11    1
    37    11    31    1
    38    29    10    1
