@<TRIPOS>MOLECULE
1puq_8OG_A_1.pdb
 36 38 0 0 0
SMALL
GASTEIGER

@<TRIPOS>ATOM
      1  OP3       -6.9730    3.5010   -2.9930 O.3   131  8OG131     -0.1145
      2  P         -8.2530    3.0460   -2.1290 P.3   131  8OG131      0.5320
      3  OP1       -9.3440    2.7010   -3.0670 O.2   131  8OG131     -0.2224
      4  OP2       -8.4920    4.0670   -1.0840 O.3   131  8OG131     -0.1145
      5  O5'       -7.7220    1.6980   -1.4270 O.3   131  8OG131     -0.2809
      6  C5'       -8.4330    1.1020   -0.3390 C.3   131  8OG131      0.0879
      7  C4'       -9.8870    0.7950   -0.7050 C.3   131  8OG131      0.1107
      8  O4'      -10.6870   -0.0170    0.1630 O.3   131  8OG131     -0.3500
      9  C3'      -10.7530    2.0450   -0.8730 C.3   131  8OG131      0.0875
     10  O3'      -11.1870    2.2090   -2.2250 O.3   131  8OG131     -0.3890
     11  C2'      -11.9440    1.8980    0.0800 C.3   131  8OG131      0.0194
     12  C1'      -11.8150    0.5670    0.8270 C.3   131  8OG131      0.1380
     13  N9       -12.0540    0.6020    2.2880 N.am  131  8OG131     -0.2042
     14  C8       -11.3840    1.4570    3.1220 C.2   131  8OG131      0.3113
     15  N7       -11.8890    1.1900    4.3670 N.am  131  8OG131     -0.2756
     16  C5       -12.8430    0.2070    4.3190 C.3   131  8OG131      0.2182
     17  C6       -13.6290   -0.4120    5.2260 C.2   131  8OG131      0.2552
     18  O6       -13.5370   -0.0630    6.4540 O.2   131  8OG131     -0.2724
     19  N1       -14.5380   -1.4080    4.8880 N.am  131  8OG131     -0.2458
     20  C2       -14.6250   -1.7640    3.5680 C.2   131  8OG131      0.2388
     21  N2       -15.4970   -2.7290    3.2450 N.pl3 131  8OG131     -0.3207
     22  N3       -13.8570   -1.1840    2.5520 N.2   131  8OG131     -0.3602
     23  C4       -12.9600   -0.1790    2.9980 C.2   131  8OG131      0.1983
     24  O8       -10.4910    2.3220    2.8150 O.2   131  8OG131     -0.2521
     25  H5'       -8.4140    1.7740    0.4930 H     131  8OG131      0.0592
     26 H5''       -7.9460    0.1910   -0.0600 H     131  8OG131      0.0592
     27  H4'       -9.8680    0.2990   -1.6530 H     131  8OG131      0.0646
     28  H3'      -10.1820    2.9030   -0.5850 H     131  8OG131      0.0621
     29 HO3'      -11.7490    3.0330   -2.2980 H     131  8OG131      0.2099
     30  H2'      -11.9450    2.7060    0.7820 H     131  8OG131      0.0333
     31 H2''      -12.8560    1.9070   -0.4790 H     131  8OG131      0.0333
     32  H1'      -12.6130   -0.0600    0.4910 H     131  8OG131      0.0815
     33  H7       -11.5990    1.6530    5.2040 H     131  8OG131      0.1518
     34  H1       -15.1180   -1.8670    5.5610 H     131  8OG131      0.1585
     35  H21      -15.5870   -3.0220    2.2930 H     131  8OG131      0.1459
     36  H22      -16.0560   -3.1560    3.9550 H     131  8OG131      0.1459
@<TRIPOS>BOND
     1     3     2    2
     2     1     2    1
     3    29    10    1
     4    10     9    1
     5     2     5    1
     6     2     4    1
     7    27     7    1
     8     5     6    1
     9     9     7    1
    10     9    28    1
    11     9    11    1
    12     7     6    1
    13     7     8    1
    14    31    11    1
    15     6    26    1
    16     6    25    1
    17    11    30    1
    18    11    12    1
    19     8    12    1
    20    32    12    1
    21    12    13    1
    22    13    23    1
    23    13    14   am
    24    35    21    1
    25    22    23    2
    26    22    20    2
    27    24    14    2
    28    23    16    1
    29    14    15   am
    30    21    20    1
    31    21    36    1
    32    20    19    1
    33    16    15    1
    34    16    17    1
    35    15    33    1
    36    19    17   am
    37    19    34    1
    38    17    18    2
