@<TRIPOS>MOLECULE
1pus_8OG_A_1.pdb
 36 38 0 0 0
SMALL
GASTEIGER

@<TRIPOS>ATOM
      1  OP3       -8.8290    5.2470   -4.3040 O.3   131  8OG131     -0.1145
      2  P         -9.7020    3.8970   -4.3770 P.3   131  8OG131      0.5320
      3  OP1       -8.7850    2.7380   -4.2910 O.3   131  8OG131     -0.1145
      4  OP2      -10.6210    4.0020   -5.5330 O.2   131  8OG131     -0.2224
      5  O5'      -10.5660    3.9770   -3.0210 O.3   131  8OG131     -0.2809
      6  C5'      -11.3510    2.8570   -2.6040 C.3   131  8OG131      0.0879
      7  C4'      -10.4660    1.6280   -2.3810 C.3   131  8OG131      0.1107
      8  O4'       -9.4000    1.6730   -1.4260 O.3   131  8OG131     -0.3500
      9  C3'      -11.2510    0.3930   -1.9350 C.3   131  8OG131      0.0875
     10  O3'      -11.2300   -0.6310   -2.9330 O.3   131  8OG131     -0.3890
     11  C2'      -10.6290   -0.0870   -0.6200 C.3   131  8OG131      0.0194
     12  C1'       -9.4700    0.8460   -0.2570 C.3   131  8OG131      0.1380
     13  N9        -9.4160    1.3000    1.1510 N.am  131  8OG131     -0.2042
     14  C8       -10.5000    1.8580    1.7760 C.2   131  8OG131      0.3113
     15  N7       -10.0720    2.1000    3.0540 N.am  131  8OG131     -0.2756
     16  C5        -8.7710    1.7080    3.2280 C.3   131  8OG131      0.2182
     17  C6        -7.8960    1.7200    4.2580 C.2   131  8OG131      0.2552
     18  O6        -8.2840    2.1880    5.3840 O.2   131  8OG131     -0.2724
     19  N1        -6.5940    1.2440    4.1510 N.am  131  8OG131     -0.2458
     20  C2        -6.2000    0.7430    2.9390 C.2   131  8OG131      0.2388
     21  N2        -4.9450    0.2840    2.8390 N.pl3 131  8OG131     -0.3207
     22  N3        -7.0280    0.6850    1.8130 N.2   131  8OG131     -0.3602
     23  C4        -8.3370    1.1950    2.0220 C.2   131  8OG131      0.1983
     24  O8       -11.6590    2.0900    1.2850 O.2   131  8OG131     -0.2521
     25  H5'      -12.0600    2.6320   -3.3730 H     131  8OG131      0.0592
     26 H5''      -11.8840    3.1240   -1.7160 H     131  8OG131      0.0592
     27  H4'      -10.0210    1.3920   -3.3250 H     131  8OG131      0.0646
     28  H3'      -12.2660    0.6770   -1.7540 H     131  8OG131      0.0621
     29 HO3'      -11.6400   -0.2840   -3.7760 H     131  8OG131      0.2099
     30  H2'      -11.3660   -0.0640    0.1550 H     131  8OG131      0.0333
     31 H2''      -10.2640   -1.0860   -0.7390 H     131  8OG131      0.0333
     32  H1'       -8.5680    0.2760   -0.3390 H     131  8OG131      0.0815
     33  H7       -10.6370    2.5100    3.7690 H     131  8OG131      0.1518
     34  H1        -5.9470    1.2560    4.9140 H     131  8OG131      0.1585
     35  H21       -4.6170   -0.0900    1.9710 H     131  8OG131      0.1459
     36  H22       -4.3360    0.3160    3.6310 H     131  8OG131      0.1459
@<TRIPOS>BOND
     1     4     2    2
     2     2     1    1
     3     2     3    1
     4     2     5    1
     5    29    10    1
     6    25     6    1
     7    27     7    1
     8     5     6    1
     9    10     9    1
    10     6     7    1
    11     6    26    1
    12     7     9    1
    13     7     8    1
    14     9    28    1
    15     9    11    1
    16     8    12    1
    17    31    11    1
    18    11    12    1
    19    11    30    1
    20    32    12    1
    21    12    13    1
    22    13    14   am
    23    13    23    1
    24    24    14    2
    25    14    15   am
    26    22    23    2
    27    22    20    2
    28    35    21    1
    29    23    16    1
    30    21    20    1
    31    21    36    1
    32    20    19    1
    33    15    16    1
    34    15    33    1
    35    16    17    1
    36    19    17   am
    37    19    34    1
    38    17    18    2
