@<TRIPOS>MOLECULE
1pv4_NUC_G_1.pdb
 38 41 0 0 0
SMALL
GASTEIGER

@<TRIPOS>ATOM
      1  P        -28.8940  -35.9670   -8.1530 P.3     3  DC3         0.3942
      2  OP1      -29.6450  -36.7100   -9.2000 O.3     3  DC3        -0.1425
      3  OP2      -29.4960  -35.8010   -6.8100 O.3     3  DC3        -0.1425
      4  O5'      -27.4330  -36.6000   -7.9850 O.3     3  DC3        -0.2926
      5  C5'      -26.3040  -35.7450   -7.8770 C.3     3  DC3         0.1828
      6  C4'      -25.1030  -36.3680   -8.5550 C.3     3  DC3         0.1745
      7  O4'      -25.0640  -37.7700   -8.2300 O.3     3  DC3        -0.3340
      8  C3'      -25.1890  -36.3120  -10.0710 C.3     3  DC3         0.1556
      9  O3'      -24.5160  -35.1440  -10.5700 O.3     3  DC3        -0.3139
     10  C2'      -24.5950  -37.6400  -10.5640 C.3     3  DC3         0.0845
     11  C1'      -24.5270  -38.5140   -9.3050 C.3     3  DC3         0.2089
     12  N1       -25.2870  -39.8070   -9.3600 N.am    3  DC3        -0.1802
     13  C2       -24.7790  -40.9310  -10.0310 C.1     3  DC3         0.2756
     14  O2       -23.6900  -40.8630  -10.6150 O.2     3  DC3        -0.1925
     15  N3       -25.5100  -42.0760  -10.0240 N.2     3  DC3        -0.3024
     16  C4       -26.6830  -42.1210   -9.3880 C.2     3  DC3         0.2346
     17  N4       -27.3720  -43.2650   -9.4060 N.pl3   3  DC3        -0.0921
     18  C5       -27.2110  -40.9920   -8.7040 C.2     3  DC3         0.0687
     19  C6       -26.4850  -39.8750   -8.7110 C.2     3  DC3         0.0835
     20  P        -23.0960  -34.6350  -10.0410 P.3     4  DC4         0.2141
     21  OP1      -22.7910  -33.3990  -10.7830 O.2     4  DC4        -0.5172
     22  OP2      -22.1260  -35.7480  -10.1060 O.3     4  DC4        -0.4373
     23  O5'      -23.3810  -34.2670   -8.5110 O.3     4  DC4        -0.3114
     24  C5'      -23.1250  -32.9490   -8.0400 C.3     4  DC4         0.1812
     25  C4'      -22.9990  -32.8890   -6.5180 C.3     4  DC4         0.1773
     26  O4'      -22.7040  -34.2100   -5.9900 O.3     4  DC4        -0.3339
     27  C3'      -21.8930  -31.9690   -5.9890 C.3     4  DC4         0.1857
     28  O3'      -22.3780  -31.1660   -4.8890 O.3     4  DC4        -0.2203
     29  C2'      -20.7880  -32.9540   -5.5860 C.3     4  DC4         0.0874
     30  C1'      -21.6420  -34.1050   -5.0680 C.3     4  DC4         0.2090
     31  N1       -20.9730  -35.4380   -4.9400 N.am    4  DC4        -0.1802
     32  C2       -20.6700  -35.9110   -3.6570 C.1     4  DC4         0.2756
     33  O2       -20.9500  -35.2070   -2.6770 O.2     4  DC4        -0.1925
     34  N3       -20.0730  -37.1190   -3.5210 N.2     4  DC4        -0.3024
     35  C4       -19.7900  -37.8410   -4.6060 C.2     4  DC4         0.2346
     36  N4       -19.2010  -39.0230   -4.4180 N.pl3   4  DC4        -0.0921
     37  C5       -20.0940  -37.3870   -5.9260 C.2     4  DC4         0.0687
     38  C6       -20.6810  -36.1910   -6.0450 C.2     4  DC4         0.0835
@<TRIPOS>BOND
     1    21    20    2
     2    14    13    2
     3     9     8    1
     4     9    20    1
     5    10     8    1
     6    10    11    1
     7    22    20    1
     8     8     6    1
     9    20    23    1
    10    13    15    2
    11    13    12   am
    12    15    16    2
    13    17    16    1
    14    16    18    1
    15    12    11    1
    16    12    19    1
    17    11     7    1
    18     2     1    1
    19    19    18    2
    20     6     7    1
    21     6     5    1
    22    23    24    1
    23     1     4    1
    24     1     3    1
    25    24    25    1
    26     4     5    1
    27    25    26    1
    28    25    27    1
    29    38    37    2
    30    38    31    1
    31    26    30    1
    32    27    29    1
    33    27    28    1
    34    37    35    1
    35    29    30    1
    36    30    31    1
    37    31    32   am
    38    35    36    1
    39    35    34    2
    40    32    34    2
    41    32    33    2
