@<TRIPOS>MOLECULE
1pv7_TDG_A_1.pdb
 23 24 0 0 0
SMALL
GASTEIGER

@<TRIPOS>ATOM
      1  C1        59.4900   70.3390  162.3710 C.3   500  TDG500      0.1976
      2  S1        60.0420   69.1180  161.0560 S.3   500  TDG500     -0.0782
      3  C2        59.4180   71.8190  161.8700 C.3   500  TDG500      0.2220
      4  O2        60.6740   72.2860  161.3820 O.3   500  TDG500     -0.2167
      5  C3        58.8890   72.7350  163.0460 C.3   500  TDG500      0.2181
      6  O3        58.8120   74.1060  162.5890 O.3   500  TDG500     -0.2175
      7  C4        57.4910   72.1950  163.4930 C.3   500  TDG500      0.2143
      8  O4        56.5210   72.3310  162.4240 O.3   500  TDG500     -0.2176
      9  C5        57.6410   70.7040  163.9440 C.3   500  TDG500      0.1820
     10  O5        58.1940   69.8900  162.8930 O.3   500  TDG500     -0.3397
     11  C6        56.3320   70.0380  164.3650 C.3   500  TDG500      0.2142
     12  O6        56.6040   68.6910  164.7250 O.3   500  TDG500     -0.2176
     13  C1'       59.8960   67.5540  162.0060 C.3   500  TDG500      0.1976
     14  C2'       60.5850   66.3690  161.2340 C.3   500  TDG500      0.2220
     15  O2'       60.0130   66.1300  159.9610 O.3   500  TDG500     -0.2167
     16  C3'       60.5000   65.0750  162.0630 C.3   500  TDG500      0.2181
     17  O3'       61.1220   63.9850  161.3630 O.3   500  TDG500     -0.2175
     18  C4'       61.1660   65.3550  163.5130 C.3   500  TDG500      0.2143
     19  O4'       62.5800   65.6420  163.3470 O.3   500  TDG500     -0.2176
     20  C5'       60.3980   66.5830  164.2180 C.3   500  TDG500      0.1820
     21  O5'       60.5060   67.7660  163.3400 O.3   500  TDG500     -0.3397
     22  C6'       60.9000   66.9860  165.6310 C.3   500  TDG500      0.2142
     23  O6'       59.8780   67.7310  166.2840 O.3   500  TDG500     -0.2176
@<TRIPOS>BOND
     1    15    14    1
     2     2    13    1
     3     2     1    1
     4    14    13    1
     5    14    16    1
     6    17    16    1
     7     4     3    1
     8     3     1    1
     9     3     5    1
    10    13    21    1
    11    16    18    1
    12     1    10    1
    13     8     7    1
    14     6     5    1
    15    10     9    1
    16     5     7    1
    17    21    20    1
    18    19    18    1
    19     7     9    1
    20    18    20    1
    21     9    11    1
    22    20    22    1
    23    11    12    1
    24    22    23    1
