@<TRIPOS>MOLECULE
1pvc_III_0_1.pdb
 30 29 0 0 0
SMALL
GASTEIGER

@<TRIPOS>ATOM
      1  N          6.4820   48.9940   87.6590 N.3     7  ILE7       -0.1231
      2  CA         6.4960   48.2600   88.9380 C.3     7  ILE7        0.1692
      3  C          7.2360   46.9220   88.7220 C.2     7  ILE7        0.2593
      4  O          7.4350   46.5170   87.5570 O.2     7  ILE7       -0.2718
      5  CB         4.9850   48.0210   89.4700 C.3     7  ILE7        0.0266
      6  CG1        4.2430   46.8060   88.8400 C.3     7  ILE7        0.0019
      7  CG2        4.2200   49.3140   89.1500 C.3     7  ILE7        0.0020
      8  CD1        4.3360   45.4800   89.6280 C.3     7  ILE7        0.0001
      9  N          7.6240   46.2330   89.8070 N.am    8  SER8       -0.1938
     10  CA         8.2430   44.9160   89.6880 C.3     8  SER8        0.2055
     11  C          7.8450   44.0300   90.8760 C.2     8  SER8        0.2643
     12  O          8.3040   44.2270   92.0120 O.2     8  SER8       -0.2714
     13  CB         9.8060   45.0840   89.5800 C.3     8  SER8        0.2130
     14  OG        10.4480   45.7120   90.6890 O.3     8  SER8       -0.2179
     15  N          6.8750   43.1340   90.6340 N.am    9  GLU9       -0.1963
     16  CA         6.4800   42.1140   91.6180 C.3     9  GLU9        0.1733
     17  C          7.6490   41.1180   91.7490 C.2     9  GLU9        0.2616
     18  O          8.3760   40.9070   90.7530 O.2     9  GLU9       -0.2715
     19  CB         5.1490   41.4210   91.1480 C.3     9  GLU9        0.0429
     20  CG         4.6360   40.0020   91.6630 C.3     9  GLU9        0.1163
     21  CD         4.3640   39.5970   93.1340 C.2     9  GLU9        0.3649
     22  OE1        5.2850   39.1380   93.7940 O.co2   9  GLU9       -0.2457
     23  OE2        3.2260   39.6730   93.6060 O.co2   9  GLU9       -0.2457
     24  N          7.8460   40.6160   92.9880 N.am   10  VAL10      -0.1977
     25  CA         8.9020   39.6540   93.3040 C.3    10  VAL10       0.1596
     26  C          8.2990   38.4800   94.1140 C.2    10  VAL10       0.2287
     27  O          7.7520   38.6600   95.2260 O.2    10  VAL10      -0.2864
     28  CB        10.1190   40.3850   94.0840 C.3    10  VAL10       0.0276
     29  CG1       10.5510   41.5700   93.2200 C.3    10  VAL10       0.0022
     30  CG2        9.7670   40.9270   95.4800 C.3    10  VAL10       0.0022
@<TRIPOS>BOND
     1     4     3    2
     2     1     2    1
     3     3     2    1
     4     3     9   am
     5     6     5    1
     6     6     8    1
     7     2     5    1
     8     7     5    1
     9    13    10    1
    10    13    14    1
    11    10     9    1
    12    10    11    1
    13    15    11   am
    14    15    16    1
    15    18    17    2
    16    11    12    2
    17    19    16    1
    18    19    20    1
    19    16    17    1
    20    20    21    1
    21    17    24   am
    22    24    25    1
    23    21    23   ar
    24    21    22   ar
    25    29    28    1
    26    25    28    1
    27    25    26    1
    28    28    30    1
    29    26    27    2
