@<TRIPOS>MOLECULE
1pvd_TPP_A_1.pdb
 26 27 0 0 0
SMALL
GASTEIGER

@<TRIPOS>ATOM
      1  N1'        1.3330   10.7640   28.2610 N.2   557  TPP557     -0.1861
      2  C2'        2.1290    9.6690   28.2210 C.1   557  TPP557      0.0663
      3  CM2        1.5530    8.2780   28.1360 C.3   557  TPP557      0.1291
      4  N3'        3.4610    9.7040   28.3940 N.2   557  TPP557     -0.3368
      5  C4'        4.0620   10.9390   28.5850 C.2   557  TPP557      0.2292
      6  N4'        5.3780   10.8980   28.6450 N.pl3 557  TPP557     -0.0925
      7  C5'        3.2780   12.1160   28.6680 C.2   557  TPP557      0.0654
      8  C6'        1.9450   11.9640   28.4540 C.2   557  TPP557      0.1115
      9  C7'        3.8960   13.4700   28.8740 C.3   557  TPP557      0.1237
     10  N3         4.5780   13.5930   30.2630 N.pl3 557  TPP557     -0.2970
     11  C2         5.8490   13.4370   30.4480 C.3   557  TPP557      0.1543
     12  S1         6.3480   13.6630   32.0400 S.3   557  TPP557     -0.0951
     13  C5         4.6950   14.0520   32.4730 C.2   557  TPP557      0.0164
     14  C4         3.8730   13.9400   31.4280 C.2   557  TPP557      0.0279
     15  CM4        2.4250   14.2240   31.4160 C.3   557  TPP557      0.0473
     16  C6         4.3740   14.3970   33.9000 C.3   557  TPP557      0.0661
     17  C7         5.1070   13.5240   34.8780 C.3   557  TPP557      0.1544
     18  O7         4.4630   13.6950   36.1300 O.3   557  TPP557     -0.3134
     19  PA         4.9990   13.1220   37.4850 P.3   557  TPP557      0.2230
     20  O1A        4.1890   13.7490   38.5770 O.3   557  TPP557     -0.4370
     21  O2A        4.8790   11.6610   37.2670 O.2   557  TPP557     -0.5169
     22  O3A        6.5310   13.5530   37.6430 O.3   557  TPP557     -0.2261
     23  PB         7.4610   14.6380   38.4050 P.3   557  TPP557      0.5373
     24  O1B        8.3880   13.9130   39.3460 O.3   557  TPP557     -0.1143
     25  O2B        8.2690   15.3050   37.2710 O.2   557  TPP557     -0.2221
     26  O3B        6.5720   15.5820   39.0680 O.3   557  TPP557     -0.1143
@<TRIPOS>BOND
     1     3     2    1
     2     2     1    2
     3     2     4    2
     4     1     8    1
     5     4     5    2
     6     8     7    2
     7     5     6    1
     8     5     7    1
     9     7     9    1
    10     9    10    1
    11    10    11    1
    12    10    14    1
    13    11    12    1
    14    15    14    1
    15    14    13    2
    16    12    13    1
    17    13    16    1
    18    16    17    1
    19    17    18    1
    20    18    19    1
    21    21    19    2
    22    25    23    2
    23    19    22    1
    24    19    20    1
    25    22    23    1
    26    23    26    1
    27    23    24    1
