@<TRIPOS>MOLECULE
1pvg_ANP_A_1.pdb
 31 33 0 0 0
SMALL
GASTEIGER

@<TRIPOS>ATOM
      1  PG        25.9540   43.5680   37.0160 P.3   901  ANP901      0.4884
      2  O1G       25.9750   42.0760   37.2330 O.3   901  ANP901     -0.1240
      3  O2G       26.8350   44.2600   38.0270 O.3   901  ANP901     -0.1240
      4  O3G       26.4450   43.8400   35.6200 O.2   901  ANP901     -0.2331
      5  PB        23.8000   44.8620   38.5180 P.3   901  ANP901      0.4669
      6  O1B       24.6490   45.9880   39.0220 O.3   901  ANP901     -0.1253
      7  O2B       22.4460   45.3890   38.1450 O.2   901  ANP901     -0.2351
      8  N3B       24.4090   44.1670   37.1280 N.3   901  ANP901     -0.0163
      9  PA        24.3500   43.7050   40.9440 P.3   901  ANP901      0.2220
     10  O1A       25.7620   44.2000   40.9680 O.2   901  ANP901     -0.5170
     11  O2A       24.3400   42.2690   41.4310 O.3   901  ANP901     -0.4370
     12  O3A       23.7020   43.7370   39.5560 O.3   901  ANP901     -0.2360
     13  O5'       23.4980   44.5390   41.8700 O.3   901  ANP901     -0.3111
     14  C5'       22.1440   44.1230   42.0640 C.3   901  ANP901      0.1813
     15  C4'       21.2130   45.3180   42.1290 C.3   901  ANP901      0.1821
     16  O4'       21.3780   45.9430   43.3790 O.3   901  ANP901     -0.3135
     17  C3'       21.5590   46.4110   41.1210 C.3   901  ANP901      0.2184
     18  O3'       20.7260   46.3200   39.9740 O.3   901  ANP901     -0.2174
     19  C2'       21.3150   47.7190   41.8480 C.3   901  ANP901      0.2570
     20  O2'       20.0000   48.1310   41.5460 O.3   901  ANP901     -0.2130
     21  C1'       21.3430   47.3630   43.3240 C.3   901  ANP901      0.3186
     22  N9        22.5340   47.9290   43.9910 N.pl3 901  ANP901     -0.1439
     23  C8        23.7160   47.3080   44.1890 C.3   901  ANP901      0.3377
     24  N7        24.5740   48.1200   44.8680 N.2   901  ANP901     -0.2095
     25  C5        23.9330   49.2710   45.0950 C.2   901  ANP901      0.2526
     26  C6        24.2630   50.5460   45.7570 C.2   901  ANP901      0.4393
     27  N6        25.5250   50.7410   46.3230 N.pl3 901  ANP901      0.2180
     28  N1        23.3110   51.5000   45.7960 N.2   901  ANP901      0.0021
     29  C2        22.0890   51.3120   45.2410 C.3   901  ANP901      0.5254
     30  N3        21.7260   50.1660   44.6250 N.2   901  ANP901     -0.0055
     31  C4        22.5910   49.1430   44.5280 C.2   901  ANP901      0.3518
@<TRIPOS>BOND
     1     4     1    2
     2     1     8    1
     3     1     2    1
     4     1     3    1
     5     8     5    1
     6     7     5    2
     7     5     6    1
     8     5    12    1
     9    12     9    1
    10    18    17    1
    11     9    10    2
    12     9    11    1
    13     9    13    1
    14    17    19    1
    15    17    15    1
    16    20    19    1
    17    19    21    1
    18    13    14    1
    19    14    15    1
    20    15    16    1
    21    21    16    1
    22    21    22    1
    23    22    23    1
    24    22    31    1
    25    23    24    1
    26    31    30    2
    27    31    25    1
    28    30    29    1
    29    24    25    2
    30    25    26    1
    31    29    28    1
    32    26    28    2
    33    26    27    1
