@<TRIPOS>MOLECULE
1pvj_ZFB_A_1.pdb
 22 23 0 0 0
SMALL
GASTEIGER

@<TRIPOS>ATOM
      1  N1        36.0420   10.6690  -12.9680 N.am  450  ZFB450     -0.1626
      2  C1        35.7540   11.3920  -13.9720 C.2   450  ZFB450      0.4218
      3  O1        36.1300   11.1250  -15.0720 O.2   450  ZFB450     -0.2245
      4  O2        34.7890   12.5880  -13.7500 O.3   450  ZFB450     -0.4285
      5  C2        34.8620   13.8310  -12.8850 C.3   450  ZFB450      0.2368
      6  C3        33.9390   14.8160  -12.7480 C.ar  450  ZFB450      0.0213
      7  C4        32.7150   14.8260  -13.4830 C.ar  450  ZFB450     -0.0007
      8  C5        31.7210   15.9560  -13.3260 C.ar  450  ZFB450     -0.0002
      9  C6        32.0120   17.0910  -12.3820 C.ar  450  ZFB450     -0.0000
     10  C7        33.2740   17.0510  -11.6740 C.ar  450  ZFB450     -0.0002
     11  C8        34.2000   15.8720  -11.8890 C.ar  450  ZFB450     -0.0007
     12  C9        36.9460   11.0110  -11.9800 C.3   450  ZFB450      0.1600
     13  C10       37.8920   11.9350  -12.2900 C.2   450  ZFB450      0.1711
     14  O3        38.3430   12.4960  -11.3480 O.2   450  ZFB450     -0.2942
     15  C11       38.3890   12.2390  -13.4800 C.3   450  ZFB450      0.0741
     16  C12       36.1730   11.1390  -11.0050 C.3   450  ZFB450      0.0557
     17  C13       36.1380   12.0650   -9.8610 C.ar  450  ZFB450     -0.0200
     18  C14       36.3760   13.4990  -10.0000 C.ar  450  ZFB450     -0.0042
     19  C15       36.3770   14.3730   -8.9340 C.ar  450  ZFB450     -0.0003
     20  C16       36.1270   13.8700   -7.6310 C.ar  450  ZFB450     -0.0000
     21  C17       35.8740   12.4910   -7.4130 C.ar  450  ZFB450     -0.0003
     22  C18       35.8850   11.6040   -8.5310 C.ar  450  ZFB450     -0.0042
@<TRIPOS>BOND
     1     3     2    2
     2     2     4    1
     3     2     1   am
     4     4     5    1
     5     7     8   ar
     6     7     6   ar
     7    15    13    1
     8     8     9   ar
     9     1    12    1
    10     5     6    1
    11     6    11   ar
    12     9    10   ar
    13    13    12    1
    14    13    14    2
    15    12    16    1
    16    11    10   ar
    17    16    17    1
    18    18    17   ar
    19    18    19   ar
    20    17    22   ar
    21    19    20   ar
    22    22    21   ar
    23    20    21   ar
