@<TRIPOS>MOLECULE
1pvn_MZP_A_1.pdb
 22 23 0 0 0
SMALL
GASTEIGER

@<TRIPOS>ATOM
      1  P        -21.5720   34.9220   48.5230 P.3   971  MZP971      0.5327
      2  O1P      -20.2120   35.1940   47.9980 O.2   971  MZP971     -0.2224
      3  O2P      -21.6910   35.2580   49.9670 O.3   971  MZP971     -0.1145
      4  O3P      -21.9350   33.5210   48.2340 O.3   971  MZP971     -0.1145
      5  O5'      -22.5630   35.7870   47.7450 O.3   971  MZP971     -0.2675
      6  C5'      -23.9840   35.6990   48.0670 C.3   971  MZP971      0.1859
      7  C4'      -24.6160   36.8350   47.2280 C.3   971  MZP971      0.1801
      8  O4'      -24.5190   36.5730   45.8170 O.3   971  MZP971     -0.3326
      9  C3'      -26.1230   36.9920   47.4710 C.3   971  MZP971      0.2158
     10  O3'      -26.3850   37.7370   48.6330 O.3   971  MZP971     -0.2175
     11  C2'      -26.6090   37.6990   46.1920 C.3   971  MZP971      0.2310
     12  O2'      -26.4240   39.1210   46.2600 O.3   971  MZP971     -0.2158
     13  C1'      -25.7100   37.0760   45.1490 C.3   971  MZP971      0.2297
     14  N1       -26.3340   36.0070   44.3190 N.am  971  MZP971     -0.2289
     15  C2       -27.2220   35.0220   44.4970 C.3   971  MZP971      0.2243
     16  N3       -27.4230   34.3380   43.4360 N.2   971  MZP971     -0.2390
     17  C4       -26.6270   34.8940   42.4990 C.2   971  MZP971      0.1881
     18  C6       -26.4900   34.4480   41.0880 C.2   971  MZP971      0.3061
     19  O6       -27.1210   33.4890   40.6670 O.2   971  MZP971     -0.2648
     20  C5       -25.9510   35.9380   43.0260 C.2   971  MZP971      0.2742
     21  N6       -25.6380   35.0920   40.1970 N.am  971  MZP971     -0.0822
     22  O5       -25.0620   36.7270   42.3630 O.2   971  MZP971     -0.2680
@<TRIPOS>BOND
     1    21    18   am
     2    19    18    2
     3    18    17    1
     4    22    20    2
     5    17    20    1
     6    17    16    2
     7    20    14   am
     8    16    15    1
     9    14    15    1
    10    14    13    1
    11    13     8    1
    12    13    11    1
    13     8     7    1
    14    11    12    1
    15    11     9    1
    16     7     9    1
    17     7     6    1
    18     9    10    1
    19     5     6    1
    20     5     1    1
    21     2     1    2
    22     4     1    1
    23     1     3    1
