@<TRIPOS>MOLECULE
1pvo_NUC_G_1.pdb
 40 43 0 0 0
SMALL
GASTEIGER

@<TRIPOS>ATOM
      1  P        -28.0850  -35.9820   -8.7540 P.3     1  RU1         0.3942
      2  OP1      -29.3100  -36.7340   -9.1020 O.3     1  RU1        -0.1425
      3  OP2      -27.7420  -34.7670   -9.5210 O.3     1  RU1        -0.1425
      4  O5'      -26.8200  -36.9600   -8.8000 O.3     1  RU1        -0.2926
      5  C5'      -25.5100  -36.4510   -8.5680 C.3     1  RU1         0.1829
      6  C4'      -24.4590  -37.3570   -9.1740 C.3     1  RU1         0.1772
      7  O4'      -24.7300  -38.7090   -8.7620 O.3     1  RU1        -0.3321
      8  C3'      -24.4580  -37.4020  -10.6970 C.3     1  RU1         0.1857
      9  O3'      -23.4910  -36.5190  -11.3300 O.3     1  RU1        -0.3112
     10  C2'      -24.2740  -38.8760  -11.0830 C.3     1  RU1         0.2291
     11  O2'      -23.0890  -39.1310  -11.8200 O.3     1  RU1        -0.2158
     12  C1'      -24.2510  -39.6080   -9.7430 C.3     1  RU1         0.2399
     13  N1       -25.1110  -40.8320   -9.7120 N.am    1  RU1        -0.1766
     14  C2       -24.5680  -42.0670  -10.0070 C.1     1  RU1         0.2845
     15  O2       -23.4040  -42.2410  -10.3080 O.2     1  RU1        -0.1918
     16  N3       -25.4540  -43.1130   -9.9450 N.2     1  RU1        -0.2452
     17  C4       -26.7970  -43.0490   -9.6220 C.1     1  RU1         0.2182
     18  O4       -27.4700  -44.0690   -9.6060 O.2     1  RU1        -0.2085
     19  C5       -27.2890  -41.7320   -9.3330 C.2     1  RU1         0.1242
     20  C6       -26.4450  -40.7000   -9.3860 C.2     1  RU1         0.0929
     21  P        -22.0510  -36.0850  -10.7760 P.3     2  RC2         0.2141
     22  OP1      -21.4220  -35.2740  -11.8390 O.2     2  RC2        -0.5172
     23  OP2      -21.3300  -37.2760  -10.2880 O.3     2  RC2        -0.4373
     24  O5'      -22.4090  -35.1420   -9.5360 O.3     2  RC2        -0.3114
     25  C5'      -21.8690  -33.8220   -9.4480 C.3     2  RC2         0.1813
     26  C4'      -21.6130  -33.3930   -8.0110 C.3     2  RC2         0.1799
     27  O4'      -22.0340  -34.4250   -7.0770 O.3     2  RC2        -0.3320
     28  C3'      -20.1540  -33.1470   -7.6540 C.3     2  RC2         0.2158
     29  O3'      -19.7160  -31.8660   -8.1150 O.3     2  RC2        -0.2175
     30  C2'      -20.2160  -33.2450   -6.1310 C.3     2  RC2         0.2319
     31  O2'      -20.7220  -32.0720   -5.5240 O.3     2  RC2        -0.2157
     32  C1'      -21.2080  -34.3920   -5.9260 C.3     2  RC2         0.2400
     33  N1       -20.5760  -35.7510   -5.6870 N.am    2  RC2        -0.1778
     34  C2       -20.4370  -36.2380   -4.3780 C.1     2  RC2         0.2756
     35  O2       -20.8320  -35.5530   -3.4340 O.2     2  RC2        -0.1925
     36  N3       -19.8690  -37.4540   -4.1770 N.2     2  RC2        -0.3024
     37  C4       -19.4460  -38.1790   -5.2120 C.2     2  RC2         0.2346
     38  N4       -18.8940  -39.3690   -4.9630 N.pl3   2  RC2        -0.0921
     39  C5       -19.5720  -37.7120   -6.5510 C.2     2  RC2         0.0687
     40  C6       -20.1350  -36.5110   -6.7370 C.2     2  RC2         0.0836
@<TRIPOS>BOND
     1    22    21    2
     2    11    10    1
     3     9    21    1
     4     9     8    1
     5    10     8    1
     6    10    12    1
     7    21    23    1
     8    21    24    1
     9     8     6    1
    10    15    14    2
    11    14    16    2
    12    14    13   am
    13    16    17    2
    14    12    13    1
    15    12     7    1
    16    13    20    1
    17    17    18    2
    18    17    19    1
    19    24    25    1
    20     3     1    1
    21    25    26    1
    22    20    19    2
    23     6     7    1
    24     6     5    1
    25     2     1    1
    26     4     1    1
    27     4     5    1
    28    29    28    1
    29    26    28    1
    30    26    27    1
    31    28    30    1
    32    27    32    1
    33    40    39    2
    34    40    33    1
    35    39    37    1
    36    30    32    1
    37    30    31    1
    38    32    33    1
    39    33    34   am
    40    37    38    1
    41    37    36    2
    42    34    36    2
    43    34    35    2
