@<TRIPOS>MOLECULE
1pvo_ANP_A_1.pdb
 31 33 0 0 0
SMALL
GASTEIGER

@<TRIPOS>ATOM
      1  PG         4.6070  -32.7630   18.6410 P.3   601  ANP601      0.4884
      2  O1G        4.5790  -31.4790   19.4420 O.3   601  ANP601     -0.1240
      3  O2G        3.2580  -33.4210   18.5580 O.3   601  ANP601     -0.1240
      4  O3G        5.3410  -32.6220   17.3360 O.2   601  ANP601     -0.2331
      5  PB         5.4090  -33.7640   21.2220 P.3   601  ANP601      0.4669
      6  O1B        6.4510  -32.7950   21.7100 O.3   601  ANP601     -0.1253
      7  O2B        3.9650  -33.5250   21.5890 O.2   601  ANP601     -0.2351
      8  N3B        5.5350  -33.7810   19.5620 N.3   601  ANP601     -0.0163
      9  PA         5.0250  -36.5650   21.3220 P.3   601  ANP601      0.2220
     10  O1A        3.7890  -36.6800   22.1780 O.3   601  ANP601     -0.4370
     11  O2A        4.9220  -36.5820   19.8160 O.2   601  ANP601     -0.5170
     12  O3A        5.8090  -35.2260   21.7790 O.3   601  ANP601     -0.2360
     13  O5'        6.0190  -37.7670   21.7310 O.3   601  ANP601     -0.3107
     14  C5'        7.3710  -37.8250   21.2600 C.3   601  ANP601      0.1867
     15  C4'        8.2860  -37.8640   22.4650 C.3   601  ANP601      0.2137
     16  O4'        7.9030  -37.3180   23.7510 O.3   601  ANP601     -0.3042
     17  C3'        9.3980  -38.5850   22.5850 C.2   601  ANP601      0.2436
     18  O3'       10.1020  -38.9570   21.6560 O.2   601  ANP601     -0.2854
     19  C2'        9.7370  -38.6400   23.8720 C.2   601  ANP601      0.2824
     20  O2'       10.8710  -38.8660   24.2670 O.2   601  ANP601     -0.2811
     21  C1'        8.8040  -38.0410   24.6100 C.3   601  ANP601      0.3523
     22  N9         8.2830  -38.6060   25.7300 N.pl3 601  ANP601     -0.1394
     23  C8         7.6260  -37.8910   26.6500 C.3   601  ANP601      0.3380
     24  N7         7.1940  -38.7770   27.5940 N.2   601  ANP601     -0.2095
     25  C5         7.5630  -40.0220   27.2220 C.2   601  ANP601      0.2526
     26  C6         7.4140  -41.3900   27.7700 C.2   601  ANP601      0.4393
     27  N6         6.7630  -41.6060   28.9360 N.pl3 601  ANP601      0.2180
     28  N1         7.9450  -42.4140   27.0780 N.2   601  ANP601      0.0021
     29  C2         8.6000  -42.2270   25.9100 C.3   601  ANP601      0.5254
     30  N3         8.7690  -41.0110   25.3510 N.2   601  ANP601     -0.0055
     31  C4         8.2820  -39.9120   25.9450 C.2   601  ANP601      0.3521
@<TRIPOS>BOND
     1     4     1    2
     2     3     1    1
     3     1     2    1
     4     1     8    1
     5     8     5    1
     6    11     9    2
     7     5     7    2
     8     5     6    1
     9     5    12    1
    10    14    13    1
    11    14    15    1
    12     9    13    1
    13     9    12    1
    14     9    10    1
    15    18    17    2
    16    15    17    1
    17    15    16    1
    18    17    19    1
    19    16    21    1
    20    19    20    2
    21    19    21    1
    22    21    22    1
    23    30    29    1
    24    30    31    2
    25    22    31    1
    26    22    23    1
    27    29    28    1
    28    31    25    1
    29    23    24    1
    30    28    26    2
    31    25    24    2
    32    25    26    1
    33    26    27    1
