@<TRIPOS>MOLECULE
1pvs_7HP_A_1.pdb
 10 11 0 0 0
SMALL
GASTEIGER

@<TRIPOS>ATOM
      1  C9        26.8180   26.9070   23.1290 C.2   800  7HP800      0.1431
      2  C4        27.0150   28.1900   22.6260 C.2   800  7HP800      0.1297
      3  N3        28.1990   28.7260   22.1900 N.2   800  7HP800     -0.2396
      4  C2        28.0430   30.0320   21.7540 C.3   800  7HP800      0.2626
      5  N1        26.8090   30.6870   21.7740 N.2   800  7HP800     -0.1739
      6  C6        25.6120   30.1310   22.2200 C.1   800  7HP800      0.1734
      7  O6        24.5960   30.7840   22.1940 O.2   800  7HP800     -0.2205
      8  C5        25.7700   28.8160   22.6600 C.2   800  7HP800      0.2035
      9  N7        24.8640   27.9180   23.1700 N.2   800  7HP800     -0.1344
     10  N8        25.5360   26.8350   23.4200 N.2   800  7HP800     -0.1440
@<TRIPOS>BOND
     1     4     5    1
     2     4     3    1
     3     5     6    2
     4     3     2    2
     5     7     6    2
     6     6     8    1
     7     2     8    1
     8     2     1    1
     9     8     9    2
    10     1    10    2
    11     9    10    1
