@<TRIPOS>MOLECULE
1pvy_5RP_A_1.pdb
 14 13 0 0 0
SMALL
GASTEIGER

@<TRIPOS>ATOM
      1  C2         2.0490   -3.2740   15.0600 C.3   501  5RP501      0.2486
      2  C3         1.3200   -4.4060   14.3960 C.2   501  5RP501      0.2165
      3  C5        -0.1920   -4.3500   14.2690 C.3   501  5RP501      0.2439
      4  O13       -0.7280   -5.6850   14.0500 O.3   501  5RP501     -0.2122
      5  C6        -0.6290   -3.3890   13.1160 C.3   501  5RP501      0.2194
      6  O14       -2.0350   -3.3880   12.9740 O.3   501  5RP501     -0.2172
      7  C7         0.0500   -3.7090   11.7570 C.3   501  5RP501      0.1896
      8  O8         0.1740   -5.1110   11.5340 O.3   501  5RP501     -0.2674
      9  P9        -0.7500   -5.9240   10.5090 P.3   501  5RP501      0.5327
     10  O12       -0.5790   -5.3030    9.0440 O.2   501  5RP501     -0.2224
     11  O11       -0.2780   -7.4350   10.5590 O.3   501  5RP501     -0.1145
     12  O10       -2.1730   -5.8450   10.8760 O.3   501  5RP501     -0.1145
     13  O4         1.9340   -5.3650   13.9650 O.2   501  5RP501     -0.2905
     14  O1         1.8820   -2.0660   14.2980 O.3   501  5RP501     -0.2118
@<TRIPOS>BOND
     1    10     9    2
     2     9    11    1
     3     9    12    1
     4     9     8    1
     5     8     7    1
     6     7     5    1
     7     6     5    1
     8     5     3    1
     9    13     2    2
    10     4     3    1
    11     3     2    1
    12    14     1    1
    13     2     1    1
