@<TRIPOS>MOLECULE
1pw1_HEL_A_1.pdb
 29 30 0 0 0
SMALL
GASTEIGER

@<TRIPOS>ATOM
      1  S1        18.8420  -12.4700   40.9540 S.3   400  HEL400     -0.1184
      2  C2        18.7030  -10.7540   41.5750 C.3   400  HEL400      0.0681
      3  C3        18.0030  -10.0060   40.3840 C.3   400  HEL400      0.1888
      4  N4        17.0140  -11.0010   39.8980 N.am  400  HEL400     -0.2594
      5  C5        17.1180  -12.3920   40.3410 C.3   400  HEL400      0.1529
      6  C6        16.7880  -12.8450   38.9020 C.3   400  HEL400      0.1995
      7  C7        16.9730  -11.3930   38.5450 C.2   400  HEL400      0.2491
      8  N8        17.8390  -13.5910   38.2190 N.am  400  HEL400     -0.1951
      9  C9        18.0680  -14.8710   38.6400 C.2   400  HEL400      0.2418
     10  O10       17.3880  -15.3690   39.4980 O.2   400  HEL400     -0.2733
     11  C11       19.1920  -15.5670   37.9080 C.3   400  HEL400      0.0868
     12  C12       20.2060  -16.1460   38.9120 C.3   400  HEL400      0.0097
     13  C13       21.4560  -16.7270   38.2210 C.3   400  HEL400      0.0029
     14  C14       22.2460  -15.5710   37.5920 C.3   400  HEL400      0.0333
     15  C15       23.6260  -16.0700   37.1200 C.3   400  HEL400      0.1978
     16  C16       24.2640  -14.9560   36.3000 C.2   400  HEL400      0.3842
     17  O17       24.0620  -14.8800   35.1250 O.co2 400  HEL400     -0.2437
     18  O18       25.0210  -14.0400   37.0820 O.co2 400  HEL400     -0.2437
     19  N19       24.3800  -16.4670   38.3030 N.am  400  HEL400     -0.1943
     20  C20       24.7510  -17.7150   38.5840 C.2   400  HEL400      0.2612
     21  O21       24.5550  -18.6340   37.8060 O.2   400  HEL400     -0.2717
     22  C22       25.3810  -17.9160   39.9340 C.3   400  HEL400      0.1956
     23  N23       25.9810  -19.2730   39.9400 N.3   400  HEL400     -0.1210
     24  C24       20.1430  -10.2350   41.7060 C.3   400  HEL400      0.0131
     25  C25       17.8820  -10.6270   42.8630 C.3   400  HEL400      0.0131
     26  C26       17.4030   -8.7090   40.8610 C.2   400  HEL400      0.3833
     27  O27       16.2420   -8.5670   41.2040 O.co2 400  HEL400     -0.2438
     28  O28       18.3440   -7.7390   40.7870 O.co2 400  HEL400     -0.2438
     29  O29       16.9930  -10.6880   37.5580 O.2   400  HEL400     -0.2729
@<TRIPOS>BOND
     1    17    16   ar
     2    16    18   ar
     3    16    15    1
     4    15    14    1
     5    15    19    1
     6    29     7    2
     7    14    13    1
     8    21    20    2
     9    11     9    1
    10    11    12    1
    11     8     9   am
    12     8     6    1
    13    13    12    1
    14    19    20   am
    15     7     6    1
    16     7     4   am
    17    20    22    1
    18     9    10    2
    19     6     5    1
    20     4     5    1
    21     4     3    1
    22    22    23    1
    23     5     1    1
    24     3    26    1
    25     3     2    1
    26    28    26   ar
    27    26    27   ar
    28     1     2    1
    29     2    24    1
    30     2    25    1
