@<TRIPOS>MOLECULE
1pw6_FRB_A_1.pdb
 36 39 0 0 0
SMALL
GASTEIGER

@<TRIPOS>ATOM
      1  N1        82.6620   24.1330   11.1010 N.pl3 201  FRB201      0.1354
      2  C2        83.4640   25.1850   10.9950 C.cat 201  FRB201      0.5349
      3  N3        83.2380   26.2680   11.7360 N.pl3 201  FRB201      0.1354
      4  N4        84.4680   25.1330   10.1260 N.pl3 201  FRB201     -0.0806
      5  C5        85.8740   25.2720   10.4520 C.3   201  FRB201      0.2576
      6  C6        86.5340   25.8440    9.1960 C.3   201  FRB201      0.0491
      7  C7        86.0180   27.2530    8.8920 C.3   201  FRB201      0.0040
      8  C8        86.5470   27.7580    7.5530 C.3   201  FRB201      0.0001
      9  C9        88.0730   27.7510    7.5380 C.3   201  FRB201      0.0000
     10  C10       88.6440   26.3900    7.9380 C.3   201  FRB201      0.0001
     11  C11       88.0620   25.8690    9.2540 C.3   201  FRB201      0.0040
     12  C12       86.4790   23.9540   10.8700 C.2   201  FRB201      0.2818
     13  O13       86.3000   22.9620   10.1800 O.2   201  FRB201     -0.2696
     14  N14       87.1840   23.9330   12.0100 N.am  201  FRB201     -0.1926
     15  C15       88.4010   23.3800   12.1050 C.3   201  FRB201      0.1999
     16  C16       89.3600   23.9340   12.8790 C.2   201  FRB201      0.2478
     17  O17       89.2810   25.1220   13.1500 O.2   201  FRB201     -0.2729
     18  N18       90.4650   23.1810   13.3920 N.am  201  FRB201     -0.2781
     19  C19       90.5580   21.7210   13.2220 C.3   201  FRB201      0.0938
     20  C20       90.7200   21.0750   14.5980 C.3   201  FRB201      0.0272
     21  C23       91.5590   23.8450   14.1320 C.3   201  FRB201      0.0938
     22  C22       91.7680   23.1880   15.5030 C.3   201  FRB201      0.0272
     23  C21       91.8780   21.6570   15.4250 C.3   201  FRB201      0.0417
     24  C24       91.8810   20.9660   16.7540 C.2   201  FRB201      0.0640
     25  N25       91.8090   19.6470   17.0210 N.2   201  FRB201     -0.1567
     26  N26       91.8360   19.4570   18.3140 N.2   201  FRB201     -0.1526
     27  C28       91.9640   21.7030   17.9390 C.3   201  FRB201      0.0907
     28  C27       91.9240   20.6680   18.8600 C.2   201  FRB201      0.0870
     29  C29       91.9790   20.7740   20.2500 C.ar  201  FRB201      0.0271
     30  C34       91.1430   21.7200   21.0450 C.ar  201  FRB201      0.0694
     31 CL36       89.9870   22.8690   20.3030 Cl    201  FRB201     -0.0813
     32  C30       92.8370   19.9220   20.9510 C.ar  201  FRB201      0.0021
     33  C31       92.9390   19.9570   22.3450 C.ar  201  FRB201      0.0010
     34  C32       92.1820   20.8360   23.1220 C.ar  201  FRB201      0.0122
     35  C33       91.2880   21.7180   22.5220 C.ar  201  FRB201      0.0682
     36 CL35       90.3100   22.8500   23.5110 Cl    201  FRB201     -0.0814
@<TRIPOS>BOND
     1     9     8    1
     2     9    10    1
     3     8     7    1
     4    10    11    1
     5     7     6    1
     6     6    11    1
     7     6     5    1
     8     4     5    1
     9     4     2    2
    10    13    12    2
    11     5    12    1
    12    12    14   am
    13     2     1    1
    14     2     3    1
    15    14    15    1
    16    15    16    1
    17    16    17    2
    18    16    18   am
    19    19    18    1
    20    19    20    1
    21    18    21    1
    22    21    22    1
    23    20    23    1
    24    23    22    1
    25    23    24    1
    26    24    25    2
    27    24    27    1
    28    25    26    1
    29    27    28    1
    30    26    28    2
    31    28    29    1
    32    29    32   ar
    33    29    30   ar
    34    31    30    1
    35    32    33   ar
    36    30    35   ar
    37    33    34   ar
    38    35    34   ar
    39    35    36    1
