@<TRIPOS>MOLECULE
1pw7_RAB_A_1.pdb
 19 21 0 0 0
SMALL
GASTEIGER

@<TRIPOS>ATOM
      1  O5'       93.5130   65.9430   17.2860 O.3   645  RAB645     -0.2176
      2  C5'       93.5470   64.8320   18.1920 C.3   645  RAB645      0.2143
      3  C4'       93.7820   65.3230   19.6070 C.3   645  RAB645      0.1851
      4  O4'       93.7030   66.7420   19.8050 O.3   645  RAB645     -0.3134
      5  C1'       92.4860   67.1120   20.4590 C.3   645  RAB645      0.3186
      6  N9        91.1030   67.4370   19.6300 N.pl3 645  RAB645     -0.1439
      7  C4        90.0780   66.7120   19.0270 C.2   645  RAB645      0.3518
      8  N3        89.8870   65.3480   18.9900 N.2   645  RAB645     -0.0055
      9  C2        88.7790   64.9970   18.3080 C.3   645  RAB645      0.5254
     10  N1        87.8980   65.8320   17.6960 N.2   645  RAB645      0.0021
     11  C6        88.1060   67.1940   17.7440 C.2   645  RAB645      0.4393
     12  N6        87.2460   68.0170   17.1440 N.pl3 645  RAB645      0.2180
     13  C5        89.2610   67.6810   18.4500 C.2   645  RAB645      0.2526
     14  N7        89.7600   68.9700   18.6910 N.2   645  RAB645     -0.2095
     15  C8        90.8380   68.7440   19.3890 C.3   645  RAB645      0.3377
     16  C2'       92.2430   65.9450   21.3910 C.3   645  RAB645      0.2570
     17  O2'       90.8830   65.7010   21.7120 O.3   645  RAB645     -0.2130
     18  C3'       92.8300   64.7880   20.6230 C.3   645  RAB645      0.2186
     19  O3'       93.6130   64.0680   21.5680 O.3   645  RAB645     -0.2174
@<TRIPOS>BOND
     1    12    11    1
     2     1     2    1
     3    10    11    2
     4    10     9    1
     5    11    13    1
     6     2     3    1
     7     9     8    1
     8    13    14    2
     9    13     7    1
    10    14    15    1
    11     8     7    2
    12     7     6    1
    13    15     6    1
    14     3     4    1
    15     3    18    1
    16     6     5    1
    17     4     5    1
    18     5    16    1
    19    18    16    1
    20    18    19    1
    21    16    17    1
