@<TRIPOS>MOLECULE
1pw8_H2A_A_1.pdb
 29 29 0 0 0
SMALL
GASTEIGER

@<TRIPOS>ATOM
      1  S1        17.7250  -12.9370   40.9190 S.3   400  H2A400     -0.1100
      2  C2        18.3080  -11.7970   42.2150 C.3   400  H2A400      0.0873
      3  C3        18.8410  -10.4910   41.8120 C.2   400  H2A400      0.0125
      4  C3'       19.7710   -9.8670   42.6010 C.2   400  H2A400     -0.0020
      5  C4        18.6770   -9.8650   40.5000 C.2   400  H2A400      0.1534
      6  C4'       19.3510   -8.5400   39.9960 C.2   400  H2A400      0.4044
      7  O4A       18.5460   -7.8360   39.3430 O.co2 400  H2A400     -0.2389
      8  O4B       20.5180   -8.3090   40.3370 O.co2 400  H2A400     -0.2389
      9  N5        18.0690  -10.5760   39.5610 N.2   400  H2A400     -0.2528
     10  C6        17.1150  -11.6210   39.8220 C.3   400  H2A400      0.1784
     11  C7        16.7130  -12.2640   38.4400 C.3   400  H2A400      0.1923
     12  C8        16.3350  -11.0480   37.6210 C.2   400  H2A400      0.2316
     13  O9        17.0200  -10.5070   36.8120 O.2   400  H2A400     -0.2863
     14  N10       17.8320  -12.8880   37.7040 N.am  400  H2A400     -0.1925
     15  C11       18.0400  -14.1840   37.8140 C.2   400  H2A400      0.2650
     16  O12       17.3410  -14.9230   38.4730 O.2   400  H2A400     -0.2684
     17  C13       19.2930  -14.5870   37.0740 C.2   400  H2A400      0.0549
     18  C14       19.7460  -15.9070   37.3050 C.2   400  H2A400     -0.0214
     19  C15       21.0670  -16.4100   36.8580 C.3   400  H2A400      0.0285
     20  C16       21.9790  -15.3400   36.2010 C.3   400  H2A400      0.0379
     21  C17       23.4150  -15.8350   35.9440 C.3   400  H2A400      0.1981
     22  C18       24.1640  -14.7190   35.2620 C.2   400  H2A400      0.3842
     23  O19       24.0610  -14.6420   34.0690 O.co2 400  H2A400     -0.2437
     24  O20       24.8730  -13.8830   35.9780 O.co2 400  H2A400     -0.2437
     25  N21       24.0510  -16.1480   37.2210 N.am  400  H2A400     -0.1943
     26  C22       24.4200  -17.3770   37.5540 C.2   400  H2A400      0.2612
     27  O23       24.2860  -18.3780   36.8160 O.2   400  H2A400     -0.2717
     28  C24       25.0270  -17.5790   38.9010 C.3   400  H2A400      0.1956
     29  N25       25.7310  -18.9110   38.9680 N.3   400  H2A400     -0.1210
@<TRIPOS>BOND
     1    23    22   ar
     2    22    21    1
     3    22    24   ar
     4    21    20    1
     5    21    25    1
     6    20    19    1
     7    13    12    2
     8    27    26    2
     9    19    18    1
    10    17    18    2
    11    17    15    1
    12    25    26   am
    13    26    28    1
    14    12    11    1
    15    14    15   am
    16    14    11    1
    17    15    16    2
    18    11    10    1
    19    28    29    1
    20     7     6   ar
    21     9    10    1
    22     9     5    2
    23    10     1    1
    24     6     8   ar
    25     6     5    1
    26     5     3    1
    27     1     2    1
    28     3     2    1
    29     3     4    2
