@<TRIPOS>MOLECULE
1pwb_GLC_A_1.pdb
 11 11 0 0 0
SMALL
GASTEIGER

@<TRIPOS>ATOM
      1  C1        29.1670  -14.7870    9.4450 C.3   405  GLC405      0.1777
      2  C2        28.0700  -15.1140   10.4630 C.3   405  GLC405      0.2141
      3  C3        27.8590  -13.9550   11.4500 C.3   405  GLC405      0.2173
      4  C4        29.1910  -13.5220   12.0640 C.3   405  GLC405      0.2142
      5  C5        30.2080  -13.2110   10.9660 C.3   405  GLC405      0.1810
      6  C6        31.5700  -12.9040   11.5440 C.3   405  GLC405      0.2141
      7  O2        26.8540  -15.3930    9.7810 O.3   405  GLC405     -0.2176
      8  O3        26.9840  -14.3790   12.4830 O.3   405  GLC405     -0.2175
      9  O4        28.9950  -12.3740   12.8740 O.3   405  GLC405     -0.2176
     10  O5        30.3650  -14.3560   10.0940 O.3   405  GLC405     -0.3481
     11  O6        32.5190  -12.6690   10.5170 O.3   405  GLC405     -0.2176
@<TRIPOS>BOND
     1     1    10    1
     2     1     2    1
     3     7     2    1
     4    10     5    1
     5     2     3    1
     6    11     6    1
     7     5     6    1
     8     5     4    1
     9     3     4    1
    10     3     8    1
    11     4     9    1
