@<TRIPOS>MOLECULE
1pwc_PNM_A_1.pdb
 23 24 0 0 0
SMALL
GASTEIGER

@<TRIPOS>ATOM
      1  O8        17.1330  -10.6770   37.2490 O.2   400  PNM400     -0.2863
      2  C7        16.4410  -11.3040   37.9560 C.2   400  PNM400      0.2311
      3  N4        16.9280  -10.5790   40.1870 N.3   400  PNM400     -0.1957
      4  C3        18.2150   -9.8960   40.3530 C.3   400  PNM400      0.1857
      5  C11       17.9000   -8.4100   40.7470 C.2   400  PNM400      0.3811
      6  O13       18.8680   -7.6660   40.5940 O.co2 400  PNM400     -0.2441
      7  O12       16.7680   -8.1700   41.2520 O.co2 400  PNM400     -0.2441
      8  C2        18.9740  -10.7530   41.4220 C.3   400  PNM400      0.0658
      9  C10       20.4400  -10.4770   41.3990 C.3   400  PNM400      0.0129
     10  C9        18.4830  -10.4700   42.8280 C.3   400  PNM400      0.0129
     11  S1        18.5540  -12.4990   40.9360 S.3   400  PNM400     -0.1212
     12  C5        17.0110  -12.0500   40.1940 C.3   400  PNM400      0.1479
     13  C6        16.7650  -12.5180   38.7570 C.3   400  PNM400      0.1855
     14  N14       17.8750  -13.1730   38.1040 N.am  400  PNM400     -0.1965
     15  C15       18.0830  -14.4790   38.2390 C.2   400  PNM400      0.2462
     16  O16       17.2330  -15.2630   38.7070 O.2   400  PNM400     -0.2730
     17  C17       19.2670  -15.0550   37.4970 C.3   400  PNM400      0.1131
     18  C18       20.4130  -15.4770   38.4510 C.ar  400  PNM400     -0.0130
     19  C19       20.6390  -16.8030   38.7210 C.ar  400  PNM400     -0.0038
     20  C20       21.7280  -17.1400   39.4970 C.ar  400  PNM400     -0.0003
     21  C21       22.5750  -16.1320   39.9110 C.ar  400  PNM400     -0.0000
     22  C22       22.3580  -14.8040   39.7320 C.ar  400  PNM400     -0.0003
     23  C23       21.2880  -14.4730   38.9470 C.ar  400  PNM400     -0.0038
@<TRIPOS>BOND
     1     1     2    2
     2    17    15    1
     3    17    18    1
     4     2    13    1
     5    14    15   am
     6    14    13    1
     7    15    16    2
     8    18    19   ar
     9    18    23   ar
    10    19    20   ar
    11    13    12    1
    12    23    22   ar
    13    20    21   ar
    14    22    21   ar
    15     3    12    1
    16     3     4    1
    17    12    11    1
    18     4     5    1
    19     4     8    1
    20     6     5   ar
    21     5     7   ar
    22    11     8    1
    23     9     8    1
    24     8    10    1
