@<TRIPOS>MOLECULE
1pwd_CSC_A_1.pdb
 24 24 0 0 0
SMALL
GASTEIGER

@<TRIPOS>ATOM
      1  S1        17.9530  -13.2760   41.2890 S.3   400  CSC400     -0.1100
      2  C2        18.4730  -12.1440   42.6250 C.3   400  CSC400      0.0873
      3  C3        19.2440  -10.9090   42.1380 C.2   400  CSC400      0.0125
      4  C3'       20.1860  -10.4060   42.9800 C.2   400  CSC400     -0.0020
      5  C4        18.8200  -10.2030   40.9030 C.2   400  CSC400      0.1534
      6  C4'       19.4210   -8.9680   40.2820 C.2   400  CSC400      0.4044
      7  O4A       18.6810   -8.0840   39.8770 O.co2 400  CSC400     -0.2389
      8  O4B       20.7430   -8.8610   40.0940 O.co2 400  CSC400     -0.2389
      9  N5        18.2760  -10.9170   39.9980 N.2   400  CSC400     -0.2528
     10  C6        17.3030  -11.9940   40.2320 C.3   400  CSC400      0.1784
     11  C7        16.9160  -12.5370   38.8440 C.3   400  CSC400      0.1920
     12  C8        16.5410  -11.3680   37.9620 C.2   400  CSC400      0.2316
     13  O9        17.2080  -10.7950   37.2190 O.2   400  CSC400     -0.2863
     14  N10       18.0040  -13.2030   38.1510 N.am  400  CSC400     -0.1962
     15  C11       18.0770  -14.5670   38.1740 C.2   400  CSC400      0.2418
     16  O12       17.1760  -15.2750   38.5200 O.2   400  CSC400     -0.2733
     17  C13       19.2910  -15.1510   37.4640 C.3   400  CSC400      0.0869
     18  C14       20.0740  -16.0640   38.4090 C.3   400  CSC400      0.0117
     19  C15       19.2790  -16.7690   39.5460 C.3   400  CSC400      0.0311
     20  C16       20.0700  -16.8710   40.8750 C.3   400  CSC400      0.1943
     21  N17       19.5720  -17.9280   41.7990 N.3   400  CSC400     -0.1208
     22  C18       21.4930  -17.3490   40.5030 C.2   400  CSC400      0.3819
     23  O19       22.3530  -16.4010   40.1130 O.co2 400  CSC400     -0.2441
     24  O20       21.8260  -18.4730   40.5580 O.co2 400  CSC400     -0.2441
@<TRIPOS>BOND
     1    13    12    2
     2    17    15    1
     3    17    18    1
     4    12    11    1
     5    14    15   am
     6    14    11    1
     7    15    16    2
     8    18    19    1
     9    11    10    1
    10    19    20    1
    11     7     6   ar
    12     9    10    1
    13     9     5    2
    14     8     6   ar
    15    23    22   ar
    16    10     1    1
    17     6     5    1
    18    22    24   ar
    19    22    20    1
    20    20    21    1
    21     5     3    1
    22     1     2    1
    23     3     2    1
    24     3     4    2
