@<TRIPOS>MOLECULE
1pwg_HE0_A_1.pdb
 29 29 0 0 0
SMALL
GASTEIGER

@<TRIPOS>ATOM
      1  S1        18.2810  -12.6430   41.4190 S.3   400  HE0400     -0.1212
      2  C2        18.9390  -10.9450   41.6640 C.3   400  HE0400      0.0658
      3  C3        18.2150   -9.9620   40.7000 C.3   400  HE0400      0.1857
      4  N4        17.0030  -10.6580   40.3780 N.3   400  HE0400     -0.1957
      5  C5        16.8570  -12.0880   40.4450 C.3   400  HE0400      0.1479
      6  C6        16.7140  -12.6380   39.0100 C.3   400  HE0400      0.1855
      7  C7        16.3620  -11.4630   38.1640 C.2   400  HE0400      0.2311
      8  N8        17.8890  -13.2310   38.4160 N.am  400  HE0400     -0.1968
      9  C9        18.2290  -14.4930   38.7640 C.2   400  HE0400      0.2418
     10  O10       17.5630  -15.1740   39.5100 O.2   400  HE0400     -0.2733
     11  C11       19.5850  -14.9000   38.2910 C.3   400  HE0400      0.0868
     12  C12       19.6510  -16.2330   37.5800 C.3   400  HE0400      0.0097
     13  C13       21.0580  -16.7870   37.5030 C.3   400  HE0400      0.0029
     14  C14       22.0250  -15.7520   36.8910 C.3   400  HE0400      0.0333
     15  C15       23.4500  -16.2940   36.7050 C.3   400  HE0400      0.1978
     16  C16       24.2620  -15.2510   35.9750 C.2   400  HE0400      0.3842
     17  O17       24.1350  -15.1730   34.7730 O.co2 400  HE0400     -0.2437
     18  O18       24.9790  -14.4240   36.7280 O.co2 400  HE0400     -0.2437
     19  N19       24.0010  -16.7070   37.9810 N.am  400  HE0400     -0.1943
     20  C20       24.5150  -17.9320   38.1910 C.2   400  HE0400      0.2612
     21  O21       24.5790  -18.8140   37.3650 O.2   400  HE0400     -0.2717
     22  C22       25.0530  -18.1340   39.5660 C.3   400  HE0400      0.1956
     23  N23       25.8480  -19.3780   39.6310 N.3   400  HE0400     -0.1210
     24  C24       18.4940  -10.4120   43.0540 C.3   400  HE0400      0.0129
     25  C25       20.4460  -10.9240   41.5920 C.3   400  HE0400      0.0129
     26  C26       17.8100   -8.4200   40.9620 C.2   400  HE0400      0.3811
     27  O27       16.6650   -8.1940   41.4460 O.co2 400  HE0400     -0.2441
     28  O28       18.7890   -7.7220   41.1630 O.co2 400  HE0400     -0.2441
     29  O29       17.0470  -10.8640   37.4060 O.2   400  HE0400     -0.2863
@<TRIPOS>BOND
     1    17    16   ar
     2    16    15    1
     3    16    18   ar
     4    15    14    1
     5    15    19    1
     6    14    13    1
     7    21    20    2
     8    29     7    2
     9    13    12    1
    10    12    11    1
    11    19    20   am
    12     7     6    1
    13    20    22    1
    14    11     9    1
    15     8     9   am
    16     8     6    1
    17     9    10    2
    18     6     5    1
    19    22    23    1
    20     4     5    1
    21     4     3    1
    22     5     1    1
    23     3    26    1
    24     3     2    1
    25    26    28   ar
    26    26    27   ar
    27     1     2    1
    28    25     2    1
    29     2    24    1
