@<TRIPOS>MOLECULE
1pwl_BFI_A_1.pdb
 28 31 0 0 0
SMALL
GASTEIGER

@<TRIPOS>ATOM
      1  C2        19.1850   13.3210  -10.5100 C.ar  320  BFI320      0.0271
      2  C3        20.1650   10.7120  -10.5390 C.ar  320  BFI320      0.0066
      3  C4        18.7130   12.4290  -11.4710 C.ar  320  BFI320      0.0086
      4  C5        20.0960   12.8720   -9.5980 C.ar  320  BFI320      0.1399
      5  C6        20.6080   11.5930   -9.5530 C.ar  320  BFI320      0.0298
      6  C7        19.1880   11.1150  -11.4950 C.ar  320  BFI320      0.0517
      7  C8        17.6590   12.8780  -12.4540 C.3   320  BFI320      0.2086
      8  F9        20.5420   13.7530   -8.6720 F     320  BFI320     -0.2042
      9  C11       18.6880   10.1280  -12.4400 C.2   320  BFI320      0.2548
     10  O13       16.5400   12.1490  -14.4010 O.2   320  BFI320     -0.2729
     11  N14       16.1160   14.4760  -11.5330 N.2   320  BFI320     -0.2651
     12  O15       17.1230   16.3950  -12.2710 O.2   320  BFI320     -0.2134
     13  O16       19.0500    8.9650  -12.4330 O.2   320  BFI320     -0.2695
     14  N17       17.7330   10.5290  -13.3440 N.am  320  BFI320     -0.2208
     15  C18       17.9230   14.2460  -13.0640 C.3   320  BFI320      0.1650
     16  C21       17.0430   15.1760  -12.2440 C.1   320  BFI320      0.1928
     17  C22       17.2570   11.8500  -13.4760 C.2   320  BFI320      0.2517
     18  C23       17.1590    9.5370  -14.2950 C.3   320  BFI320      0.1300
     19  C25       15.9500    8.8460  -13.7100 C.ar  320  BFI320      0.0256
     20  C27       13.6770    7.4720  -12.8010 C.ar  320  BFI320      0.0368
     21  C28       15.6320    8.7720  -12.3500 C.ar  320  BFI320      0.0001
     22  C29       15.0650    8.2050  -14.5460 C.ar  320  BFI320      0.1382
     23  C30       13.9140    7.5230  -14.1500 C.ar  320  BFI320      0.0361
     24  C31       14.5150    8.1050  -11.8770 C.ar  320  BFI320      0.0066
     25  F33       15.2930    8.3120  -15.8870 F     320  BFI320     -0.2044
     26 BR36       12.1390    6.5940  -12.1750 Br    320  BFI320     -0.0489
     27  O37       15.7060   12.2610  -11.1360 O.2   320  BFI320     -0.2126
     28  C39       16.3330   13.1540  -11.6420 C.1   320  BFI320      0.2021
@<TRIPOS>BOND
     1    25    22    1
     2    22    23   ar
     3    22    19   ar
     4    10    17    2
     5    18    19    1
     6    18    14    1
     7    23    20   ar
     8    19    21   ar
     9    17    14   am
    10    17     7    1
    11    14     9   am
    12    15     7    1
    13    15    16    1
    14    20    26    1
    15    20    24   ar
    16     7    28    1
    17     7     3    1
    18     9    13    2
    19     9     6    1
    20    21    24   ar
    21    12    16    2
    22    16    11    2
    23    28    11    2
    24    28    27    2
    25     6     3   ar
    26     6     2   ar
    27     3     1   ar
    28     2     5   ar
    29     1     4   ar
    30     4     5   ar
    31     4     8    1
