@<TRIPOS>MOLECULE
1pwl_NAP_A_1.pdb
 48 52 0 0 0
SMALL
GASTEIGER

@<TRIPOS>ATOM
      1  PA        20.6170   21.6450  -18.9790 P.3   318  NAP318      0.2189
      2  O1A       19.9800   21.2350  -20.2660 O.2   318  NAP318     -0.5170
      3  O2A       20.1040   22.7800  -18.2360 O.3   318  NAP318     -0.4371
      4  O5B       22.1800   21.7370  -19.2700 O.3   318  NAP318     -0.3112
      5  C5B       23.1020   22.0610  -18.1680 C.3   318  NAP318      0.1813
      6  C4B       24.4800   21.9570  -18.7480 C.3   318  NAP318      0.1820
      7  O4B       24.6760   23.0300  -19.7320 O.3   318  NAP318     -0.3136
      8  C3B       25.5880   22.1570  -17.7200 C.3   318  NAP318      0.2157
      9  O3B       26.6480   21.2510  -18.0790 O.3   318  NAP318     -0.2175
     10  C2B       26.0260   23.5770  -17.9160 C.3   318  NAP318      0.2314
     11  O2B       27.3910   23.7910  -17.5790 O.3   318  NAP318     -0.2630
     12  C1B       25.8140   23.8000  -19.3860 C.3   318  NAP318      0.3158
     13  N9A       25.5080   25.1850  -19.7770 N.pl3 318  NAP318     -0.1439
     14  C8A       24.6550   26.0040  -19.1530 C.3   318  NAP318      0.3377
     15  N7A       24.5390   27.1870  -19.7420 N.2   318  NAP318     -0.2095
     16  C5A       25.3830   27.0950  -20.8070 C.2   318  NAP318      0.2526
     17  C6A       25.7200   28.0450  -21.8010 C.2   318  NAP318      0.4393
     18  N6A       25.2250   29.2810  -21.8250 N.pl3 318  NAP318      0.2180
     19  N1A       26.6660   27.6360  -22.7040 N.2   318  NAP318      0.0021
     20  C2A       27.1800   26.3940  -22.6580 C.3   318  NAP318      0.5254
     21  N3A       26.9110   25.4290  -21.7840 N.2   318  NAP318     -0.0055
     22  C4A       26.0060   25.8600  -20.8440 C.2   318  NAP318      0.3518
     23  O3        20.6070   20.3190  -18.0570 O.3   318  NAP318     -0.2703
     24  PN        19.8740   19.7640  -16.7610 P.3   318  NAP318      0.2189
     25  O1N       20.6230   20.2020  -15.5600 O.3   318  NAP318     -0.4371
     26  O2N       19.6470   18.3120  -16.9900 O.2   318  NAP318     -0.5170
     27  O5D       18.4030   20.4160  -16.7840 O.3   318  NAP318     -0.3112
     28  C5D       18.0930   21.6750  -16.1400 C.3   318  NAP318      0.1813
     29  C4D       17.4850   21.4860  -14.8100 C.3   318  NAP318      0.1799
     30  O4D       16.1890   20.8060  -14.9300 O.3   318  NAP318     -0.3327
     31  C3D       18.2030   20.5790  -13.8110 C.3   318  NAP318      0.2158
     32  O3D       19.3850   21.1690  -13.2670 O.3   318  NAP318     -0.2175
     33  C2D       17.1140   20.2840  -12.8080 C.3   318  NAP318      0.2309
     34  O2D       16.9400   21.4590  -11.9970 O.3   318  NAP318     -0.2158
     35  C1D       15.9320   20.0700  -13.7430 C.3   318  NAP318      0.2263
     36  N1N       15.7100   18.6550  -14.1190 N.pl3 318  NAP318     -0.2787
     37  C2N       14.6680   17.9640  -13.5850 C.3   318  NAP318      0.1244
     38  C3N       14.4510   16.6500  -13.8830 C.2   318  NAP318      0.0544
     39  C7N       13.2400   15.9180  -13.3300 C.2   318  NAP318      0.2818
     40  O7N       13.2280   14.6850  -13.3230 O.2   318  NAP318     -0.2670
     41  N7N       12.2300   16.6960  -12.9050 N.am  318  NAP318     -0.0839
     42  C4N       15.3180   15.9870  -14.7480 C.2   318  NAP318      0.0033
     43  C5N       16.3740   16.6860  -15.3190 C.2   318  NAP318      0.0157
     44  C6N       16.5600   18.0140  -15.0520 C.2   318  NAP318      0.0633
     45  P2B       27.8830   24.5360  -16.2230 P.3   318  NAP318      0.5328
     46  O1X       26.8440   24.3340  -15.1600 O.3   318  NAP318     -0.1145
     47  O2X       29.2010   23.8670  -15.9290 O.3   318  NAP318     -0.1145
     48  O3X       28.0460   25.9890  -16.6070 O.2   318  NAP318     -0.2224
@<TRIPOS>BOND
     1    19    20    1
     2    19    17    2
     3    20    21    1
     4    18    17    1
     5    17    16    1
     6    21    22    2
     7    22    16    1
     8    22    13    1
     9    16    15    2
    10     2     1    2
    11    13    12    1
    12    13    14    1
    13    15    14    1
    14     7    12    1
    15     7     6    1
    16    12    10    1
    17     4     1    1
    18     4     5    1
    19     1     3    1
    20     1    23    1
    21     6     5    1
    22     6     8    1
    23     9     8    1
    24    23    24    1
    25    10     8    1
    26    10    11    1
    27    11    45    1
    28    26    24    2
    29    27    24    1
    30    27    28    1
    31    24    25    1
    32    48    45    2
    33    45    47    1
    34    45    46    1
    35    28    29    1
    36    43    44    2
    37    43    42    1
    38    44    36    1
    39    30    29    1
    40    30    35    1
    41    29    31    1
    42    42    38    2
    43    36    35    1
    44    36    37    1
    45    38    37    1
    46    38    39    1
    47    31    32    1
    48    31    33    1
    49    35    33    1
    50    39    40    2
    51    39    41   am
    52    33    34    1
