@<TRIPOS>MOLECULE
1pwm_FID_A_1.pdb
 20 22 0 0 0
SMALL
GASTEIGER

@<TRIPOS>ATOM
      1  C2I       16.2000   -6.1390   19.3410 C.1   1320  FID1320     0.3075
      2  N4        15.3650   -5.6880   18.3290 N.2   1320  FID1320    -0.2446
      3  C5        15.7950   -6.1500   17.1340 C.1   1320  FID1320     0.2166
      4  C7I       17.0240   -7.0630   17.3570 C.3   1320  FID1320     0.2260
      5  C12       16.6160   -8.4780   17.0280 C.ar  1320  FID1320     0.0506
      6  C13       15.8160   -9.2220   17.8780 C.ar  1320  FID1320     0.0313
      7  C14       15.3890  -10.4590   17.4950 C.ar  1320  FID1320     0.1401
      8  F17       14.6030  -11.1640   18.3540 F     1320  FID1320    -0.2042
      9  C15       15.6910  -11.0090   16.2930 C.ar  1320  FID1320     0.0327
     10  C16       16.4790  -10.2680   15.4370 C.ar  1320  FID1320     0.0390
     11  C11       16.9770   -9.0200   15.7850 C.ar  1320  FID1320     0.1380
     12  O10       17.7950   -8.3890   14.8940 O.3   1320  FID1320    -0.4699
     13  C9        18.0510   -6.9950   15.0590 C.3   1320  FID1320     0.2477
     14  C19       19.2840   -6.6510   14.2260 C.2   1320  FID1320     0.3010
     15  N21       19.8720   -7.6700   13.5600 N.am  1320  FID1320    -0.0846
     16  O20       19.7260   -5.4950   14.2140 O.2   1320  FID1320    -0.2677
     17  C8I       18.2370   -6.6220   16.5190 C.3   1320  FID1320     0.0980
     18  N1I       17.2300   -6.8290   18.7870 N.2   1320  FID1320    -0.1582
     19  O6I       15.2910   -5.9460   16.0510 O.2   1320  FID1320    -0.2111
     20  O3I       16.0360   -5.9400   20.5350 O.2   1320  FID1320    -0.1881
@<TRIPOS>BOND
     1    15    14   am
     2    16    14    2
     3    14    13    1
     4    12    13    1
     5    12    11    1
     6    13    17    1
     7    10    11   ar
     8    10     9   ar
     9    11     5   ar
    10    19     3    2
    11     9     7   ar
    12    17     4    1
    13     5     4    1
    14     5     6   ar
    15     3     4    1
    16     3     2    2
    17     4    18    1
    18     7     6   ar
    19     7     8    1
    20     2     1    2
    21    18     1    2
    22     1    20    2
