@<TRIPOS>MOLECULE
1pwm_NAP_A_1.pdb
 48 52 0 0 0
SMALL
GASTEIGER

@<TRIPOS>ATOM
      1  PA        22.7890   -4.7610   26.9360 P.3   1318  NAP1318     0.2189
      2  O1A       23.7140   -3.7080   26.4440 O.2   1318  NAP1318    -0.5170
      3  O2A       21.6980   -4.4210   27.8730 O.3   1318  NAP1318    -0.4371
      4  O5B       23.7240   -5.9380   27.4540 O.3   1318  NAP1318    -0.3112
      5  C5B       23.1240   -7.1660   27.9650 C.3   1318  NAP1318     0.1813
      6  C4B       24.2730   -8.0870   28.3430 C.3   1318  NAP1318     0.1820
      7  O4B       25.0450   -7.4600   29.4130 O.3   1318  NAP1318    -0.3136
      8  C3B       23.8820   -9.4740   28.8100 C.3   1318  NAP1318     0.2157
      9  O3B       24.8560  -10.3990   28.3130 O.3   1318  NAP1318    -0.2175
     10  C2B       23.9980   -9.3690   30.3340 C.3   1318  NAP1318     0.2314
     11  O2B       24.3150  -10.6060   30.9480 O.3   1318  NAP1318    -0.2630
     12  C1B       25.1460   -8.3960   30.5020 C.3   1318  NAP1318     0.3158
     13  N9A       25.1310   -7.6290   31.7330 N.pl3 1318  NAP1318    -0.1439
     14  C8A       24.0540   -6.9810   32.2790 C.3   1318  NAP1318     0.3377
     15  N7A       24.3430   -6.3360   33.4040 N.2   1318  NAP1318    -0.2095
     16  C5A       25.6600   -6.5870   33.5940 C.2   1318  NAP1318     0.2526
     17  C6A       26.5240   -6.1850   34.6310 C.2   1318  NAP1318     0.4393
     18  N6A       26.1250   -5.4730   35.6840 N.pl3 1318  NAP1318     0.2180
     19  N1A       27.7950   -6.6240   34.5260 N.2   1318  NAP1318     0.0021
     20  C2A       28.2110   -7.3600   33.4860 C.3   1318  NAP1318     0.5254
     21  N3A       27.4680   -7.7830   32.4370 N.2   1318  NAP1318    -0.0055
     22  C4A       26.1690   -7.3750   32.5580 C.2   1318  NAP1318     0.3518
     23  O3        22.1840   -5.4780   25.6120 O.3   1318  NAP1318    -0.2703
     24  PN        20.8100   -5.5910   24.8160 P.3   1318  NAP1318     0.2189
     25  O1N       20.0060   -6.7150   25.3730 O.3   1318  NAP1318    -0.4371
     26  O2N       21.1660   -5.6150   23.3650 O.2   1318  NAP1318    -0.5170
     27  O5D       20.0520   -4.1890   25.0390 O.3   1318  NAP1318    -0.3112
     28  C5D       19.1760   -3.9460   26.1650 C.3   1318  NAP1318     0.1813
     29  C4D       17.7310   -4.0500   25.7570 C.3   1318  NAP1318     0.1799
     30  O4D       17.4050   -3.0270   24.7850 O.3   1318  NAP1318    -0.3327
     31  C3D       17.3000   -5.3400   25.0620 C.3   1318  NAP1318     0.2158
     32  O3D       17.2410   -6.4530   25.9070 O.3   1318  NAP1318    -0.2175
     33  C2D       15.9820   -4.9050   24.4660 C.3   1318  NAP1318     0.2309
     34  O2D       15.0190   -4.8690   25.5180 O.3   1318  NAP1318    -0.2158
     35  C1D       16.3430   -3.4880   23.9750 C.3   1318  NAP1318     0.2263
     36  N1N       16.7930   -3.4350   22.5540 N.pl3 1318  NAP1318    -0.2787
     37  C2N       15.9770   -2.9170   21.6070 C.3   1318  NAP1318     0.1244
     38  C3N       16.3370   -2.8670   20.2850 C.2   1318  NAP1318     0.0544
     39  C7N       15.4650   -2.2240   19.2310 C.2   1318  NAP1318     0.2818
     40  O7N       15.6840   -2.4590   18.0450 O.2   1318  NAP1318    -0.2670
     41  N7N       14.5170   -1.3870   19.6790 N.am  1318  NAP1318    -0.0839
     42  C4N       17.5850   -3.4050   19.8840 C.2   1318  NAP1318     0.0033
     43  C5N       18.4270   -3.9030   20.8690 C.2   1318  NAP1318     0.0157
     44  C6N       18.0620   -3.8950   22.1840 C.2   1318  NAP1318     0.0633
     45  P2B       23.2530  -11.5110   31.7880 P.3   1318  NAP1318     0.5328
     46  O1X       21.8940  -11.2820   31.1940 O.2   1318  NAP1318    -0.2224
     47  O2X       23.8210  -12.9010   31.5760 O.3   1318  NAP1318    -0.1145
     48  O3X       23.3710  -11.0480   33.2200 O.3   1318  NAP1318    -0.1145
@<TRIPOS>BOND
     1    40    39    2
     2    39    41   am
     3    39    38    1
     4    42    38    2
     5    42    43    1
     6    38    37    1
     7    43    44    2
     8    37    36    1
     9    44    36    1
    10    36    35    1
    11    26    24    2
    12    35    33    1
    13    35    30    1
    14    33    31    1
    15    33    34    1
    16    30    29    1
    17    24    27    1
    18    24    25    1
    19    24    23    1
    20    27    28    1
    21    31    29    1
    22    31    32    1
    23    23     1    1
    24    29    28    1
    25     2     1    2
    26     1     4    1
    27     1     3    1
    28     4     5    1
    29     5     6    1
    30     9     8    1
    31     6     8    1
    32     6     7    1
    33     8    10    1
    34     7    12    1
    35    10    12    1
    36    10    11    1
    37    12    13    1
    38    11    45    1
    39    46    45    2
    40    47    45    1
    41    13    14    1
    42    13    22    1
    43    45    48    1
    44    14    15    1
    45    21    22    2
    46    21    20    1
    47    22    16    1
    48    15    16    2
    49    20    19    1
    50    16    17    1
    51    19    17    2
    52    17    18    1
