@<TRIPOS>MOLECULE
1pwp_NSC_A_1.pdb
 28 31 0 0 0
SMALL
GASTEIGER

@<TRIPOS>ATOM
      1  C12       86.5010   37.8380  135.8300 C.ar  9002  NSC9002     0.0202
      2  C3        87.1650   37.0570  134.8560 C.ar  9002  NSC9002     0.0439
      3  C2        88.4970   37.3280  134.4960 C.2   9002  NSC9002     0.0759
      4  N1        89.1700   38.3190  135.0860 N.pl3 9002  NSC9002    -0.1322
      5  C7        89.1190   36.5490  133.5040 C.3   9002  NSC9002     0.0991
      6  C6        88.4000   35.5100  132.8860 C.2   9002  NSC9002     0.0929
      7  C8        89.0620   34.6590  131.7990 C.3   9002  NSC9002     0.0619
      8  N5        87.1110   35.2610  133.2490 N.2   9002  NSC9002    -0.4101
      9  C4        86.4800   35.9970  134.2060 C.ar  9002  NSC9002     0.1316
     10  C9        85.1410   35.7210  134.5360 C.ar  9002  NSC9002     0.0334
     11  C10       84.4790   36.5020  135.5050 C.ar  9002  NSC9002     0.0193
     12  C11       85.1460   37.5650  136.1560 C.ar  9002  NSC9002     0.0752
     13  N13       84.4550   38.2960  137.0620 N.am  9002  NSC9002    -0.1607
     14  C14       84.9220   39.3400  137.7740 C.2   9002  NSC9002     0.3477
     15  O28       86.0810   39.7560  137.6570 O.2   9002  NSC9002    -0.2484
     16  N15       84.0270   39.9120  138.6070 N.am  9002  NSC9002    -0.1607
     17  C16       84.2500   40.9560  139.4400 C.2   9002  NSC9002     0.0752
     18  C17       85.5420   41.5190  139.6380 C.2   9002  NSC9002     0.0205
     19  C18       85.7340   42.5280  140.6110 C.2   9002  NSC9002     0.0477
     20  C24       87.0050   43.0810  140.8490 C.2   9002  NSC9002     0.0938
     21  N25       88.0620   42.6830  140.1420 N.pl3 9002  NSC9002    -0.1279
     22  C23       87.1610   44.0620  141.8430 C.2   9002  NSC9002     0.0457
     23  C21       86.0430   44.4780  142.5860 C.2   9002  NSC9002     0.1107
     24  C20       86.2000   45.5460  143.6720 C.3   9002  NSC9002     0.0664
     25  N22       84.8200   43.9330  142.3410 N.2   9002  NSC9002    -0.4061
     26  C19       84.6380   42.9810  141.3850 C.2   9002  NSC9002     0.1323
     27  C26       83.3630   42.4280  141.1790 C.2   9002  NSC9002     0.0334
     28  C27       83.1700   41.4220  140.2150 C.2   9002  NSC9002     0.0193
@<TRIPOS>BOND
     1     7     6    1
     2     6     8    2
     3     6     5    1
     4     8     9    2
     5     5     3    1
     6     9    10   ar
     7     9     2   ar
     8     3     2    2
     9     3     4    1
    10    10    11   ar
    11     2     1   ar
    12    11    12   ar
    13     1    12   ar
    14    12    13    1
    15    13    14   am
    16    15    14    2
    17    14    16    1
    18    16    17    2
    19    17    18    1
    20    17    28    1
    21    18    19    2
    22    21    20    1
    23    28    27    2
    24    19    20    1
    25    19    26    1
    26    20    22    2
    27    27    26    1
    28    26    25    2
    29    22    23    1
    30    25    23    2
    31    23    24    1
