@<TRIPOS>MOLECULE
1pwq_SD2_A_1.pdb
 32 33 0 0 0
SMALL
GASTEIGER

@<TRIPOS>ATOM
      1  CBE       83.7610   36.0930  128.6780 C.3   9002  SD29002     0.0742
      2  SBD       82.2840   35.2840  128.0820 S.3   9002  SD29002    -0.1125
      3  CBC       81.7350   34.2010  129.4330 C.2   9002  SD29002     0.0285
      4  CBB       82.4670   33.0750  129.7270 C.2   9002  SD29002     0.0110
      5  CAY       82.0390   32.1700  130.8760 C.3   9002  SD29002     0.1969
      6  CAZ       82.7660   30.8350  130.6920 C.2   9002  SD29002     0.2848
      7  OBA       84.0040   30.7710  130.7620 O.2   9002  SD29002    -0.2694
      8  NBF       81.9820   29.7920  130.4610 N.am  9002  SD29002    -0.0860
      9  NAX       82.6900   32.8260  131.9590 N.am  9002  SD29002    -0.1917
     10  CAS       82.3920   33.2210  133.1730 C.2   9002  SD29002     0.2601
     11  OAT       81.3580   33.0930  133.8210 O.2   9002  SD29002    -0.2715
     12  CAR       83.6330   33.8680  133.7270 C.3   9002  SD29002     0.1536
     13  CAU       84.7050   32.7810  133.8640 C.3   9002  SD29002     0.0310
     14  CAV       85.4210   33.1050  135.1630 C.3   9002  SD29002     0.0237
     15  CAW       84.3380   33.7200  136.0450 C.3   9002  SD29002     0.0939
     16  NAQ       83.4810   34.3890  135.0650 N.am  9002  SD29002    -0.2716
     17  CAG       82.7760   35.4920  135.3120 C.2   9002  SD29002     0.2461
     18  OAH       82.2080   36.0600  134.3810 O.2   9002  SD29002    -0.2730
     19  CAF       82.6360   36.0290  136.7370 C.3   9002  SD29002     0.1756
     20  NAA       83.0350   37.4480  136.7800 N.am  9002  SD29002    -0.1967
     21  CAB       83.4060   38.0410  137.9170 C.2   9002  SD29002     0.2536
     22  OAC       83.4450   37.4730  139.0090 O.2   9002  SD29002    -0.2723
     23  CAD       83.7810   39.5160  137.7920 C.3   9002  SD29002     0.1551
     24  SAE       82.9520   40.5070  139.0970 S.3   9002  SD29002    -0.0718
     25  CAI       81.1750   35.8690  137.2100 C.3   9002  SD29002     0.0574
     26  CAJ       80.8590   34.4110  137.5650 C.ar  9002  SD29002    -0.0198
     27  CAK       80.8480   34.0140  138.9110 C.ar  9002  SD29002    -0.0009
     28  CAM       80.6730   32.6610  139.2480 C.ar  9002  SD29002     0.0417
     29  CAO       80.5030   31.7030  138.2360 C.ar  9002  SD29002     0.1957
     30  OAP       80.3900   30.3830  138.5580 O.3   9002  SD29002    -0.2866
     31  CAN       80.5000   32.1040  136.8900 C.ar  9002  SD29002     0.0417
     32  CAL       80.6730   33.4580  136.5560 C.ar  9002  SD29002    -0.0009
@<TRIPOS>BOND
     1     2     1    1
     2     2     3    1
     3     3     4    2
     4     4     5    1
     5     8     6   am
     6     6     7    2
     7     6     5    1
     8     5     9    1
     9     9    10   am
    10    10    12    1
    11    10    11    2
    12    12    13    1
    13    12    16    1
    14    13    14    1
    15    18    17    2
    16    16    17   am
    17    16    15    1
    18    14    15    1
    19    17    19    1
    20    32    31   ar
    21    32    26   ar
    22    19    20    1
    23    19    25    1
    24    20    21   am
    25    31    29   ar
    26    25    26    1
    27    26    27   ar
    28    23    21    1
    29    23    24    1
    30    21    22    2
    31    29    30    1
    32    29    28   ar
    33    27    28   ar
