@<TRIPOS>MOLECULE
1pwu_GM6_A_1.pdb
 28 29 0 0 0
SMALL
GASTEIGER

@<TRIPOS>ATOM
      1  OAG       83.0400   40.3340  139.6050 O.3   1001  GM61001    -0.4026
      2  NAF       82.8470   39.7140  138.4090 N.am  1001  GM61001    -0.2030
      3  CAD       83.4510   38.5590  138.1410 C.2   1001  GM61001     0.0873
      4  OAE       84.2060   37.9780  138.9180 O.2   1001  GM61001    -0.5395
      5  CAC       83.1440   37.9800  136.7580 C.3   1001  GM61001     0.0603
      6  CAB       83.0880   36.4500  136.7520 C.3   1001  GM61001     0.0845
      7  CAK       82.9290   35.9770  135.3050 C.2   1001  GM61001     0.2417
      8  OAL       81.9300   36.2720  134.6480 O.2   1001  GM61001    -0.2733
      9  NAM       83.9380   35.2420  134.8450 N.am  1001  GM61001    -0.1974
     10  CAN       84.0040   34.7120  133.4740 C.3   1001  GM61001     0.1771
     11  CAY       82.8580   33.7340  133.1990 C.2   1001  GM61001     0.2616
     12  OAZ       82.7720   32.6730  133.8090 O.2   1001  GM61001    -0.2715
     13  NBB       81.9870   34.1380  132.2750 N.am  1001  GM61001    -0.2021
     14  CBA       82.2120   33.6980  130.8910 C.3   1001  GM61001     0.1386
     15  CAO       85.3460   34.0060  133.2670 C.3   1001  GM61001     0.0590
     16  CAP       86.5130   34.9570  133.5530 C.2   1001  GM61001     0.0003
     17  CAT       87.2120   35.0510  134.6840 C.2   1001  GM61001     0.0943
     18  NAU       88.1280   36.0140  134.5890 N.2   1001  GM61001    -0.2482
     19  CAR       88.0720   36.5930  133.3890 C.2   1001  GM61001     0.0631
     20  CAV       88.7810   37.6230  132.7800 C.3   1001  GM61001     0.0717
     21  CAX       88.4640   37.9950  131.4760 C.2   1001  GM61001    -0.0198
     22  CAW       87.4440   37.3330  130.7970 C.2   1001  GM61001    -0.0042
     23  CAS       86.7420   36.3060  131.4170 C.2   1001  GM61001     0.0006
     24  CAQ       87.0520   35.9260  132.7260 C.2   1001  GM61001     0.0115
     25  CAA       81.9410   35.9560  137.6390 C.3   1001  GM61001     0.0095
     26  CAH       82.0860   34.4710  137.9870 C.3   1001  GM61001     0.0005
     27  CAJ       81.7850   33.5750  136.7830 C.3   1001  GM61001     0.0000
     28  CAI       81.1490   34.1110  139.1410 C.3   1001  GM61001     0.0000
@<TRIPOS>BOND
     1    22    23    1
     2    22    21    2
     3    14    13    1
     4    23    24    2
     5    21    20    1
     6    13    11   am
     7    24    19    1
     8    24    16    1
     9    20    19    1
    10    11    10    1
    11    11    12    2
    12    15    10    1
    13    15    16    1
    14    19    18    2
    15    10     9    1
    16    16    17    2
    17    18    17    1
    18     8     7    2
    19     9     7   am
    20     7     6    1
    21     6     5    1
    22     6    25    1
    23     5     3    1
    24    27    26    1
    25    25    26    1
    26    26    28    1
    27     3     2   am
    28     3     4    2
    29     2     1    1
