@<TRIPOS>MOLECULE
1pwy_AC2_E_1.pdb
 16 17 0 0 0
SMALL
GASTEIGER

@<TRIPOS>ATOM
      1  C3'      -19.3880   88.0670    3.3680 C.3   290  AC2290      0.2141
      2  O3'      -19.8230   88.8400    2.2120 O.3   290  AC2290     -0.2176
      3  C2'      -17.8650   88.0310    3.4480 C.3   290  AC2290      0.1796
      4  O1'      -17.3560   86.6730    3.1910 O.3   290  AC2290     -0.3314
      5  C1'      -17.8960   86.1300    1.9670 C.3   290  AC2290      0.2438
      6  N9       -17.6500   87.0430    0.8570 N.pl3 290  AC2290     -0.2341
      7  C8       -18.5630   87.7630    0.1170 C.3   290  AC2290      0.2246
      8  N7       -18.0080   88.5060   -0.8110 N.2   290  AC2290     -0.2322
      9  C5       -16.6450   88.2510   -0.6650 C.2   290  AC2290      0.2182
     10  C6       -15.5280   88.7670   -1.3780 C.1   290  AC2290      0.2372
     11  O6       -15.5220   89.5730   -2.3110 O.2   290  AC2290     -0.2069
     12  N1       -14.3240   88.2410   -0.9030 N.2   290  AC2290     -0.2485
     13  C2       -14.2140   87.3420    0.1270 C.1   290  AC2290      0.2531
     14  N2       -12.9920   86.9540    0.4440 N.pl3 290  AC2290     -0.0226
     15  N3       -15.2400   86.8600    0.7990 N.2   290  AC2290     -0.3074
     16  C4       -16.4140   87.3540    0.3550 C.2   290  AC2290      0.2300
@<TRIPOS>BOND
     1    11    10    2
     2    10    12    2
     3    10     9    1
     4    12    13    2
     5     8     9    2
     6     8     7    1
     7     9    16    1
     8     7     6    1
     9    13    14    1
    10    13    15    2
    11    16    15    2
    12    16     6    1
    13     6     5    1
    14     5     4    1
    15     2     1    1
    16     4     3    1
    17     1     3    1
