@<TRIPOS>MOLECULE
1px0_RPN_A_1.pdb
 15 15 0 0 0
SMALL
GASTEIGER

@<TRIPOS>ATOM
      1  C1        23.0910    4.0650   34.1580 C.3   1001  RPN1001     0.2017
      2  C2        24.5840    4.2420   34.3930 C.3   1001  RPN1001     0.2015
      3  O3        25.2280    3.9600   33.2000 O.3   1001  RPN1001    -0.2160
      4  C4        25.1490    3.3410   35.4850 C.ar  1001  RPN1001     0.0099
      5  N5        22.3690    4.5010   35.3320 N.2   1001  RPN1001    -0.0944
      6  N6        21.3050    5.0770   35.1850 N.2   1001  RPN1001    -0.1663
      7  N7        20.3200    5.5740   35.0500 N.2   1001  RPN1001     0.0678
      8  C8        25.1780    1.9240   35.3570 C.ar  1001  RPN1001    -0.0001
      9  C9        25.7140    1.0930   36.3710 C.ar  1001  RPN1001     0.0238
     10  C10       26.2220    1.6960   37.5430 C.ar  1001  RPN1001     0.1429
     11  C11       26.2050    3.1090   37.6870 C.ar  1001  RPN1001     0.0238
     12  C12       25.6650    3.9170   36.6610 C.ar  1001  RPN1001    -0.0001
     13  N13       26.7950    0.8550   38.6400 N.pl3 1001  RPN1001     0.0577
     14  O14       26.8020   -0.3680   38.5010 O.2   1001  RPN1001    -0.1261
     15  O15       27.2240    1.4570   39.6320 O.2   1001  RPN1001    -0.1261
@<TRIPOS>BOND
     1     3     2    1
     2     1     2    1
     3     1     5    1
     4     2     4    1
     5     7     6    2
     6     6     5    2
     7     8     4   ar
     8     8     9   ar
     9     4    12   ar
    10     9    10   ar
    11    12    11   ar
    12    10    11   ar
    13    10    13    1
    14    14    13    2
    15    13    15    2
