@<TRIPOS>MOLECULE
1px2_ATP_A_1.pdb
 31 33 0 0 0
SMALL
GASTEIGER

@<TRIPOS>ATOM
      1  PG         5.1520   31.0680   35.6520 P.3   800  ATP800      0.5373
      2  O1G        4.6160   29.6970   35.8730 O.3   800  ATP800     -0.1143
      3  O2G        4.8870   31.7310   34.3610 O.2   800  ATP800     -0.2221
      4  O3G        6.6130   31.2910   35.7740 O.3   800  ATP800     -0.1143
      5  PB         4.8120   32.2880   38.2690 P.3   800  ATP800      0.2277
      6  O1B        5.4180   33.6390   38.3100 O.2   800  ATP800     -0.5168
      7  O2B        5.5320   31.1400   38.8680 O.3   800  ATP800     -0.4368
      8  O3B        4.4350   31.9700   36.7530 O.3   800  ATP800     -0.2258
      9  PA         2.4300   31.4300   39.7380 P.3   800  ATP800      0.2189
     10  O1A        1.0150   31.8670   39.6300 O.3   800  ATP800     -0.4371
     11  O2A        2.7850   30.0110   39.4800 O.2   800  ATP800     -0.5170
     12  O3A        3.3180   32.3930   38.8230 O.3   800  ATP800     -0.2700
     13  O5'        2.9880   31.9000   41.1590 O.3   800  ATP800     -0.3112
     14  C5'        4.1600   31.3140   41.7320 C.3   800  ATP800      0.1813
     15  C4'        3.8470   30.7080   43.0820 C.3   800  ATP800      0.1821
     16  O4'        3.1170   31.6540   43.9090 O.3   800  ATP800     -0.3135
     17  C3'        2.9680   29.4670   43.0910 C.3   800  ATP800      0.2184
     18  O3'        3.7190   28.3010   42.7770 O.3   800  ATP800     -0.2174
     19  C2'        2.4730   29.4510   44.5330 C.3   800  ATP800      0.2570
     20  O2'        3.4020   28.9000   45.4460 O.3   800  ATP800     -0.2130
     21  C1'        2.2700   30.9450   44.8010 C.3   800  ATP800      0.3186
     22  N9         0.8850   31.3680   44.5800 N.pl3 800  ATP800     -0.1439
     23  C8         0.2900   31.7760   43.4100 C.3   800  ATP800      0.3377
     24  N7        -0.9850   32.0510   43.5350 N.2   800  ATP800     -0.2095
     25  C5        -1.2490   31.8170   44.8770 C.2   800  ATP800      0.2526
     26  C6        -2.4240   31.9210   45.6450 C.2   800  ATP800      0.4393
     27  N6        -3.6050   32.2950   45.1470 N.pl3 800  ATP800      0.2180
     28  N1        -2.3430   31.6220   46.9590 N.2   800  ATP800      0.0021
     29  C2        -1.1610   31.2420   47.4570 C.3   800  ATP800      0.5254
     30  N3         0.0080   31.1000   46.8390 N.2   800  ATP800     -0.0055
     31  C4        -0.1040   31.4070   45.5350 C.2   800  ATP800      0.3518
@<TRIPOS>BOND
     1     3     1    2
     2     1     4    1
     3     1     2    1
     4     1     8    1
     5     8     5    1
     6     5     6    2
     7     5    12    1
     8     5     7    1
     9    12     9    1
    10    11     9    2
    11    10     9    1
    12     9    13    1
    13    13    14    1
    14    14    15    1
    15    18    17    1
    16    15    17    1
    17    15    16    1
    18    17    19    1
    19    23    24    1
    20    23    22    1
    21    24    25    2
    22    16    21    1
    23    19    21    1
    24    19    20    1
    25    22    21    1
    26    22    31    1
    27    25    31    1
    28    25    26    1
    29    27    26    1
    30    31    30    2
    31    26    28    2
    32    30    29    1
    33    28    29    1
