@<TRIPOS>MOLECULE
1px4_IPT_A_1.pdb
 15 15 0 0 0
SMALL
GASTEIGER

@<TRIPOS>ATOM
      1  C1       -13.4220  -28.7450  -27.5670 C.3   2001  IPT2001     0.1955
      2  C2       -12.1800  -28.5480  -26.7120 C.3   2001  IPT2001     0.2219
      3  O2       -12.3240  -27.3940  -25.8730 O.3   2001  IPT2001    -0.2167
      4  C3       -10.9600  -28.3510  -27.5820 C.3   2001  IPT2001     0.2181
      5  O3        -9.7790  -28.3520  -26.7440 O.3   2001  IPT2001    -0.2175
      6  C4       -10.8350  -29.4890  -28.6090 C.3   2001  IPT2001     0.2143
      7  O4       -10.6400  -30.7350  -27.9070 O.3   2001  IPT2001    -0.2176
      8  C5       -12.1800  -29.5300  -29.3410 C.3   2001  IPT2001     0.1820
      9  O5       -13.2040  -29.8530  -28.4130 O.3   2001  IPT2001    -0.3398
     10  C6       -12.3400  -30.7780  -30.1850 C.3   2001  IPT2001     0.2142
     11  O6       -11.3190  -30.6160  -31.2070 O.3   2001  IPT2001    -0.2176
     12  S1       -14.7330  -29.2640  -26.4290 S.3   2001  IPT2001    -0.1102
     13  C1'      -16.2740  -28.7490  -27.3190 C.3   2001  IPT2001     0.0500
     14  C2'      -17.4530  -28.7770  -26.3550 C.3   2001  IPT2001     0.0117
     15  C3'      -16.5630  -29.6810  -28.5180 C.3   2001  IPT2001     0.0117
@<TRIPOS>BOND
     1    11    10    1
     2    10     8    1
     3     8     6    1
     4     8     9    1
     5     6     7    1
     6     6     4    1
     7    15    13    1
     8     9     1    1
     9     4     5    1
    10     4     2    1
    11     1     2    1
    12     1    12    1
    13    13    12    1
    14    13    14    1
    15     2     3    1
