@<TRIPOS>MOLECULE
1px6_GSH_A_1.pdb
 20 19 0 0 0
SMALL
GASTEIGER

@<TRIPOS>ATOM
      1  N1        -6.6190   37.8610    1.5890 N.3   2001  GSH2001    -0.1208
      2  CA1       -7.8340   37.9540    2.4430 C.3   2001  GSH2001     0.1948
      3  C1        -7.6350   39.0260    3.5380 C.2   2001  GSH2001     0.3819
      4  O11       -8.6460   39.5910    4.0150 O.co2 2001  GSH2001    -0.2441
      5  O12       -6.4750   39.2910    3.9140 O.co2 2001  GSH2001    -0.2441
      6  CB1       -8.1220   36.5890    3.0710 C.3   2001  GSH2001     0.0402
      7  CG1       -9.5330   36.4680    3.6550 C.3   2001  GSH2001     0.0889
      8  CD1       -9.8570   35.1150    4.2720 C.2   2001  GSH2001     0.2418
      9  OE1       -9.0300   34.1700    4.2970 O.2   2001  GSH2001    -0.2733
     10  N2       -11.0870   35.0230    4.7780 N.am  2001  GSH2001    -0.1968
     11  CA2      -11.5910   33.8130    5.4140 C.3   2001  GSH2001     0.1843
     12  C2       -12.9710   33.4530    4.8420 C.2   2001  GSH2001     0.2627
     13  O2       -13.7500   34.3430    4.4660 O.2   2001  GSH2001    -0.2714
     14  CB2      -11.6970   34.0450    6.9370 C.3   2001  GSH2001     0.0997
     15  SG2      -10.1130   34.6040    7.6940 S.3   2001  GSH2001    -0.0797
     16  N3       -13.2560   32.1420    4.7950 N.am  2001  GSH2001    -0.1917
     17  CA3      -14.5300   31.6380    4.2970 C.3   2001  GSH2001     0.2285
     18  C3       -14.5720   31.1890    2.8590 C.2   2001  GSH2001     0.3865
     19  O31      -15.6740   30.8140    2.3980 O.co2 2001  GSH2001    -0.2437
     20  O32      -13.5180   31.2110    2.1890 O.co2 2001  GSH2001    -0.2437
@<TRIPOS>BOND
     1     1     2    1
     2    20    18   ar
     3    19    18   ar
     4     2     6    1
     5     2     3    1
     6    18    17    1
     7     6     7    1
     8     3     5   ar
     9     3     4   ar
    10     7     8    1
    11     8     9    2
    12     8    10   am
    13    17    16    1
    14    13    12    2
    15    10    11    1
    16    16    12   am
    17    12    11    1
    18    11    14    1
    19    14    15    1
