@<TRIPOS>MOLECULE
1px7_GSH_A_1.pdb
 20 19 0 0 0
SMALL
GASTEIGER

@<TRIPOS>ATOM
      1  N1        14.5220   10.8080   22.8720 N.3   2001  GSH2001    -0.1208
      2  CA1       14.4460   10.0080   24.1090 C.3   2001  GSH2001     0.1948
      3  C1        15.5670    8.9320   24.1340 C.2   2001  GSH2001     0.3819
      4  O11       15.9640    8.5410   25.2640 O.co2 2001  GSH2001    -0.2441
      5  O12       16.0690    8.5110   23.0360 O.co2 2001  GSH2001    -0.2441
      6  CB1       13.0570    9.3760   24.2210 C.3   2001  GSH2001     0.0402
      7  CG1       12.7380    8.7880   25.5960 C.3   2001  GSH2001     0.0889
      8  CD1       11.3400    8.2000   25.6950 C.2   2001  GSH2001     0.2418
      9  OE1       10.5620    8.2230   24.7380 O.2   2001  GSH2001    -0.2733
     10  N2        11.0300    7.6700   26.8810 N.am  2001  GSH2001    -0.1968
     11  CA2        9.7360    7.0400   27.1850 C.3   2001  GSH2001     0.1843
     12  C2         9.1890    7.6350   28.4930 C.2   2001  GSH2001     0.2627
     13  O2         9.9430    7.9820   29.3930 O.2   2001  GSH2001    -0.2714
     14  CB2        9.9120    5.4810   27.3730 C.3   2001  GSH2001     0.0997
     15  SG2       10.8010    4.6200   25.9740 S.3   2001  GSH2001    -0.0797
     16  N3         7.8820    7.7170   28.5940 N.am  2001  GSH2001    -0.1917
     17  CA3        7.2700    8.2330   29.8130 C.3   2001  GSH2001     0.2285
     18  C3         6.7010    9.6130   29.7530 C.2   2001  GSH2001     0.3865
     19  O31        5.9730    9.9700   30.6920 O.co2 2001  GSH2001    -0.2437
     20  O32        6.9880   10.3360   28.7810 O.co2 2001  GSH2001    -0.2437
@<TRIPOS>BOND
     1     1     2    1
     2     5     3   ar
     3     2     3    1
     4     2     6    1
     5     3     4   ar
     6     6     7    1
     7     9     8    2
     8     7     8    1
     9     8    10   am
    10    15    14    1
    11    10    11    1
    12    11    14    1
    13    11    12    1
    14    12    16   am
    15    12    13    2
    16    16    17    1
    17    20    18   ar
    18    18    17    1
    19    18    19   ar
