@<TRIPOS>MOLECULE
1px8_XYP_A_1.pdb
 10 10 0 0 0
SMALL
GASTEIGER

@<TRIPOS>ATOM
      1  O4A       41.3090   32.4490   28.4380 O.3   601  XYP601     -0.1869
      2  C1B       41.0870   32.5710   29.7970 C.3   601  XYP601      0.3024
      3  C2B       39.7630   33.2980   30.0620 C.3   601  XYP601      0.2434
      4  C3B       39.4970   33.3570   31.5660 C.3   601  XYP601      0.2199
      5  C4B       39.6000   31.9540   32.1930 C.3   601  XYP601      0.2143
      6  C5B       40.9290   31.2970   31.8050 C.3   601  XYP601      0.1804
      7  O2B       39.8200   34.6180   29.5390 O.3   601  XYP601     -0.2148
      8  O3B       38.2030   33.8970   31.7940 O.3   601  XYP601     -0.2174
      9  O4B       39.5120   32.0440   33.6110 O.3   601  XYP601     -0.2176
     10  O5B       41.0610   31.2610   30.3690 O.3   601  XYP601     -0.3237
@<TRIPOS>BOND
     1     1     2    1
     2     7     3    1
     3     2     3    1
     4     2    10    1
     5     3     4    1
     6    10     6    1
     7     4     8    1
     8     4     5    1
     9     6     5    1
    10     5     9    1
