@<TRIPOS>MOLECULE
1pxg_PRF_A_1.pdb
 13 14 0 0 0
SMALL
GASTEIGER

@<TRIPOS>ATOM
      1  N1        24.6480    7.7860   11.5650 N.2   401  PRF401     -0.2525
      2  C2        25.9810    7.6420   11.9760 C.1   401  PRF401      0.2602
      3  N3        26.3300    7.3820   13.2000 N.2   401  PRF401     -0.2733
      4  C4        25.4730    7.2100   14.2490 C.1   401  PRF401      0.0973
      5  C5        24.1170    7.3360   13.9820 C.3   401  PRF401      0.2372
      6  C6        23.6630    7.6410   12.5360 C.1   401  PRF401      0.2101
      7  O6        22.4100    7.7410   12.3170 O.2   401  PRF401     -0.2120
      8  C7        23.4500    7.3340   15.1880 C.2   401  PRF401      0.0258
      9  C10       21.9240    7.4590   15.2730 C.3   401  PRF401      0.1351
     10  N11       21.5970    8.8800   15.1720 N.3   401  PRF401     -0.1264
     11  C8        24.4020    7.2080   16.1700 C.2   401  PRF401      0.1053
     12  N9        25.6160    7.1310   15.5880 N.2   401  PRF401     -0.1847
     13  N2        26.9220    7.7810   11.0530 N.pl3 401  PRF401     -0.0221
@<TRIPOS>BOND
     1    13     2    1
     2     1     2    2
     3     1     6    2
     4     2     3    2
     5     7     6    2
     6     6     5    1
     7     3     4    2
     8     5     4    1
     9     5     8    1
    10     4    12    2
    11    10     9    1
    12     8     9    1
    13     8    11    2
    14    12    11    1
