@<TRIPOS>MOLECULE
1pxh_SNA_A_1.pdb
 48 49 0 0 0
SMALL
GASTEIGER

@<TRIPOS>ATOM
      1  P1        14.7290   14.8620   14.5110 P.3   401  SNA401      0.1831
      2  O2        14.6030   13.8680   13.3440 O.2   401  SNA401     -0.4543
      3  O3        16.1540   14.9230   15.0570 O.3   401  SNA401     -0.3533
      4  O4        13.7560   14.4630   15.6400 O.3   401  SNA401     -0.3533
      5  C5        14.3590   16.4800   13.8470 C.3   401  SNA401      0.3249
      6  F6        14.4480   17.4640   14.8380 F     401  SNA401     -0.1920
      7  F7        15.3080   16.7110   12.8630 F     401  SNA401     -0.1920
      8  C8        12.9450   16.6840   13.2170 C.ar  401  SNA401      0.0444
      9  C9        12.7730   16.4770   11.6300 C.ar  401  SNA401      0.0011
     10  C10       11.4820   16.6870   11.0430 C.ar  401  SNA401     -0.0043
     11  C11       10.3020   17.1000   11.9380 C.ar  401  SNA401     -0.0203
     12  C12       10.4040   17.2960   13.3880 C.ar  401  SNA401     -0.0043
     13  C13       11.7040   17.1010   14.0970 C.ar  401  SNA401      0.0011
     14  C14        9.1800   17.2910   11.2320 C.3   401  SNA401      0.0521
     15  C15        8.4950   18.6790   11.1340 C.3   401  SNA401      0.1472
     16  N16        7.2630   18.7410   10.3730 N.am  401  SNA401     -0.1978
     17  C17        9.3060   19.8910   10.5740 C.3   401  SNA401      0.2459
     18  N18        9.6890   19.6750    9.2540 N.3   401  SNA401     -0.1878
     19  O19       10.3630   20.0960   11.4240 O.3   401  SNA401     -0.2017
     20  C20       11.1620   19.6760    8.7400 C.3   401  SNA401      0.0914
     21  C21       10.9940   19.1390    7.1910 C.3   401  SNA401      0.0189
     22  C22       12.2210   18.1990    6.8070 C.3   401  SNA401      0.0015
     23  C23       11.8130   17.2350    5.6170 C.3   401  SNA401      0.0000
     24  C24       13.0250   16.2960    5.2160 C.3   401  SNA401      0.0000
     25  N25        3.8570   19.2820   10.4170 N.am  401  SNA401     -0.1740
     26  C26        5.1550   19.4810    9.7890 C.2   401  SNA401      0.1348
     27  C27        5.4240   19.6840    8.2880 C.2   401  SNA401      0.1073
     28  C28        4.3620   19.6930    7.2320 C.2   401  SNA401      0.3894
     29  O29        3.9630   20.7930    6.7620 O.co2 401  SNA401     -0.2405
     30  O30        3.9340   18.5560    6.8650 O.co2 401  SNA401     -0.2405
     31  C31        6.2700   19.5190   10.8030 C.2   401  SNA401      0.2805
     32  O32        6.1980   20.2130   11.7720 O.2   401  SNA401     -0.2669
     33  C33        3.2370   18.1200   10.5230 C.2   401  SNA401      0.2501
     34  O34        3.7690   17.0630   10.7370 O.2   401  SNA401     -0.2726
     35  P35       -4.3070   16.9490    8.9060 P.3   401  SNA401      0.1831
     36  O36       -4.4830   18.5710    9.0470 O.3   401  SNA401     -0.3533
     37  O37       -5.4620   16.4340    8.0020 O.2   401  SNA401     -0.4543
     38  O38       -4.4710   16.3000   10.4620 O.3   401  SNA401     -0.3533
     39  C39       -2.7980   16.4550    8.0600 C.3   401  SNA401      0.3249
     40  F40       -2.7060   15.0530    7.9660 F     401  SNA401     -0.1920
     41  F41       -2.5480   16.9190    6.7430 F     401  SNA401     -0.1920
     42  C42       -0.9780   18.4390    8.8460 C.ar  401  SNA401      0.0011
     43  C43       -1.5460   16.9630    8.9640 C.ar  401  SNA401      0.0444
     44  C44       -0.8360   15.9610   10.0320 C.ar  401  SNA401      0.0011
     45  C45        0.3340   16.4360   10.8790 C.ar  401  SNA401     -0.0039
     46  C46        1.8890   18.3700   11.4330 C.3   401  SNA401      0.1135
     47  C47        0.1930   18.9030    9.6980 C.ar  401  SNA401     -0.0039
     48  C48        0.8400   17.9130   10.7000 C.ar  401  SNA401     -0.0130
@<TRIPOS>BOND
     1    24    23    1
     2    23    22    1
     3    41    39    1
     4    29    28   ar
     5    22    21    1
     6    30    28   ar
     7    21    20    1
     8    28    27    1
     9    40    39    1
    10    37    35    2
    11    39    35    1
    12    39    43    1
    13    27    26    2
    14    20    18    1
    15    42    43   ar
    16    42    47   ar
    17    35    36    1
    18    35    38    1
    19    43    44   ar
    20    18    17    1
    21    47    48   ar
    22    26    25    1
    23    26    31    1
    24    44    45   ar
    25    16    31   am
    26    16    15    1
    27    25    33   am
    28    33    34    2
    29    33    46    1
    30    17    15    1
    31    17    19    1
    32    48    45   ar
    33    48    46    1
    34    31    32    2
    35    10     9   ar
    36    10    11   ar
    37    15    14    1
    38    14    11    1
    39     9     8   ar
    40    11    12   ar
    41     7     5    1
    42     8     5    1
    43     8    13   ar
    44     2     1    2
    45    12    13   ar
    46     5     1    1
    47     5     6    1
    48     1     3    1
    49     1     4    1
