@<TRIPOS>MOLECULE
1pxi_CK1_A_1.pdb
 14 15 0 0 0
SMALL
GASTEIGER

@<TRIPOS>ATOM
      1 CL7A       14.1710   44.2750   29.7290 Cl    500  CK1500     -0.0751
      2  C3A       13.9210   43.8330   28.1520 C.ar  500  CK1500      0.0878
      3  C4A       13.5610   44.8640   27.1930 C.ar  500  CK1500      0.0219
      4  S2A       14.0410   42.2850   27.5350 S.2   500  CK1500     -0.0639
      5  C1A       13.6360   42.9200   26.0360 C.ar  500  CK1500      0.0902
      6 CL6A       13.5570   41.8900   24.8440 Cl    500  CK1500     -0.0750
      7  C5A       13.3880   44.2500   25.9070 C.ar  500  CK1500      0.0486
      8  C4        13.0440   45.0630   24.7370 C.2   500  CK1500      0.1471
      9  N3        13.6210   44.9160   23.5010 N.2   500  CK1500     -0.3351
     10  C5        12.0360   46.0840   24.8510 C.2   500  CK1500      0.0546
     11  C6        11.7180   46.8850   23.7250 C.2   500  CK1500      0.1145
     12  N1        12.3890   46.5950   22.5350 N.2   500  CK1500     -0.1673
     13  C2        13.3000   45.6930   22.5060 C.1   500  CK1500      0.1864
     14  N7        13.8560   45.4570   21.3100 N.pl3 500  CK1500     -0.0345
@<TRIPOS>BOND
     1    14    13    1
     2    13    12    2
     3    13     9    2
     4    12    11    1
     5     9     8    2
     6    11    10    2
     7     8    10    1
     8     8     7    1
     9     6     5    1
    10     7     5   ar
    11     7     3   ar
    12     5     4   ar
    13     3     2   ar
    14     4     2   ar
    15     2     1    1
