@<TRIPOS>MOLECULE
1pxj_CK2_A_1.pdb
 14 15 0 0 0
SMALL
GASTEIGER

@<TRIPOS>ATOM
      1  C7A       14.4000   43.3310   29.0850 C.3   500  CK2500      0.0735
      2  C3A       13.9480   43.7450   27.6850 C.2   500  CK2500      0.1347
      3  S4A       13.4540   45.2330   27.1460 S.3   500  CK2500     -0.0735
      4  N2A       13.8950   42.9200   26.7630 N.2   500  CK2500     -0.4074
      5  C1A       13.4850   43.3560   25.5740 C.2   500  CK2500      0.1041
      6  C6A       13.4950   42.3130   24.6240 C.3   500  CK2500      0.0628
      7  C5A       13.2010   44.6390   25.5290 C.3   500  CK2500      0.1546
      8  C4        12.7490   45.4560   24.4000 C.2   500  CK2500      0.1397
      9  N3        13.2620   45.2730   23.1870 N.2   500  CK2500     -0.3383
     10  C5        11.8000   46.4490   24.6390 C.2   500  CK2500      0.0513
     11  C6        11.4150   47.1810   23.5420 C.2   500  CK2500      0.1142
     12  N1        11.9380   46.9580   22.3100 N.2   500  CK2500     -0.1673
     13  C2        12.8270   45.9970   22.2500 C.1   500  CK2500      0.1861
     14  N7        13.3040   45.7030   21.0790 N.pl3 500  CK2500     -0.0345
@<TRIPOS>BOND
     1    14    13    1
     2    13    12    2
     3    13     9    2
     4    12    11    1
     5     9     8    2
     6    11    10    2
     7     8    10    1
     8     8     7    1
     9     6     5    1
    10     7     5    1
    11     7     3    1
    12     5     4    2
    13     4     2    2
    14     3     2    1
    15     2     1    1
