@<TRIPOS>MOLECULE
1pxk_CK3_A_1.pdb
 17 18 0 0 0
SMALL
GASTEIGER

@<TRIPOS>ATOM
      1  C7A       14.3120   42.2420   26.9790 C.3   500  CK3500      0.0735
      2  C3A       14.1550   42.9920   25.6730 C.2   500  CK3500      0.1347
      3  S4A       12.9300   44.1670   25.5040 S.3   500  CK3500     -0.0735
      4  N2A       14.9270   42.8010   24.6050 N.2   500  CK3500     -0.4074
      5  C1A       14.5260   43.6310   23.5830 C.2   500  CK3500      0.1041
      6  C6A       15.3100   43.5460   22.2780 C.3   500  CK3500      0.0628
      7  C5A       13.4530   44.4740   23.8750 C.3   500  CK3500      0.1546
      8  C4        12.7070   45.4480   23.1360 C.2   500  CK3500      0.1397
      9  N3        11.8370   46.2260   23.7930 N.2   500  CK3500     -0.3393
     10  C5        12.8570   45.6250   21.7350 C.2   500  CK3500      0.0513
     11  C6        12.0590   46.6050   21.1130 C.2   500  CK3500      0.1141
     12  N1        11.2110   47.3410   21.8190 N.2   500  CK3500     -0.1683
     13  C2        11.1510   47.1320   23.1280 C.1   500  CK3500      0.1710
     14  N7        10.2460   47.8900   23.9440 N.pl3 500  CK3500     -0.1098
     15  C8         9.2070   47.4280   24.7980 C.2   500  CK3500      0.2427
     16  N9         8.4810   48.2310   25.4580 N.2   500  CK3500     -0.0086
     17  O10        8.5260   49.5430   25.4850 O.2   500  CK3500     -0.1417
@<TRIPOS>BOND
     1    11    10    2
     2    11    12    1
     3    10     8    1
     4    12    13    2
     5     6     5    1
     6    13     9    2
     7    13    14    1
     8     8     9    2
     9     8     7    1
    10     5     7    1
    11     5     4    2
    12     7     3    1
    13    14    15    1
    14     4     2    2
    15    15    16    2
    16    16    17    1
    17     3     2    1
    18     2     1    1
