@<TRIPOS>MOLECULE
1pxl_CK4_A_1.pdb
 24 26 0 0 0
SMALL
GASTEIGER

@<TRIPOS>ATOM
      1  F8B        8.5860   45.8700   30.4820 F     500  CK4500     -0.1659
      2  C7B        7.4920   45.9380   29.5940 C.3   500  CK4500      0.4186
      3  F1B        6.6520   47.0090   29.9800 F     500  CK4500     -0.1659
      4  F9B        6.7780   44.7360   29.6220 F     500  CK4500     -0.1659
      5  C4B        8.0710   46.1830   28.1180 C.ar  500  CK4500      0.0715
      6  C5B        7.4150   47.1130   27.2140 C.ar  500  CK4500      0.0052
      7  C6B        7.9630   47.3440   25.9040 C.ar  500  CK4500      0.0173
      8  C3B        9.2760   45.4860   27.6780 C.ar  500  CK4500      0.0052
      9  C2B        9.8190   45.7110   26.3930 C.ar  500  CK4500      0.0173
     10  C1B        9.2100   46.6290   25.4760 C.ar  500  CK4500      0.0826
     11  N7         9.8050   46.8810   24.1400 N.pl3 500  CK4500     -0.1358
     12  C2        10.9180   46.5200   23.2800 C.1   500  CK4500      0.1694
     13  N1        10.9680   47.0990   22.0930 N.2   500  CK4500     -0.1683
     14  C6        12.0090   46.7930   21.2420 C.2   500  CK4500      0.1141
     15  C5        13.0550   45.8810   21.5460 C.2   500  CK4500      0.0513
     16  N3        11.8620   45.6440   23.6600 N.2   500  CK4500     -0.3393
     17  C4        12.9530   45.2710   22.8570 C.2   500  CK4500      0.1397
     18  C5A       13.8620   44.3090   23.4280 C.3   500  CK4500      0.1546
     19  S4A       13.4400   43.7410   25.0860 S.3   500  CK4500     -0.0735
     20  C1A       15.0560   43.6450   23.0360 C.2   500  CK4500      0.1041
     21  C6A       15.8070   43.7990   21.6860 C.3   500  CK4500      0.0628
     22  N2A       15.5950   42.7590   23.9940 N.2   500  CK4500     -0.4074
     23  C3A       14.8030   42.7540   25.0980 C.2   500  CK4500      0.1347
     24  C7A       14.9890   41.9640   26.3620 C.3   500  CK4500      0.0735
@<TRIPOS>BOND
     1    14    15    2
     2    14    13    1
     3    15    17    1
     4    21    20    1
     5    13    12    2
     6    17    18    1
     7    17    16    2
     8    20    18    1
     9    20    22    2
    10    12    16    2
    11    12    11    1
    12    18    19    1
    13    22    23    2
    14    11    10    1
    15    19    23    1
    16    23    24    1
    17    10     7   ar
    18    10     9   ar
    19     7     6   ar
    20     9     8   ar
    21     6     5   ar
    22     8     5   ar
    23     5     2    1
    24     2     4    1
    25     2     3    1
    26     2     1    1
