@<TRIPOS>MOLECULE
1pxm_CK5_A_1.pdb
 21 23 0 0 0
SMALL
GASTEIGER

@<TRIPOS>ATOM
      1  O7B       17.3240   44.2610    8.6060 O.3   500  CK5500     -0.2865
      2  C3B       17.6000   45.2300    9.5260 C.ar  500  CK5500      0.1971
      3  C2B       16.8520   45.3760   10.7270 C.ar  500  CK5500      0.0594
      4  C1B       17.1670   46.4200   11.6750 C.ar  500  CK5500      0.0858
      5  C6B       18.2390   47.2920   11.3720 C.ar  500  CK5500      0.0176
      6  C5B       18.9920   47.1490   10.1780 C.ar  500  CK5500      0.0046
      7  C4B       18.6650   46.1180    9.2610 C.ar  500  CK5500      0.0421
      8  N7        16.4860   46.6860   12.9470 N.pl3 500  CK5500     -0.1357
      9  C2        15.3970   46.0000   13.5540 C.1   500  CK5500      0.1694
     10  N1        15.2400   46.2990   14.8440 N.2   500  CK5500     -0.1683
     11  C6        14.2560   45.7080   15.5500 C.2   500  CK5500      0.1141
     12  N3        14.6440   45.1440   12.9070 N.2   500  CK5500     -0.3393
     13  C4        13.6330   44.5040   13.5490 C.2   500  CK5500      0.1397
     14  C5        13.3940   44.7700   14.9350 C.2   500  CK5500      0.0513
     15  C5A       12.8660   43.5650   12.7860 C.3   500  CK5500      0.1546
     16  C1A       11.6170   42.9260   12.8830 C.2   500  CK5500      0.1041
     17  C6A       10.5430   43.0470   13.9610 C.3   500  CK5500      0.0628
     18  S4A       13.6190   43.0010   11.3280 S.3   500  CK5500     -0.0735
     19  C3A       12.3360   42.0210   10.9520 C.2   500  CK5500      0.1347
     20  N2A       11.3470   42.0570   11.8280 N.2   500  CK5500     -0.4074
     21  C7A       12.3820   41.1970    9.7010 C.3   500  CK5500      0.0735
@<TRIPOS>BOND
     1     1     2    1
     2     7     2   ar
     3     7     6   ar
     4     2     3   ar
     5    21    19    1
     6     6     5   ar
     7     3     4   ar
     8    19    18    1
     9    19    20    2
    10    18    15    1
    11     5     4   ar
    12     4     8    1
    13    20    16    2
    14    15    16    1
    15    15    13    1
    16    16    17    1
    17    12    13    2
    18    12     9    2
    19     8     9    1
    20    13    14    1
    21     9    10    2
    22    10    11    1
    23    14    11    2
