@<TRIPOS>MOLECULE
1pxn_CK6_A_1.pdb
 22 24 0 0 0
SMALL
GASTEIGER

@<TRIPOS>ATOM
      1  C6A       -2.4600    4.7530   25.0770 C.3   500  CK6500      0.0629
      2  C1A       -1.4870    5.8930   25.1480 C.2   500  CK6500      0.1062
      3  N2A       -1.8230    6.9900   24.4360 N.2   500  CK6500     -0.3868
      4  C3A       -1.0310    8.0170   24.4600 C.2   500  CK6500      0.2264
      5  N7A       -1.3230    9.1160   23.7770 N.pl3 500  CK6500     -0.2025
      6  C8A       -0.5270   10.3440   23.7120 C.3   500  CK6500      0.1387
      7  C5A       -0.3030    6.0690   25.8020 C.3   500  CK6500      0.1562
      8  S4A        0.3640    7.7080   25.4720 S.3   500  CK6500     -0.0524
      9  C4         0.5200    5.2340   26.7180 C.2   500  CK6500      0.1397
     10  C5         0.1510    3.9250   27.0580 C.2   500  CK6500      0.0513
     11  N3         1.6430    5.8030   27.2150 N.2   500  CK6500     -0.3393
     12  C2         2.4550    5.1190   28.0750 C.1   500  CK6500      0.1694
     13  N1         2.1790    3.8330   28.4650 N.2   500  CK6500     -0.1683
     14  C6         1.0330    3.2900   27.9350 C.2   500  CK6500      0.1141
     15  N7         3.5610    5.6870   28.5730 N.pl3 500  CK6500     -0.1358
     16  C1B        4.0940    6.9570   28.3490 C.ar  500  CK6500      0.0828
     17  C2B        3.4980    7.8870   27.4780 C.ar  500  CK6500      0.0206
     18  C3B        3.9930    9.1440   27.2280 C.ar  500  CK6500      0.0434
     19  C6B        5.2890    7.3980   28.9900 C.ar  500  CK6500      0.0206
     20  C5B        5.8130    8.6910   28.7490 C.ar  500  CK6500      0.0434
     21  C4B        5.1570    9.5680   27.8590 C.ar  500  CK6500      0.1958
     22  O7B        5.6020   10.8530   27.5600 O.3   500  CK6500     -0.2866
@<TRIPOS>BOND
     1     6     5    1
     2     5     4    1
     3     3     4    2
     4     3     2    2
     5     4     8    1
     6     1     2    1
     7     2     7    1
     8     8     7    1
     9     7     9    1
    10     9    10    1
    11     9    11    2
    12    10    14    2
    13    11    12    2
    14    18    17   ar
    15    18    21   ar
    16    17    16   ar
    17    22    21    1
    18    21    20   ar
    19    14    13    1
    20    12    13    2
    21    12    15    1
    22    16    15    1
    23    16    19   ar
    24    20    19   ar
