@<TRIPOS>MOLECULE
1pxo_CK7_A_1.pdb
 23 25 0 0 0
SMALL
GASTEIGER

@<TRIPOS>ATOM
      1  N7A       14.7020   -5.2550   10.1310 N.pl3 500  CK7500     -0.0867
      2  C3A       14.7660   -5.9900   11.4310 C.2   500  CK7500      0.2461
      3  N2A       15.4960   -5.8690   12.5650 N.2   500  CK7500     -0.3852
      4  C1A       15.1960   -6.8040   13.5350 C.2   500  CK7500      0.1063
      5  C6A       15.8970   -6.8110   14.8620 C.3   500  CK7500      0.0629
      6  S4A       13.6990   -7.2760   11.4070 S.3   500  CK7500     -0.0508
      7  C5A       14.1890   -7.7700   12.9130 C.3   500  CK7500      0.1563
      8  C4        13.2790   -8.8080   13.4660 C.2   500  CK7500      0.1398
      9  N3        12.3730   -9.3710   12.6010 N.2   500  CK7500     -0.3393
     10  C5        13.3580   -9.2110   14.7900 C.2   500  CK7500      0.0513
     11  C6        12.4300  -10.1380   15.1760 C.2   500  CK7500      0.1141
     12  N1        11.5250  -10.6350   14.2790 N.2   500  CK7500     -0.1683
     13  C2        11.5050  -10.2940   13.0070 C.1   500  CK7500      0.1694
     14  N7        10.5780  -10.8880   12.2810 N.pl3 500  CK7500     -0.1357
     15  C1B       10.0520  -10.2350   11.0800 C.ar  500  CK7500      0.0842
     16  C6B        8.8050  -10.6350   10.5230 C.ar  500  CK7500      0.0175
     17  C2B       10.7100   -9.1400   10.4320 C.ar  500  CK7500      0.0414
     18  C3B       10.1840   -8.4610    9.2830 C.ar  500  CK7500      0.1442
     19  N7B       10.7800   -7.3830    8.6140 N.pl3 500  CK7500      0.0577
     20  O8B       10.4450   -6.2070    8.8780 O.2   500  CK7500     -0.1261
     21  O9B       11.6570   -7.5990    7.7480 O.2   500  CK7500     -0.1261
     22  C4B        8.9600   -8.8910    8.7530 C.ar  500  CK7500      0.0242
     23  C5B        8.2690   -9.9550    9.3830 C.ar  500  CK7500      0.0031
@<TRIPOS>BOND
     1    21    19    2
     2    19    20    2
     3    19    18    1
     4    22    18   ar
     5    22    23   ar
     6    18    17   ar
     7    23    16   ar
     8     1     2    1
     9    17    15   ar
    10    16    15   ar
    11    15    14    1
    12     6     2    1
    13     6     7    1
    14     2     3    2
    15    14    13    1
    16     3     4    2
    17     9    13    2
    18     9     8    2
    19     7     8    1
    20     7     4    1
    21    13    12    2
    22     8    10    1
    23     4     5    1
    24    12    11    1
    25    10    11    2
