@<TRIPOS>MOLECULE
1pxp_CK8_A_1.pdb
 23 25 0 0 0
SMALL
GASTEIGER

@<TRIPOS>ATOM
      1  C6        25.8400   38.9330    7.6930 C.2   500  CK8500      0.1141
      2  N1        24.8070   39.6250    7.1580 N.2   500  CK8500     -0.1683
      3  C2        24.6340   40.8890    7.5400 C.1   500  CK8500      0.1694
      4  N3        25.4070   41.5310    8.4140 N.2   500  CK8500     -0.3393
      5  C4        26.4580   40.9120    8.9870 C.2   500  CK8500      0.1397
      6  C5        26.7260   39.5300    8.6380 C.2   500  CK8500      0.0513
      7  C5A       27.2300   41.7030    9.9210 C.3   500  CK8500      0.1546
      8  C1A       28.4880   41.5580   10.5510 C.2   500  CK8500      0.1041
      9  N2A       28.8380   42.5880   11.3930 N.2   500  CK8500     -0.4074
     10  C3A       27.8800   43.5160   11.4230 C.2   500  CK8500      0.1347
     11  S4A       26.5200   43.2120   10.4510 S.3   500  CK8500     -0.0735
     12  C6A       29.4860   40.4140   10.4090 C.3   500  CK8500      0.0628
     13  C7A       27.9500   44.7810   12.2540 C.3   500  CK8500      0.0735
     14  N7        23.5220   41.5710    6.9430 N.pl3 500  CK8500     -0.1358
     15  C1B       22.9310   42.8980    7.0440 C.ar  500  CK8500      0.0827
     16  C2B       23.4270   43.9110    7.9250 C.ar  500  CK8500      0.0186
     17  C3B       22.8120   45.1810    7.9760 C.ar  500  CK8500      0.0159
     18  C4B       21.6760   45.4890    7.1470 C.ar  500  CK8500      0.0480
     19  C5B       21.1900   44.4540    6.2710 C.ar  500  CK8500      0.0159
     20  C6B       21.8070   43.1830    6.2250 C.ar  500  CK8500      0.0186
     21  N7B       21.0260   46.8450    7.1980 N.pl3 500  CK8500     -0.3041
     22  C8B       19.8470   47.2080    6.3560 C.3   500  CK8500      0.1122
     23  C9B       21.5130   47.9360    8.0960 C.3   500  CK8500      0.1122
@<TRIPOS>BOND
     1    20    19   ar
     2    20    15   ar
     3    19    18   ar
     4    22    21    1
     5    14    15    1
     6    14     3    1
     7    15    16   ar
     8    18    21    1
     9    18    17   ar
    10     2     3    2
    11     2     1    1
    12    21    23    1
    13     3     4    2
    14     1     6    2
    15    16    17   ar
    16     4     5    2
    17     6     5    1
    18     5     7    1
    19     7    11    1
    20     7     8    1
    21    12     8    1
    22    11    10    1
    23     8     9    2
    24     9    10    2
    25    10    13    1
