@<TRIPOS>MOLECULE
1pxr_RET_A_1.pdb
 20 20 0 0 0
SMALL
GASTEIGER

@<TRIPOS>ATOM
      1  C1        41.0520   54.7990    2.1750 C.3   301  RET301      0.0183
      2  C2        41.8660   56.0140    1.6540 C.3   301  RET301      0.0044
      3  C3        42.3600   55.9650    0.2550 C.3   301  RET301      0.0047
      4  C4        42.9550   54.6210   -0.1880 C.3   301  RET301      0.0217
      5  C5        42.1870   53.3580    0.2730 C.2   301  RET301     -0.0479
      6  C6        41.2940   53.4340    1.3660 C.2   301  RET301     -0.0307
      7  C7        40.6050   52.1490    1.6830 C.2   301  RET301     -0.0052
      8  C8        39.6810   51.8210    2.6330 C.2   301  RET301     -0.0049
      9  C9        39.0520   50.5350    2.8460 C.2   301  RET301     -0.0258
     10  C10       38.1680   50.5750    3.8770 C.2   301  RET301     -0.0257
     11  C11       37.4060   49.3920    4.2670 C.3   301  RET301      0.0510
     12  C12       36.5910   49.6600    5.3110 C.2   301  RET301     -0.0299
     13  C13       35.7150   48.6950    5.9440 C.2   301  RET301     -0.0478
     14  C14       35.0450   49.3130    6.9680 C.3   301  RET301      0.0217
     15  C15       34.0910   48.6970    7.8380 C.3   301  RET301      0.0047
     16  C16       41.4710   54.6210    3.6820 C.3   301  RET301      0.0043
     17  C17       39.5660   55.3520    2.0920 C.3   301  RET301      0.0043
     18  C18       42.5820   52.2060   -0.6210 C.3   301  RET301      0.0260
     19  C19       39.3620   49.3280    1.9950 C.3   301  RET301      0.0307
     20  C20       35.6030   47.2610    5.5140 C.3   301  RET301      0.0260
@<TRIPOS>BOND
     1    18     5    1
     2     4     3    1
     3     4     5    1
     4     3     2    1
     5     5     6    2
     6     6     7    1
     7     6     1    1
     8     2     1    1
     9     7     8    2
    10    19     9    1
    11    17     1    1
    12     1    16    1
    13     8     9    1
    14     9    10    2
    15    10    11    1
    16    11    12    1
    17    12    13    2
    18    20    13    1
    19    13    14    1
    20    14    15    1
