@<TRIPOS>MOLECULE
1pxs_RET_A_1.pdb
 20 20 0 0 0
SMALL
GASTEIGER

@<TRIPOS>ATOM
      1  C1        40.6180   54.9350    2.2860 C.3   301  RET301      0.0183
      2  C2        41.4240   56.1820    1.8260 C.3   301  RET301      0.0044
      3  C3        41.9870   56.1930    0.4600 C.3   301  RET301      0.0047
      4  C4        42.5770   54.8610   -0.0240 C.3   301  RET301      0.0217
      5  C5        41.8140   53.5620    0.3800 C.2   301  RET301     -0.0479
      6  C6        40.8970   53.5870    1.4520 C.2   301  RET301     -0.0307
      7  C7        40.2270   52.2690    1.7150 C.2   301  RET301     -0.0052
      8  C8        39.2910   51.8840    2.6390 C.2   301  RET301     -0.0049
      9  C9        38.6640   50.5740    2.8230 C.2   301  RET301     -0.0258
     10  C10       37.7670   50.5900    3.8590 C.2   301  RET301     -0.0257
     11  C11       36.9950   49.3940    4.2310 C.3   301  RET301      0.0510
     12  C12       36.1820   49.6310    5.2930 C.2   301  RET301     -0.0299
     13  C13       35.3010   48.6400    5.9020 C.2   301  RET301     -0.0478
     14  C14       34.6350   49.2140    6.9600 C.3   301  RET301      0.0217
     15  C15       33.6900   48.5370    7.7970 C.3   301  RET301      0.0047
     16  C16       40.9810   54.7460    3.8020 C.3   301  RET301      0.0043
     17  C17       39.1310   55.4590    2.1440 C.3   301  RET301      0.0043
     18  C18       42.2460   52.4430   -0.5420 C.3   301  RET301      0.0260
     19  C19       38.9840   49.3720    1.9520 C.3   301  RET301      0.0307
     20  C20       35.1810   47.2200    5.4130 C.3   301  RET301      0.0260
@<TRIPOS>BOND
     1    18     5    1
     2     4     5    1
     3     4     3    1
     4     5     6    2
     5     3     2    1
     6     6     7    1
     7     6     1    1
     8     7     8    2
     9     2     1    1
    10    19     9    1
    11    17     1    1
    12     1    16    1
    13     8     9    1
    14     9    10    2
    15    10    11    1
    16    11    12    1
    17    12    13    2
    18    20    13    1
    19    13    14    1
    20    14    15    1
