@<TRIPOS>MOLECULE
1pxx_DIF_A_1.pdb
 19 20 0 0 0
SMALL
GASTEIGER

@<TRIPOS>ATOM
      1  C1        26.3130   21.4050   17.7120 C.ar  701  DIF701      0.0128
      2  C2        26.0650   22.5110   16.8680 C.ar  701  DIF701      0.0737
      3 CL2        24.4170   22.7030   16.4320 Cl    701  DIF701     -0.0809
      4  C3        27.1280   23.2650   16.3120 C.ar  701  DIF701      0.0915
      5  C4        28.4560   22.8360   16.6490 C.ar  701  DIF701      0.0737
      6 CL4        29.8440   23.6630   16.0410 Cl    701  DIF701     -0.0809
      7  C5        28.6920   21.7250   17.4800 C.ar  701  DIF701      0.0128
      8  C6        27.6180   21.0160   18.0140 C.ar  701  DIF701      0.0018
      9  N1        27.0580   24.4310   15.4370 N.pl3 701  DIF701     -0.2111
     10  C7        26.4170   25.6220   13.3530 C.ar  701  DIF701      0.0043
     11  C8        26.5330   24.4420   14.1270 C.ar  701  DIF701      0.0671
     12  C9        26.2130   23.2070   13.5520 C.ar  701  DIF701      0.0162
     13  C10       25.7520   23.1340   12.2350 C.ar  701  DIF701      0.0013
     14  C11       25.6000   24.2930   11.4810 C.ar  701  DIF701     -0.0002
     15  C12       25.9280   25.5250   12.0390 C.ar  701  DIF701     -0.0024
     16  C13       26.8840   26.9640   13.8140 C.3   701  DIF701      0.1416
     17  C14       28.3600   27.0230   13.9800 C.2   701  DIF701      0.3693
     18  O1        29.1070   27.6800   13.2600 O.co2 701  DIF701     -0.2453
     19  O2        28.8090   26.2650   14.9980 O.co2 701  DIF701     -0.2453
@<TRIPOS>BOND
     1    14    15   ar
     2    14    13   ar
     3    15    10   ar
     4    13    12   ar
     5    18    17   ar
     6    10    16    1
     7    10    11   ar
     8    12    11   ar
     9    16    17    1
    10    17    19   ar
    11    11     9    1
    12     9     4    1
    13     6     5    1
    14     4     5   ar
    15     4     2   ar
    16     3     2    1
    17     5     7   ar
    18     2     1   ar
    19     7     8   ar
    20     1     8   ar
