@<TRIPOS>MOLECULE
1pxx_HEM_A_1.pdb
 43 50 0 0 0
SMALL
GASTEIGER

@<TRIPOS>ATOM
      1  CHA       24.2120   35.2030    0.7420 C.2   704  HEM704      0.0000
      2  CHB       20.9310   38.6230    1.2140 C.2   704  HEM704      0.0000
      3  CHC       20.6210   37.6600    5.9170 C.2   704  HEM704      0.0000
      4  CHD       23.4790   33.8630    5.2860 C.2   704  HEM704      0.0000
      5  C1A       23.3050   36.1820    0.4600 C.ar  704  HEM704      0.0000
      6  C2A       23.1490   36.7780   -0.8420 C.ar  704  HEM704      0.0000
      7  C3A       22.2100   37.7440   -0.7000 C.ar  704  HEM704      0.0000
      8  C4A       21.8000   37.7200    0.6700 C.ar  704  HEM704      0.0000
      9  CMA       21.6260   38.6190   -1.7850 C.3   704  HEM704      0.0000
     10  CAA       23.7110   36.2060   -2.1360 C.3   704  HEM704      0.0000
     11  CBA       22.8260   34.9830   -2.5000 C.3   704  HEM704      0.0000
     12  CGA       23.2490   34.2050   -3.7480 C.2   704  HEM704      0.0000
     13  O1A       23.7970   33.0880   -3.5890 O.co2 704  HEM704      0.0000
     14  O2A       23.0110   34.6950   -4.8770 O.co2 704  HEM704      0.0000
     15  C1B       20.5620   38.6770    2.5470 C.2   704  HEM704      0.0000
     16  C2B       19.7650   39.7480    3.1310 C.2   704  HEM704      0.0000
     17  C3B       19.7170   39.5100    4.4670 C.2   704  HEM704      0.0000
     18  C4B       20.4690   38.2710    4.6910 C.2   704  HEM704      0.0000
     19  CMB       19.1600   40.9490    2.4120 C.3   704  HEM704      0.0000
     20  CAB       19.1020   40.3380    5.4100 C.3   704  HEM704      0.0000
     21  CBB       19.7900   40.8870    6.5830 C.3   704  HEM704      0.0000
     22  C1C       21.3460   36.5080    6.1440 C.ar  704  HEM704      0.0000
     23  C2C       21.3880   35.8240    7.4150 C.ar  704  HEM704      0.0000
     24  C3C       22.1590   34.7300    7.2410 C.ar  704  HEM704      0.0000
     25  C4C       22.5860   34.7530    5.8530 C.ar  704  HEM704      0.0000
     26  CMC       20.6100   36.2110    8.6720 C.3   704  HEM704      0.0000
     27  CAC       22.3920   33.7430    8.1920 C.3   704  HEM704      0.0000
     28  CBC       23.7310   33.1520    8.4620 C.3   704  HEM704      0.0000
     29  C1D       23.9470   33.9250    3.9890 C.2   704  HEM704      0.0000
     30  C2D       25.0310   33.1250    3.4940 C.2   704  HEM704      0.0000
     31  C3D       25.3040   33.5630    2.2350 C.2   704  HEM704      0.0000
     32  C4D       24.3410   34.5920    1.9560 C.2   704  HEM704      0.0000
     33  CMD       25.7540   32.0470    4.2850 C.3   704  HEM704      0.0000
     34  CAD       26.4890   33.1850    1.3400 C.3   704  HEM704      0.0000
     35  CBD       27.5340   34.3130    1.0880 C.3   704  HEM704      0.0000
     36  CGD       28.6270   33.9320    0.0580 C.2   704  HEM704      0.0000
     37  O1D       28.7870   32.7320   -0.2840 O.co2 704  HEM704      0.0000
     38  O2D       29.3370   34.8410   -0.4150 O.co2 704  HEM704      0.0000
     39  NA        22.4530   36.7360    1.3830 N.ar  704  HEM704      0.0000
     40  NB        21.0040   37.7770    3.5150 N.2   704  HEM704      0.0000
     41  NC        22.0650   35.8320    5.1810 N.ar  704  HEM704      0.0000
     42  ND        23.5390   34.8360    3.0470 N.2   704  HEM704      0.0000
     43 FE         22.2310   36.2420    3.2670 Fe    704  HEM704      0.0000
@<TRIPOS>BOND
     1    14    12   ar
     2    12    13   ar
     3    12    11    1
     4    11    10    1
     5    10     6    1
     6     9     7    1
     7     6     7   ar
     8     6     5   ar
     9     7     8   ar
    10    38    36   ar
    11    37    36   ar
    12    36    35    1
    13     5     1    2
    14     5    39   ar
    15     8     2    2
    16     8    39   ar
    17     1    32    1
    18    35    34    1
    19     2    15    1
    20    34    31    1
    21    39    43    1
    22    32    31    1
    23    32    42    2
    24    31    30    2
    25    19    16    1
    26    15    16    1
    27    15    40    2
    28    42    43    1
    29    42    29    1
    30    16    17    2
    31    43    40    1
    32    43    41    1
    33    30    29    1
    34    30    33    1
    35    40    18    1
    36    29     4    2
    37    17    18    1
    38    17    20    1
    39    18     3    2
    40    41    25   ar
    41    41    22   ar
    42     4    25    1
    43    20    21    1
    44    25    24   ar
    45     3    22    1
    46    22    23   ar
    47    24    23   ar
    48    24    27    1
    49    23    26    1
    50    27    28    1
