@<TRIPOS>MOLECULE
1py0_YMA_A_1.pdb
 33 32 0 0 0
SMALL
GASTEIGER

@<TRIPOS>ATOM
      1  O8         3.6000   14.7050    2.4200 O.co2 195  YMA195     -0.2441
      2  C2         3.2270   13.5100    3.0270 C.2   195  YMA195      0.3809
      3  O7         2.2340   13.4770    3.9390 O.co2 195  YMA195     -0.2441
      4  C1         3.9180   12.1890    2.6790 C.3   195  YMA195      0.1878
      5  N1         3.2020   11.4280    1.6730 N.3   195  YMA195     -0.2607
      6  C10        3.5300   11.5390    0.2290 C.3   195  YMA195      0.0901
      7  C11        3.5550   13.0050   -0.2710 C.3   195  YMA195      0.0904
      8  N3         2.7080   13.2940   -1.4530 N.3   195  YMA195     -0.2541
      9  C14        2.1080   14.6610   -1.5860 C.3   195  YMA195      0.1606
     10  C15        0.8970   14.7630   -2.1310 C.2   195  YMA195      0.2578
     11  N5         0.7660   16.1200   -2.2210 N.am  195  YMA195     -0.2033
     12  C16        1.4880   17.3000   -1.5210 C.3   195  YMA195      0.1277
     13  C18        2.8020   18.1880   -1.0610 C.3   195  YMA195      0.0920
     14  S2         3.8440   18.4700   -2.5240 S.3   195  YMA195     -0.0802
     15  O6         0.0410   13.9740   -2.3690 O.2   195  YMA195     -0.2718
     16  C12        2.5350   12.2860   -2.5270 C.3   195  YMA195      0.1882
     17  C13        1.6140   11.1760   -2.1530 C.2   195  YMA195      0.3809
     18  O4         2.0210    9.8530   -2.2440 O.co2 195  YMA195     -0.2441
     19  O3         0.3870   11.4780   -1.7130 O.co2 195  YMA195     -0.2441
     20  C3         2.1530   10.5000    2.1570 C.3   195  YMA195      0.0901
     21  C4         1.0050   10.2810    1.1420 C.3   195  YMA195      0.0904
     22  N2        -0.1970   10.3230    1.6610 N.3   195  YMA195     -0.2541
     23  C5        -0.5180   10.5080    3.1940 C.3   195  YMA195      0.1882
     24  C6        -1.2870   11.7330    3.5610 C.2   195  YMA195      0.3809
     25  O2        -2.6330   11.6350    3.8800 O.co2 195  YMA195     -0.2441
     26  O1        -0.6630   12.9230    3.5620 O.co2 195  YMA195     -0.2441
     27  C7        -1.4710   10.0880    0.8240 C.3   195  YMA195      0.1606
     28  C8        -2.1750   11.5650    0.5770 C.2   195  YMA195      0.2578
     29  O5        -1.3350   12.6770   -0.2010 O.2   195  YMA195     -0.2718
     30  N4        -3.0290   12.4140    1.1130 N.am  195  YMA195     -0.2033
     31  C9        -3.0600   13.9600    1.2880 C.3   195  YMA195      0.1277
     32  C17       -2.9730   15.1360    2.3520 C.3   195  YMA195      0.0920
     33  S1        -4.1810   15.5860    3.6550 S.3   195  YMA195     -0.0802
@<TRIPOS>BOND
     1    16    17    1
     2    16     8    1
     3    14    13    1
     4    15    10    2
     5    18    17   ar
     6    11    10   am
     7    11    12    1
     8    17    19   ar
     9    10     9    1
    10     9     8    1
    11    12    13    1
    12     8     7    1
    13     7     6    1
    14    29    28    2
    15     6     5    1
    16    28    27    1
    17    28    30   am
    18    27    22    1
    19    30    31    1
    20    21    22    1
    21    21    20    1
    22    31    32    1
    23    22    23    1
    24     5    20    1
    25     5     4    1
    26    32    33    1
    27     1     2   ar
    28     4     2    1
    29     2     3   ar
    30    23    24    1
    31    24    26   ar
    32    24    25   ar
