@<TRIPOS>MOLECULE
1py2_FRH_A_1.pdb
 45 48 0 0 0
SMALL
GASTEIGER

@<TRIPOS>ATOM
      1  O45       32.9680    9.6610   -1.9130 O.2   201  FRH201     -0.2696
      2  C26       31.8850    9.9750   -1.4400 C.2   201  FRH201      0.2818
      3  C25       30.6210    9.7410   -2.2190 C.3   201  FRH201      0.2577
      4  C32       30.5590   10.6210   -3.4650 C.3   201  FRH201      0.0529
      5  C36       29.8830   11.9670   -3.2190 C.3   201  FRH201      0.0040
      6  C38       28.3680   11.8410   -3.1050 C.3   201  FRH201      0.0001
      7  C37       30.2460   12.9520   -4.3230 C.3   201  FRH201      0.0001
      8  N5        30.5140    8.3500   -2.6090 N.pl3 201  FRH201     -0.0806
      9  C17       29.3820    7.6640   -2.5070 C.cat 201  FRH201      0.5349
     10  N4        28.6530    7.7260   -1.3930 N.pl3 201  FRH201      0.1354
     11  N1        28.9840    6.9080   -3.5280 N.pl3 201  FRH201      0.1354
     12  N2        31.7320   10.5240   -0.2330 N.am  201  FRH201     -0.1926
     13  C28       32.7470   10.4860    0.8080 C.3   201  FRH201      0.1999
     14  C14       32.6950   11.7260    1.6750 C.2   201  FRH201      0.2478
     15  O44       31.6500   12.3560    1.7400 O.2   201  FRH201     -0.2729
     16  N6        33.8020   12.0990    2.3360 N.am  201  FRH201     -0.2781
     17  C22       33.8440   13.3520    3.0990 C.3   201  FRH201      0.0935
     18  C15       34.1670   12.9970    4.5520 C.3   201  FRH201      0.0233
     19  C19       35.4970   12.2480    4.6220 C.3   201  FRH201      0.0235
     20  C27       35.3770   10.9760    3.7830 C.3   201  FRH201      0.0233
     21  C29       35.0410   11.3140    2.3300 C.3   201  FRH201      0.0935
     22  C23       35.9030   11.9190    6.0400 C.3   201  FRH201      0.0974
     23  C11       35.2610   11.8040    7.1290 C.3   201  FRH201      0.0687
     24  C13       36.0200   11.4880    8.1020 C.2   201  FRH201      0.0786
     25  N7        37.2340   11.2320    7.6190 N.2   201  FRH201     -0.1864
     26  N3        37.1570   11.6680    6.3950 N.pl3 201  FRH201     -0.2326
     27  C34       38.3830   11.8280    5.6230 C.3   201  FRH201      0.1339
     28  C24       35.7840   11.3790    9.5850 C.ar  201  FRH201      0.0267
     29  C10       36.7530   11.8850   10.4520 C.ar  201  FRH201      0.0052
     30  C21       34.6400   10.7810   10.1100 C.ar  201  FRH201      0.0723
     31 CL8        33.3630   10.1100    9.0430 Cl    201  FRH201     -0.0812
     32  C16       34.4690   10.6990   11.4850 C.ar  201  FRH201      0.1021
     33 CL9        32.9910    9.9310   12.1570 Cl    201  FRH201     -0.0782
     34  C30       35.4320   11.2010   12.3490 C.ar  201  FRH201      0.1499
     35  C33       36.5800   11.8010   11.8310 C.ar  201  FRH201      0.0379
     36  O43       35.2310   11.1050   13.7040 O.3   201  FRH201     -0.4720
     37  C35       36.2900   10.8010   14.6130 C.3   201  FRH201      0.2347
     38  C18       36.3560   11.9000   15.6460 C.3   201  FRH201      0.1594
     39  C39       36.7620   11.7960   16.8380 C.3   201  FRH201      0.0365
     40  O42       35.9500   13.2720   15.4550 O.3   201  FRH201     -0.3437
     41  C31       35.8680   13.7580   16.8070 C.3   201  FRH201      0.2178
     42  C12       36.3860   12.7720   17.5610 C.3   201  FRH201      0.0439
     43  C20       35.3220   15.0400   17.2490 C.2   201  FRH201      0.3913
     44  O40       34.6100   15.6920   16.4540 O.co2 201  FRH201     -0.2430
     45  O41       35.5770   15.4550   18.4020 O.co2 201  FRH201     -0.2430
@<TRIPOS>BOND
     1     7     5    1
     2    11     9    1
     3     4     5    1
     4     4     3    1
     5     5     6    1
     6     8     9    2
     7     8     3    1
     8     9    10    1
     9     3     2    1
    10     1     2    2
    11     2    12   am
    12    12    13    1
    13    13    14    1
    14    14    15    2
    15    14    16   am
    16    21    16    1
    17    21    20    1
    18    16    17    1
    19    17    18    1
    20    20    19    1
    21    18    19    1
    22    19    22    1
    23    27    26    1
    24    22    26    1
    25    22    23    1
    26    26    25    1
    27    23    24    1
    28    25    24    2
    29    24    28    1
    30    31    30    1
    31    28    30   ar
    32    28    29   ar
    33    30    32   ar
    34    29    35   ar
    35    32    33    1
    36    32    34   ar
    37    35    34   ar
    38    34    36    1
    39    36    37    1
    40    37    38    1
    41    40    38    1
    42    40    41    1
    43    38    39    1
    44    44    43   ar
    45    41    43    1
    46    41    42    1
    47    39    42    1
    48    43    45   ar
