@<TRIPOS>MOLECULE
1py5_PY1_A_1.pdb
 21 24 0 0 0
SMALL
GASTEIGER

@<TRIPOS>ATOM
      1  C1         4.6090    8.3280    5.5710 C.3   700  PY1700      0.0948
      2  C2         5.3520    9.5570    6.0020 C.2   700  PY1700      0.1040
      3  N3         5.4320    9.5820    7.3760 N.2   700  PY1700     -0.1507
      4  N4         4.7780    8.4320    7.8050 N.2   700  PY1700     -0.1510
      5  C5         4.2760    7.6560    6.7640 C.2   700  PY1700      0.1020
      6  C8         4.2630    7.8460    4.1490 C.3   700  PY1700      0.0583
      7  C10        5.9580   10.6290    5.1760 C.ar  700  PY1700      0.0969
      8  N12        7.2200   11.0770    5.6250 N.ar  700  PY1700     -0.2426
      9  C13        7.9620   12.0110    5.0350 C.ar  700  PY1700      0.0989
     10  C14        7.4620   12.6140    3.8550 C.ar  700  PY1700      0.0207
     11  C15        6.1610   12.1990    3.3270 C.ar  700  PY1700      0.0032
     12  C16        5.3760   11.1980    3.9700 C.ar  700  PY1700      0.0204
     13  C21        2.8860    7.4780    3.6980 C.2   700  PY1700     -0.0038
     14  C22        2.7400    7.0350    2.2850 C.2   700  PY1700      0.0597
     15  N23        3.8770    7.0140    1.4480 N.2   700  PY1700     -0.2484
     16  C24        5.1370    7.3470    1.8470 C.2   700  PY1700      0.0942
     17  C25        5.3660    7.7760    3.1880 C.2   700  PY1700     -0.0007
     18  C28        1.6560    7.4710    4.5120 C.2   700  PY1700     -0.0031
     19  C29        0.3780    7.0750    3.9550 C.2   700  PY1700     -0.0045
     20  C30        0.2790    6.6680    2.5940 C.2   700  PY1700     -0.0198
     21  C31        1.4470    6.6570    1.7660 C.3   700  PY1700      0.0714
@<TRIPOS>BOND
     1    15    16    1
     2    15    14    2
     3    21    14    1
     4    21    20    1
     5    16    17    2
     6    14    13    1
     7    20    19    2
     8    17     6    1
     9    11    10   ar
    10    11    12   ar
    11    13     6    1
    12    13    18    2
    13    10     9   ar
    14    19    18    1
    15    12     7   ar
    16     6     1    1
    17     9     8   ar
    18     7     8   ar
    19     7     2    1
    20     1     2    1
    21     1     5    1
    22     2     3    2
    23     5     4    2
    24     3     4    1
