@<TRIPOS>MOLECULE
1py6_RET_A_1.pdb
 20 20 0 0 0
SMALL
GASTEIGER

@<TRIPOS>ATOM
      1  C1        40.4190   54.8670    2.1920 C.3   301  RET301      0.0183
      2  C2        41.2160   56.1090    1.7150 C.3   301  RET301      0.0044
      3  C3        41.7480   56.1080    0.3330 C.3   301  RET301      0.0047
      4  C4        42.3530   54.7830   -0.1460 C.3   301  RET301      0.0217
      5  C5        41.5950   53.4950    0.2700 C.2   301  RET301     -0.0479
      6  C6        40.6880   53.5280    1.3570 C.2   301  RET301     -0.0307
      7  C7        40.0160   52.2240    1.6420 C.2   301  RET301     -0.0052
      8  C8        39.0930   51.8710    2.5910 C.2   301  RET301     -0.0049
      9  C9        38.4570   50.5830    2.7970 C.2   301  RET301     -0.0258
     10  C10       37.5830   50.6260    3.8420 C.2   301  RET301     -0.0257
     11  C11       36.8100   49.4480    4.2260 C.3   301  RET301      0.0510
     12  C12       36.0150   49.7040    5.2890 C.2   301  RET301     -0.0299
     13  C13       35.1440   48.7290    5.9060 C.2   301  RET301     -0.0478
     14  C14       34.4940   49.3120    6.9660 C.3   301  RET301      0.0217
     15  C15       33.5570   48.6510    7.8240 C.3   301  RET301      0.0047
     16  C16       40.8170   54.6730    3.7060 C.3   301  RET301      0.0043
     17  C17       38.9330   55.3850    2.0850 C.3   301  RET301      0.0043
     18  C18       42.0180   52.3790   -0.6490 C.3   301  RET301      0.0260
     19  C19       38.7440   49.3760    1.9310 C.3   301  RET301      0.0307
     20  C20       35.0190   47.3080    5.4270 C.3   301  RET301      0.0260
@<TRIPOS>BOND
     1    18     5    1
     2     4     5    1
     3     4     3    1
     4     5     6    2
     5     3     2    1
     6     6     7    1
     7     6     1    1
     8     7     8    2
     9     2     1    1
    10    19     9    1
    11    17     1    1
    12     1    16    1
    13     8     9    1
    14     9    10    2
    15    10    11    1
    16    11    12    1
    17    12    13    2
    18    20    13    1
    19    13    14    1
    20    14    15    1
