@<TRIPOS>MOLECULE
1pyd_TDP_A_1.pdb
 26 27 0 0 0
SMALL
GASTEIGER

@<TRIPOS>ATOM
      1  N1'        1.3210   10.9310   28.1510 N.2   557  TDP557     -0.1861
      2  C2'        2.0330    9.7650   28.2390 C.1   557  TDP557      0.0663
      3  C2A        1.3390    8.4370   28.1600 C.3   557  TDP557      0.1291
      4  N3'        3.3410    9.7620   28.3910 N.2   557  TDP557     -0.3368
      5  C4'        4.0120   10.9540   28.5390 C.2   557  TDP557      0.2292
      6  N4'        5.3250   10.8750   28.6880 N.pl3 557  TDP557     -0.0925
      7  C5'        3.3100   12.1810   28.4600 C.2   557  TDP557      0.0654
      8  C6'        1.9850   12.1010   28.2590 C.2   557  TDP557      0.1115
      9  C35        4.0060   13.5090   28.6400 C.3   557  TDP557      0.1237
     10  N3         4.5910   13.6300   30.0460 N.pl3 557  TDP557     -0.2970
     11  C2         5.8880   13.4400   30.2170 C.3   557  TDP557      0.1543
     12  S1         6.4280   13.5780   31.7900 S.3   557  TDP557     -0.0951
     13  C5         4.8390   13.9900   32.3140 C.2   557  TDP557      0.0164
     14  C4         3.9600   13.9740   31.2350 C.2   557  TDP557      0.0279
     15  C4A        2.5170   14.2780   31.3260 C.3   557  TDP557      0.0473
     16  C5A        4.6000   14.2970   33.7550 C.3   557  TDP557      0.0661
     17  C5B        4.8470   13.1990   34.7720 C.3   557  TDP557      0.1544
     18  O5G        4.8950   13.7320   36.0830 O.3   557  TDP557     -0.3134
     19  P1         5.1810   13.1330   37.5270 P.3   557  TDP557      0.2230
     20  O11        6.7170   13.4290   37.6650 O.3   557  TDP557     -0.2261
     21  O12        4.4340   13.8100   38.5800 O.3   557  TDP557     -0.4370
     22  O13        5.0350   11.6560   37.3800 O.2   557  TDP557     -0.5169
     23  P2         7.6000   14.5430   38.4320 P.3   557  TDP557      0.5373
     24  O21        8.3310   13.8130   39.5560 O.3   557  TDP557     -0.1143
     25  O22        8.2990   15.2720   37.3920 O.2   557  TDP557     -0.2221
     26  O23        6.5330   15.4030   39.0870 O.3   557  TDP557     -0.1143
@<TRIPOS>BOND
     1     1     2    2
     2     1     8    1
     3     3     2    1
     4     2     4    2
     5     8     7    2
     6     4     5    2
     7     7     5    1
     8     7     9    1
     9     5     6    1
    10     9    10    1
    11    10    11    1
    12    10    14    1
    13    11    12    1
    14    14    15    1
    15    14    13    2
    16    12    13    1
    17    13    16    1
    18    16    17    1
    19    17    18    1
    20    18    19    1
    21    22    19    2
    22    25    23    2
    23    19    20    1
    24    19    21    1
    25    20    23    1
    26    23    26    1
    27    23    24    1
