@<TRIPOS>MOLECULE
1pye_PM1_A_1.pdb
 28 31 0 0 0
SMALL
GASTEIGER

@<TRIPOS>ATOM
      1  C1        12.1640   -8.8880   22.8640 C.2   700  PM1700      0.0541
      2  C2        13.0340   -9.2590   23.9350 C.2   700  PM1700      0.0712
      3  N3        13.9760  -10.2500   23.8420 N.pl3 700  PM1700     -0.2487
      4  C4        14.1340  -10.9480   22.5960 C.2   700  PM1700      0.1891
      5  C5        13.3150  -10.6450   21.5040 C.2   700  PM1700      0.0482
      6  C6        12.3350   -9.6040   21.6290 C.2   700  PM1700      0.0085
      7  C10       14.9410  -10.7780   24.7210 C.3   700  PM1700      0.2113
      8  C11       15.5940  -11.7950   23.9830 C.2   700  PM1700      0.2239
      9  N12       15.1130  -11.8720   22.7300 N.2   700  PM1700     -0.3709
     10  C13       15.2930  -10.4970   26.1290 C.2   700  PM1700      0.1997
     11  C14       14.6600   -9.4620   26.9840 C.ar  700  PM1700      0.0369
     12  C15       13.3970   -9.7370   27.6360 C.ar  700  PM1700      0.0029
     13  C16       12.7780   -8.7330   28.4710 C.ar  700  PM1700      0.0001
     14  C17       13.4230   -7.4700   28.6490 C.ar  700  PM1700      0.0000
     15  C18       14.6680   -7.1930   28.0000 C.ar  700  PM1700      0.0001
     16  C19       15.2930   -8.1840   27.1670 C.ar  700  PM1700      0.0029
     17  C23       11.1070   -7.7970   22.9750 C.2   700  PM1700      0.2011
     18  C24       10.9440   -7.0500   24.3110 C.ar  700  PM1700      0.0938
     19  C25        9.7520   -7.2480   25.0880 C.ar  700  PM1700      0.1453
     20  C26        9.5190   -6.5890   26.3420 C.ar  700  PM1700      0.0299
     21  C27       10.4960   -5.6770   26.8580 C.ar  700  PM1700      0.0046
     22  C28       11.7070   -5.4310   26.1370 C.ar  700  PM1700      0.0299
     23  C29       11.9280   -6.0940   24.8830 C.ar  700  PM1700      0.1453
     24  O33       10.3790   -7.5170   21.9890 O.2   700  PM1700     -0.2864
     25  O34       16.2190  -11.1720   26.6280 O.2   700  PM1700     -0.2891
     26  N35       16.6740  -12.6470   24.4810 N.pl3 700  PM1700     -0.0957
     27  F36        8.8000   -8.0830   24.6690 F     700  PM1700     -0.2040
     28  F39       13.0910   -5.8090   24.2780 F     700  PM1700     -0.2040
@<TRIPOS>BOND
     1     5     6    2
     2     5     4    1
     3     6     1    1
     4    24    17    2
     5     4     9    2
     6     4     3    1
     7     9     8    2
     8     1    17    1
     9     1     2    2
    10    17    18    1
    11     3     2    1
    12     3     7    1
    13     8    26    1
    14     8     7    1
    15    28    23    1
    16    18    23   ar
    17    18    19   ar
    18    27    19    1
    19     7    10    1
    20    23    22   ar
    21    19    20   ar
    22    10    25    2
    23    10    11    1
    24    22    21   ar
    25    20    21   ar
    26    11    16   ar
    27    11    12   ar
    28    16    15   ar
    29    12    13   ar
    30    15    14   ar
    31    13    14   ar
