@<TRIPOS>MOLECULE
1pyg_AMP_A_1.pdb
 23 25 0 0 0
SMALL
GASTEIGER

@<TRIPOS>ATOM
      1  P         59.7410   24.8920   43.7380 P.3   843  AMP843      0.5327
      2  O1P       59.7440   24.7550   45.2190 O.3   843  AMP843     -0.1145
      3  O2P       58.8020   24.0120   43.0100 O.2   843  AMP843     -0.2224
      4  O3P       59.7400   26.2830   43.2100 O.3   843  AMP843     -0.1145
      5  O5'       61.1910   24.2820   43.3290 O.3   843  AMP843     -0.2675
      6  C5'       62.3590   24.3570   44.1290 C.3   843  AMP843      0.1860
      7  C4'       63.2040   23.1040   43.9710 C.3   843  AMP843      0.1823
      8  O4'       62.4590   21.9700   44.3870 O.3   843  AMP843     -0.3135
      9  C3'       63.5910   22.8440   42.5180 C.3   843  AMP843      0.2184
     10  O3'       64.8430   23.4550   42.1590 O.3   843  AMP843     -0.2174
     11  C2'       63.6990   21.3480   42.4400 C.3   843  AMP843      0.2570
     12  O2'       65.0060   20.8930   42.8060 O.3   843  AMP843     -0.2130
     13  C1'       62.6760   20.8950   43.4710 C.3   843  AMP843      0.3186
     14  N9        61.4200   20.5220   42.8260 N.pl3 843  AMP843     -0.1439
     15  C8        60.4120   21.3350   42.3840 C.3   843  AMP843      0.3377
     16  N7        59.3910   20.6960   41.8940 N.2   843  AMP843     -0.2095
     17  C5        59.7550   19.3570   42.0250 C.2   843  AMP843      0.2526
     18  C6        59.0900   18.1640   41.6990 C.2   843  AMP843      0.4393
     19  N6        57.8890   18.1490   41.1410 N.pl3 843  AMP843      0.2180
     20  N1        59.7140   17.0210   42.0120 N.2   843  AMP843      0.0021
     21  C2        60.9050   17.0760   42.6040 C.3   843  AMP843      0.5254
     22  N3        61.6700   18.1190   42.8600 N.2   843  AMP843     -0.0055
     23  C4        60.9930   19.2460   42.5980 C.2   843  AMP843      0.3518
@<TRIPOS>BOND
     1    19    18    1
     2    18    20    2
     3    18    17    1
     4    16    17    2
     5    16    15    1
     6    20    21    1
     7    17    23    1
     8    10     9    1
     9    15    14    1
    10    11     9    1
    11    11    12    1
    12    11    13    1
    13     9     7    1
    14    23    14    1
    15    23    22    2
    16    21    22    1
    17    14    13    1
    18     3     1    2
    19     4     1    1
    20     5     1    1
    21     5     6    1
    22    13     8    1
    23     1     2    1
    24     7     6    1
    25     7     8    1
