@<TRIPOS>MOLECULE
1pyg_PDP_A_1.pdb
 19 19 0 0 0
SMALL
GASTEIGER

@<TRIPOS>ATOM
      1  N1        69.1360   44.2690   65.8690 N.2   860  PDP860     -0.2505
      2  C2        70.3470   43.6550   65.8650 C.2   860  PDP860      0.0675
      3  C2A       71.4660   44.2750   65.0940 C.3   860  PDP860      0.0499
      4  C3        70.5930   42.5890   66.6920 C.3   860  PDP860      0.1913
      5  O3        71.7540   41.8680   66.5260 O.3   860  PDP860     -0.2167
      6  C4        69.6240   42.1870   67.5800 C.3   860  PDP860      0.0581
      7  C4A       70.0120   41.4070   68.6990 C.3   860  PDP860      0.0075
      8  C5        68.3830   42.8170   67.5780 C.2   860  PDP860      0.0071
      9  C6        68.1550   43.8340   66.7110 C.2   860  PDP860      0.0921
     10  C5A       67.3820   42.6360   68.7590 C.3   860  PDP860      0.1730
     11  O5A       67.6010   43.6980   69.6890 O.3   860  PDP860     -0.3092
     12  PA        66.5860   44.2720   70.6090 P.3   860  PDP860      0.2233
     13  O1A       67.4060   45.1310   71.6850 O.3   860  PDP860     -0.4370
     14  O3A       65.4400   45.0870   70.1070 O.3   860  PDP860     -0.2261
     15  O2A       66.1340   43.0730   71.5720 O.2   860  PDP860     -0.5169
     16  PB        64.0760   44.5260   70.2490 P.3   860  PDP860      0.5373
     17  O1B       63.2360   45.5820   69.3510 O.2   860  PDP860     -0.2221
     18  O2B       63.8410   43.2340   69.5540 O.3   860  PDP860     -0.1143
     19  O3B       63.4590   44.6660   71.5930 O.3   860  PDP860     -0.1143
@<TRIPOS>BOND
     1     3     2    1
     2     2     1    2
     3     2     4    1
     4     1     9    1
     5     5     4    1
     6     4     6    1
     7     9     8    2
     8     8     6    1
     9     8    10    1
    10     6     7    1
    11    10    11    1
    12    17    16    2
    13    18    16    1
    14    11    12    1
    15    14    16    1
    16    14    12    1
    17    16    19    1
    18    12    15    2
    19    12    13    1
