@<TRIPOS>MOLECULE
1pyn_941_A_1.pdb
 43 44 0 0 0
SMALL
GASTEIGER

@<TRIPOS>ATOM
      1  C1        34.4630   29.7880   19.7570 C.ar  322  941322      0.0366
      2  C2        33.7860   29.1070   20.8760 C.ar  322  941322      0.1399
      3  C3        32.4210   29.4120   21.1260 C.ar  322  941322      0.0366
      4  C4        31.7080   30.3500   20.3190 C.ar  322  941322     -0.0011
      5  C5        32.3570   31.0120   19.2290 C.ar  322  941322     -0.0198
      6  C6        33.7460   30.7210   18.9570 C.ar  322  941322     -0.0011
      7  C9        31.1420   31.3540   16.9830 C.3   322  941322      0.1804
      8  N1        30.3840   32.3590   16.2500 N.am  322  941322     -0.1607
      9  C10       30.3740   32.6090   14.9360 C.2   322  941322      0.4213
     10  C11       30.4560   29.9660   17.2050 C.2   322  941322      0.2617
     11  N2        29.1490   30.0250   17.4950 N.am  322  941322     -0.2040
     12  C12       28.2950   28.8480   17.7780 C.3   322  941322      0.1153
     13  C13       27.1690   29.3100   18.7450 C.3   322  941322      0.0273
     14  C14       26.6180   30.7920   20.7650 C.3   322  941322      0.2055
     15  C15       27.6880   30.3150   19.8110 C.3   322  941322      0.0492
     16  O1        26.2160   29.6980   21.5980 O.3   322  941322     -0.4751
     17  O4        31.0650   31.9610   14.1930 O.2   322  941322     -0.2246
     18  O9        29.5560   33.5920   14.5160 O.3   322  941322     -0.4408
     19  C8        35.6430   27.6650   21.7500 C.3   322  941322      0.3707
     20  O8        31.1300   28.9180   17.1360 O.2   322  941322     -0.2715
     21  C7        31.5700   31.9910   18.3610 C.3   322  941322      0.0575
     22  C16       36.6830   28.7280   22.1950 C.2   322  941322      0.4156
     23  C24       35.6440   26.4290   22.6740 C.2   322  941322      0.4156
     24  O6        34.9400   26.2740   23.6170 O.co2 322  941322     -0.2410
     25  O7        36.5590   25.4910   22.3070 O.co2 322  941322     -0.2410
     26  C32       24.9130   29.6800   22.1840 C.ar  322  941322      0.1479
     27  C33       24.1570   30.9050   22.4990 C.ar  322  941322      0.0373
     28  C34       22.8560   30.8330   23.0900 C.ar  322  941322      0.0064
     29  C35       22.2770   29.5560   23.3800 C.ar  322  941322      0.0425
     30  C36       22.9850   28.3490   23.0850 C.ar  322  941322      0.2049
     31  C37       24.3060   28.3890   22.4870 C.ar  322  941322      0.1482
     32  C38       25.0030   27.0990   22.2030 C.2   322  941322      0.3475
     33  O11       25.2850   26.3340   23.1060 O.2   322  941322     -0.2447
     34  O12       25.2800   26.8540   20.9010 O.3   322  941322     -0.4412
     35  C39       25.9500   25.6260   20.4810 C.3   322  941322      0.2560
     36  O13       22.3480   27.1750   23.4010 O.3   322  941322     -0.2862
     37  O3        36.4360   29.6970   22.8330 O.co2 322  941322     -0.2410
     38  O5        37.9350   28.4390   21.7610 O.co2 322  941322     -0.2410
     39  O2        34.2900   28.1630   21.7740 O.3   322  941322     -0.4582
     40  C41       28.3520   33.4330   13.6200 C.3   322  941322      0.1379
     41  C42       27.6080   32.0830   13.9080 C.3   322  941322      0.0437
     42  C43       28.8000   33.4540   12.1410 C.3   322  941322      0.0437
     43  C44       27.3190   34.5760   13.8600 C.3   322  941322      0.0437
@<TRIPOS>BOND
     1    42    40    1
     2    40    43    1
     3    40    41    1
     4    40    18    1
     5    17     9    2
     6    18     9    1
     7     9     8   am
     8     8     7    1
     9     7    10    1
    10     7    21    1
    11    20    10    2
    12    10    11   am
    13    11    12    1
    14    12    13    1
    15    21     5    1
    16    13    15    1
    17     6     5   ar
    18     6     1   ar
    19     5     4   ar
    20     1     2   ar
    21    15    14    1
    22     4     3   ar
    23    35    34    1
    24    14    16    1
    25     2     3   ar
    26     2    39    1
    27    34    32    1
    28    16    26    1
    29    19    39    1
    30    19    22    1
    31    19    23    1
    32    38    22   ar
    33    26    31   ar
    34    26    27   ar
    35    22    37   ar
    36    32    31    1
    37    32    33    2
    38    25    23   ar
    39    31    30   ar
    40    27    28   ar
    41    23    24   ar
    42    30    29   ar
    43    30    36    1
    44    28    29   ar
