@<TRIPOS>MOLECULE
1pyo_III_E_1.pdb
 42 41 0 0 0
SMALL
GASTEIGER

@<TRIPOS>ATOM
      1  C         29.0560   66.7420   17.6750 C.2   401  ACE401      0.2423
      2  O         28.3960   67.5000   16.9520 O.2   401  ACE401     -0.2733
      3  CH3       29.5460   67.2820   18.9950 C.3   401  ACE401      0.0964
      4  N         29.4290   65.5620   17.5430 N.am  402  LEU402     -0.1978
      5  CA        29.0500   64.8460   16.3090 C.3   402  LEU402      0.1727
      6  C         28.4960   63.4640   16.6670 C.2   402  LEU402      0.2616
      7  O         28.9630   62.8410   17.6240 O.2   402  LEU402     -0.2715
      8  CB        30.2840   64.6600   15.3970 C.3   402  LEU402      0.0311
      9  CG        31.0320   65.9060   14.8800 C.3   402  LEU402      0.0022
     10  CD1       32.2190   65.4550   14.0230 C.3   402  LEU402      0.0001
     11  CD2       30.0940   66.7740   14.0360 C.3   402  LEU402      0.0001
     12  N         27.5020   62.9840   15.9030 N.am  403  ASP403     -0.1957
     13  CA        26.9060   61.6650   16.1830 C.3   403  ASP403      0.1840
     14  C         27.6280   60.5320   15.4210 C.2   403  ASP403      0.2622
     15  O         27.9510   60.6120   14.2170 O.2   403  ASP403     -0.2715
     16  CB        25.3870   61.6710   15.8560 C.3   403  ASP403      0.1450
     17  CG        24.6260   62.7380   16.6630 C.2   403  ASP403      0.3671
     18  OD1       24.8010   62.7480   17.8920 O.co2 403  ASP403     -0.2456
     19  OD2       23.8530   63.5320   16.1060 O.co2 403  ASP403     -0.2456
     20  N         27.8580   59.4550   16.1960 N.am  404  GLU404     -0.1963
     21  CA        28.5060   58.1950   15.7860 C.3   404  GLU404      0.1733
     22  C         27.6350   57.0340   16.2760 C.2   404  GLU404      0.2617
     23  O         26.7360   57.2470   17.1080 O.2   404  GLU404     -0.2715
     24  CB        29.9360   58.0190   16.3650 C.3   404  GLU404      0.0429
     25  CG        30.6110   59.2500   16.9570 C.3   404  GLU404      0.1163
     26  CD        32.0120   58.9550   17.4860 C.2   404  GLU404      0.3649
     27  OE1       32.1490   58.2210   18.4980 O.co2 404  GLU404     -0.2457
     28  OE2       32.9840   59.4650   16.8850 O.co2 404  GLU404     -0.2457
     29  N         27.8890   55.8230   15.7770 N.am  405  SER405     -0.1936
     30  CA        27.1010   54.6400   16.1880 C.3   405  SER405      0.2055
     31  C         27.8580   53.7490   17.1850 C.2   405  SER405      0.2639
     32  O         29.0900   53.6980   17.2680 O.2   405  SER405     -0.2714
     33  CB        26.7350   53.7980   14.9560 C.3   405  SER405      0.2130
     34  OG        27.8820   53.1660   14.3970 O.3   405  SER405     -0.2179
     35  N         27.1930   52.8630   18.1070 N.am  406  ASP406     -0.2024
     36  CA        27.4820   51.8110   19.0950 C.3   406  ASP406      0.1395
     37  C         27.1870   50.4440   18.5370 C.3   406  ASP406      0.2041
     38  O         27.8090   49.4920   19.1020 O.3   406  ASP406     -0.2185
     39  CB        26.5540   52.0730   20.3100 C.3   406  ASP406      0.1383
     40  CG        27.0760   53.1500   21.2380 C.2   406  ASP406      0.3667
     41  OD1       26.3250   53.6180   22.1230 O.co2 406  ASP406     -0.2456
     42  OD2       28.2770   53.5680   21.1100 O.co2 406  ASP406     -0.2456
@<TRIPOS>BOND
     1    10     9    1
     2    11     9    1
     3    15    14    2
     4    34    33    1
     5     9     8    1
     6    33    30    1
     7     8     5    1
     8    14    13    1
     9    14    20   am
    10    29    30    1
    11    29    22   am
    12    21    20    1
    13    21    22    1
    14    21    24    1
    15    16    13    1
    16    16    17    1
    17    12    13    1
    18    12     6   am
    19    19    17   ar
    20    30    31    1
    21    22    23    2
    22     5     6    1
    23     5     4    1
    24    24    25    1
    25    17    18   ar
    26     6     7    2
    27    28    26   ar
    28     2     1    2
    29    25    26    1
    30    31    32    2
    31    31    35   am
    32    26    27   ar
    33     4     1   am
    34     1     3    1
    35    35    36    1
    36    37    36    1
    37    37    38    1
    38    36    39    1
    39    39    40    1
    40    42    40   ar
    41    40    41   ar
