@<TRIPOS>MOLECULE
1pyx_ANP_A_1.pdb
 31 33 0 0 0
SMALL
GASTEIGER

@<TRIPOS>ATOM
      1  PG        32.6140    7.5140   28.3380 P.3   1001  ANP1001     0.4884
      2  O1G       32.9780    6.6410   27.0880 O.2   1001  ANP1001    -0.2331
      3  O2G       31.9960    6.6630   29.4880 O.3   1001  ANP1001    -0.1240
      4  O3G       31.5890    8.5910   27.7650 O.3   1001  ANP1001    -0.1240
      5  PB        34.4690    9.6710   29.0550 P.3   1001  ANP1001     0.4669
      6  O1B       35.0510   10.2260   27.7550 O.2   1001  ANP1001    -0.2351
      7  O2B       33.3630   10.5680   29.6620 O.3   1001  ANP1001    -0.1253
      8  N3B       33.9060    8.1910   28.9300 N.3   1001  ANP1001    -0.0163
      9  PA        35.6170    9.0260   31.4750 P.3   1001  ANP1001     0.2220
     10  O1A       35.4150   10.1190   32.4760 O.3   1001  ANP1001    -0.4370
     11  O2A       34.3560    8.2620   31.7530 O.2   1001  ANP1001    -0.5170
     12  O3A       35.7810    9.5670   29.9400 O.3   1001  ANP1001    -0.2360
     13  O5'       36.8610    8.2070   31.7920 O.3   1001  ANP1001    -0.3111
     14  C5'       37.1980    7.0110   31.0380 C.3   1001  ANP1001     0.1813
     15  C4'       37.8230    5.9920   31.9900 C.3   1001  ANP1001     0.1821
     16  O4'       38.9970    6.5580   32.6060 O.3   1001  ANP1001    -0.3135
     17  C3'       36.9080    5.6010   33.1730 C.3   1001  ANP1001     0.2184
     18  O3'       35.9220    4.5880   32.8870 O.3   1001  ANP1001    -0.2174
     19  C2'       37.9260    5.1300   34.1950 C.3   1001  ANP1001     0.2570
     20  O2'       38.3530    3.7820   33.8880 O.3   1001  ANP1001    -0.2130
     21  C1'       39.0250    6.1660   33.9740 C.3   1001  ANP1001     0.3186
     22  N9        38.9660    7.2790   34.9300 N.pl3 1001  ANP1001    -0.1439
     23  C8        38.1280    8.3600   34.8060 C.3   1001  ANP1001     0.3377
     24  N7        38.2090    9.1160   35.9300 N.2   1001  ANP1001    -0.2095
     25  C5        39.1150    8.5250   36.7840 C.2   1001  ANP1001     0.2526
     26  C6        39.6620    8.7560   38.0700 C.2   1001  ANP1001     0.4393
     27  N6        39.2810    9.8500   38.8330 N.pl3 1001  ANP1001     0.2180
     28  N1        40.5870    7.8880   38.5910 N.2   1001  ANP1001     0.0021
     29  C2        41.0190    6.8000   37.9300 C.3   1001  ANP1001     0.5254
     30  N3        40.5920    6.4590   36.7230 N.2   1001  ANP1001    -0.0055
     31  C4        39.6400    7.3100   36.1420 C.2   1001  ANP1001     0.3518
@<TRIPOS>BOND
     1     2     1    2
     2     6     5    2
     3     4     1    1
     4     1     8    1
     5     1     3    1
     6     8     5    1
     7     5     7    1
     8     5    12    1
     9    12     9    1
    10    14    13    1
    11    14    15    1
    12     9    11    2
    13     9    13    1
    14     9    10    1
    15    15    16    1
    16    15    17    1
    17    16    21    1
    18    18    17    1
    19    17    19    1
    20    20    19    1
    21    21    19    1
    22    21    22    1
    23    23    22    1
    24    23    24    1
    25    22    31    1
    26    24    25    2
    27    31    30    2
    28    31    25    1
    29    30    29    1
    30    25    26    1
    31    29    28    1
    32    26    28    2
    33    26    27    1
