@<TRIPOS>MOLECULE
1pz0_NAP_A_1.pdb
 48 52 0 0 0
SMALL
GASTEIGER

@<TRIPOS>ATOM
      1  PA         2.7090    4.5760   64.2800 P.3   313  NAP313      0.2189
      2  O1A        1.4410    4.5190   63.4210 O.2   313  NAP313     -0.5170
      3  O2A        3.9570    4.1850   63.4970 O.3   313  NAP313     -0.4371
      4  O5B        2.4650    3.6070   65.6350 O.3   313  NAP313     -0.3112
      5  C5B        2.8770    2.2630   65.3920 C.3   313  NAP313      0.1813
      6  C4B        1.5580    1.5460   64.9100 C.3   313  NAP313      0.1820
      7  O4B        2.0070    0.1640   64.6140 O.3   313  NAP313     -0.3136
      8  C3B        0.4420    1.3390   65.9700 C.3   313  NAP313      0.2157
      9  O3B       -0.7830    1.3910   65.2230 O.3   313  NAP313     -0.2175
     10  C2B        0.6780   -0.0390   66.5810 C.3   313  NAP313      0.2314
     11  O2B       -0.5270   -0.7640   66.8950 O.3   313  NAP313     -0.2630
     12  C1B        1.4920   -0.8080   65.4980 C.3   313  NAP313      0.3158
     13  N9A        2.5760   -1.5610   66.0980 N.pl3 313  NAP313     -0.1439
     14  C8A        3.6590   -1.1580   66.8520 C.3   313  NAP313      0.3377
     15  N7A        4.4900   -2.1290   67.1690 N.2   313  NAP313     -0.2095
     16  C5A        3.9030   -3.2410   66.5820 C.2   313  NAP313      0.2526
     17  C6A        4.3240   -4.5830   66.5760 C.2   313  NAP313      0.4393
     18  N6A        5.4330   -5.0910   67.1550 N.pl3 313  NAP313      0.2180
     19  N1A        3.5090   -5.5030   65.8900 N.2   313  NAP313      0.0021
     20  C2A        2.3290   -5.0890   65.2480 C.3   313  NAP313      0.5254
     21  N3A        1.8950   -3.7690   65.2420 N.2   313  NAP313     -0.0055
     22  C4A        2.7140   -2.8870   65.9240 C.2   313  NAP313      0.3518
     23  O3         2.8130    5.9170   64.6990 O.3   313  NAP313     -0.2703
     24  PN         3.5270    6.8070   65.9430 P.3   313  NAP313      0.2189
     25  O1N        3.4710    6.1400   67.3340 O.3   313  NAP313     -0.4371
     26  O2N        5.0030    7.1210   65.5480 O.2   313  NAP313     -0.5170
     27  O5D        2.7900    8.0070   65.9230 O.3   313  NAP313     -0.3112
     28  C5D        1.4420    7.8090   66.4490 C.3   313  NAP313      0.1813
     29  C4D        0.6650    9.0310   66.0600 C.3   313  NAP313      0.1799
     30  O4D        1.2150   10.1800   66.7520 O.3   313  NAP313     -0.3327
     31  C3D        0.7120    9.3600   64.5430 C.3   313  NAP313      0.2158
     32  O3D       -0.5900    9.5940   63.9950 O.3   313  NAP313     -0.2175
     33  C2D        1.6180   10.5720   64.4330 C.3   313  NAP313      0.2309
     34  O2D        1.2180   11.4800   63.4220 O.3   313  NAP313     -0.2158
     35  C1D        1.5930   11.2210   65.7810 C.3   313  NAP313      0.2263
     36  N1N        2.9310   11.7520   66.2080 N.pl3 313  NAP313     -0.2787
     37  C2N        3.3560   13.0540   65.8620 C.3   313  NAP313      0.1244
     38  C3N        4.6140   13.4750   66.2690 C.2   313  NAP313      0.0544
     39  C7N        5.0620   14.8800   65.8800 C.2   313  NAP313      0.2818
     40  O7N        6.1750   15.2180   66.2310 O.2   313  NAP313     -0.2670
     41  N7N        4.2760   15.6570   65.1900 N.am  313  NAP313     -0.0839
     42  C4N        5.5100   12.6020   67.0440 C.2   313  NAP313      0.0033
     43  C5N        5.0490   11.3020   67.3760 C.2   313  NAP313      0.0157
     44  C6N        3.7610   10.8500   66.9660 C.2   313  NAP313      0.0633
     45  P2B       -1.1910   -0.8700   68.3980 P.3   313  NAP313      0.5328
     46  O1X       -1.2670    0.5640   68.9590 O.3   313  NAP313     -0.1145
     47  O2X       -2.5320   -1.4440   68.0900 O.2   313  NAP313     -0.2224
     48  O3X       -0.2610   -1.7450   69.2220 O.3   313  NAP313     -0.1145
@<TRIPOS>BOND
     1     2     1    2
     2    34    33    1
     3     3     1    1
     4    32    31    1
     5     1    23    1
     6     1     4    1
     7    33    31    1
     8    33    35    1
     9    31    29    1
    10     7     6    1
    11     7    12    1
    12    23    24    1
    13     6     5    1
    14     6     8    1
    15    41    39   am
    16     9     8    1
    17    21    20    1
    18    21    22    2
    19    20    19    1
    20     5     4    1
    21    12    13    1
    22    12    10    1
    23    26    24    2
    24    35    36    1
    25    35    30    1
    26    37    36    1
    27    37    38    1
    28    39    40    2
    29    39    38    1
    30    19    17    2
    31    27    24    1
    32    27    28    1
    33    22    13    1
    34    22    16    1
    35    24    25    1
    36     8    10    1
    37    29    28    1
    38    29    30    1
    39    13    14    1
    40    36    44    1
    41    38    42    2
    42    17    16    1
    43    17    18    1
    44    10    11    1
    45    16    15    2
    46    14    15    1
    47    11    45    1
    48    44    43    2
    49    42    43    1
    50    47    45    2
    51    45    46    1
    52    45    48    1
