@<TRIPOS>MOLECULE
1pzf_A3D_A_1.pdb
 44 48 0 0 0
SMALL
GASTEIGER

@<TRIPOS>ATOM
      1  PA         3.0170   16.5890   85.6660 P.3   401  A3D401      0.2189
      2  O1A        2.1620   15.5320   86.0540 O.2   401  A3D401     -0.5170
      3  O2A        3.5380   17.5010   86.7300 O.3   401  A3D401     -0.4371
      4  O5B        4.2320   15.9220   84.9260 O.3   401  A3D401     -0.3112
      5  C5B        5.2890   16.6620   84.2800 C.3   401  A3D401      0.1813
      6  C4B        6.3470   15.5470   84.3980 C.3   401  A3D401      0.1821
      7  O4B        7.6160   15.9090   83.7120 O.3   401  A3D401     -0.3135
      8  C3B        6.8240   15.1680   85.8600 C.3   401  A3D401      0.2184
      9  O3B        6.7430   13.7540   86.0110 O.3   401  A3D401     -0.2174
     10  C2B        8.2490   15.7200   85.9420 C.3   401  A3D401      0.2570
     11  O2B        9.1130   14.9830   86.7820 O.3   401  A3D401     -0.2130
     12  C1B        8.7130   15.6070   84.5100 C.3   401  A3D401      0.3186
     13  N9A        9.8830   16.3990   84.2250 N.pl3 401  A3D401     -0.1439
     14  C8A       10.3550   17.6100   84.7030 C.3   401  A3D401      0.3377
     15  N7A       11.5070   17.9790   84.1610 N.2   401  A3D401     -0.2095
     16  C5A       11.7910   16.9380   83.2780 C.2   401  A3D401      0.2526
     17  C6A       12.8870   16.7540   82.4090 C.2   401  A3D401      0.4393
     18  N6A       13.9420   17.5830   82.2400 N.pl3 401  A3D401      0.2180
     19  N1A       12.8960   15.5800   81.6220 N.2   401  A3D401      0.0021
     20  C2A       11.8540   14.6410   81.7100 C.3   401  A3D401      0.5254
     21  N3A       10.7690   14.8030   82.5620 N.2   401  A3D401     -0.0055
     22  C4A       10.7860   15.9670   83.3220 C.2   401  A3D401      0.3518
     23  O3         2.2910   17.4470   84.5780 O.3   401  A3D401     -0.2703
     24  PN         1.2500   17.1100   83.4420 P.3   401  A3D401      0.2189
     25  O1N       -0.1240   17.1550   83.9420 O.3   401  A3D401     -0.4371
     26  O2N        1.6730   15.8240   82.8470 O.2   401  A3D401     -0.5170
     27  O5D        1.4720   18.3550   82.4810 O.3   401  A3D401     -0.3112
     28  C5D        2.7000   18.4060   81.6840 C.3   401  A3D401      0.1813
     29  C4D        2.7940   19.7180   80.9380 C.3   401  A3D401      0.1799
     30  O4D        1.7220   19.8910   79.9730 O.3   401  A3D401     -0.3327
     31  C3D        2.7720   21.0360   81.7980 C.3   401  A3D401      0.2158
     32  O3D        3.7940   21.9610   81.3470 O.3   401  A3D401     -0.2175
     33  C2D        1.3550   21.5340   81.5730 C.3   401  A3D401      0.2309
     34  O2D        1.1790   22.9170   81.8210 O.3   401  A3D401     -0.2158
     35  C1D        1.1690   21.2210   80.1670 C.3   401  A3D401      0.2263
     36  N1N       -0.2090   21.1710   79.6380 N.pl3 401  A3D401     -0.2787
     37  C2N       -0.5010   21.6930   78.3680 C.3   401  A3D401      0.1226
     38  C3N       -1.8050   21.6360   77.9080 C.2   401  A3D401      0.0324
     39  C7N       -2.1260   22.2150   76.5200 C.2   401  A3D401      0.1712
     40  O7N       -3.2760   22.1490   76.1720 O.2   401  A3D401     -0.2916
     41  C8N       -1.0600   22.8380   75.6410 C.3   401  A3D401      0.0770
     42  C4N       -2.8760   21.0420   78.7240 C.2   401  A3D401      0.0015
     43  C5N       -2.5320   20.5290   80.0090 C.2   401  A3D401      0.0157
     44  C6N       -1.2020   20.5810   80.4940 C.2   401  A3D401      0.0633
@<TRIPOS>BOND
     1    41    39    1
     2    40    39    2
     3    39    38    1
     4    38    37    1
     5    38    42    2
     6    37    36    1
     7    42    43    1
     8    36    35    1
     9    36    44    1
    10    30    35    1
    11    30    29    1
    12    43    44    2
    13    35    33    1
    14    29    28    1
    15    29    31    1
    16    32    31    1
    17    33    31    1
    18    33    34    1
    19    19    20    1
    20    19    17    2
    21    28    27    1
    22    20    21    1
    23    18    17    1
    24    17    16    1
    25    27    24    1
    26    21    22    2
    27    26    24    2
    28    16    22    1
    29    16    15    2
    30    22    13    1
    31    24    25    1
    32    24    23    1
    33     7     6    1
    34     7    12    1
    35    15    14    1
    36    13    12    1
    37    13    14    1
    38     5     6    1
    39     5     4    1
    40     6     8    1
    41    12    10    1
    42    23     1    1
    43     4     1    1
    44     1     2    2
    45     1     3    1
    46     8    10    1
    47     8     9    1
    48    10    11    1
