@<TRIPOS>MOLECULE
1pzg_A3D_A_1.pdb
 44 48 0 0 0
SMALL
GASTEIGER

@<TRIPOS>ATOM
      1  PA         3.3590   16.4870   85.5690 P.3   601  A3D601      0.2189
      2  O1A        2.4830   15.4530   86.0130 O.2   601  A3D601     -0.5170
      3  O2A        3.9480   17.4240   86.6260 O.3   601  A3D601     -0.4371
      4  O5B        4.5540   15.7880   84.8130 O.3   601  A3D601     -0.3112
      5  C5B        5.5800   16.5670   84.1660 C.3   601  A3D601      0.1813
      6  C4B        6.6900   15.5190   84.2860 C.3   601  A3D601      0.1821
      7  O4B        7.9360   15.9510   83.6120 O.3   601  A3D601     -0.3135
      8  C3B        7.1780   15.0930   85.7380 C.3   601  A3D601      0.2184
      9  O3B        7.0900   13.6750   85.8850 O.3   601  A3D601     -0.2174
     10  C2B        8.5990   15.6510   85.8230 C.3   601  A3D601      0.2570
     11  O2B        9.4990   14.8990   86.6400 O.3   601  A3D601     -0.2130
     12  C1B        9.0400   15.5920   84.3820 C.3   601  A3D601      0.3186
     13  N9A       10.2050   16.3800   84.1330 N.pl3 601  A3D601     -0.1439
     14  C8A       10.6550   17.5560   84.6800 C.3   601  A3D601      0.3377
     15  N7A       11.8220   17.9380   84.2210 N.2   601  A3D601     -0.2095
     16  C5A       12.1480   16.9540   83.3180 C.2   601  A3D601      0.2526
     17  C6A       13.2790   16.8160   82.5160 C.2   601  A3D601      0.4393
     18  N6A       14.3460   17.6530   82.4600 N.pl3 601  A3D601      0.2180
     19  N1A       13.3290   15.6920   81.6780 N.2   601  A3D601      0.0021
     20  C2A       12.2890   14.7460   81.6500 C.3   601  A3D601      0.5254
     21  N3A       11.1580   14.8600   82.4460 N.2   601  A3D601     -0.0055
     22  C4A       11.1360   15.9820   83.2580 C.2   601  A3D601      0.3518
     23  O3         2.6760   17.3700   84.4650 O.3   601  A3D601     -0.2703
     24  PN         1.5820   17.0930   83.3480 P.3   601  A3D601      0.2189
     25  O1N        0.2200   17.1680   83.9680 O.3   601  A3D601     -0.4371
     26  O2N        1.9630   15.8110   82.7020 O.2   601  A3D601     -0.5170
     27  O5D        1.7750   18.3550   82.4150 O.3   601  A3D601     -0.3112
     28  C5D        2.9890   18.3710   81.5790 C.3   601  A3D601      0.1813
     29  C4D        3.1130   19.6800   80.8420 C.3   601  A3D601      0.1799
     30  O4D        2.0420   19.8590   79.8990 O.3   601  A3D601     -0.3327
     31  C3D        3.1180   20.9940   81.7180 C.3   601  A3D601      0.2158
     32  O3D        4.1350   21.9070   81.2510 O.3   601  A3D601     -0.2175
     33  C2D        1.7110   21.5130   81.5090 C.3   601  A3D601      0.2309
     34  O2D        1.5970   22.9090   81.7260 O.3   601  A3D601     -0.2158
     35  C1D        1.4960   21.1810   80.0980 C.3   601  A3D601      0.2263
     36  N1N        0.1110   21.1280   79.5870 N.pl3 601  A3D601     -0.2787
     37  C2N       -0.1790   21.6880   78.3480 C.3   601  A3D601      0.1226
     38  C3N       -1.4770   21.6430   77.8790 C.2   601  A3D601      0.0324
     39  C7N       -1.7690   22.2620   76.5280 C.2   601  A3D601      0.1712
     40  O7N       -2.9210   22.2010   76.1360 O.2   601  A3D601     -0.2916
     41  C8N       -0.6660   22.9140   75.7260 C.3   601  A3D601      0.0770
     42  C4N       -2.5420   21.0160   78.6570 C.2   601  A3D601      0.0015
     43  C5N       -2.2050   20.4600   79.9200 C.2   601  A3D601      0.0157
     44  C6N       -0.8700   20.5010   80.4180 C.2   601  A3D601      0.0633
@<TRIPOS>BOND
     1    41    39    1
     2    40    39    2
     3    39    38    1
     4    38    37    1
     5    38    42    2
     6    37    36    1
     7    42    43    1
     8    36    35    1
     9    36    44    1
    10    30    35    1
    11    30    29    1
    12    43    44    2
    13    35    33    1
    14    29    28    1
    15    29    31    1
    16    32    31    1
    17    33    31    1
    18    33    34    1
    19    28    27    1
    20    20    19    1
    21    20    21    1
    22    19    17    2
    23    27    24    1
    24    21    22    2
    25    18    17    1
    26    17    16    1
    27    26    24    2
    28    22    16    1
    29    22    13    1
    30    16    15    2
    31    24    25    1
    32    24    23    1
    33     7     6    1
    34     7    12    1
    35    13    12    1
    36    13    14    1
    37     5     6    1
    38     5     4    1
    39    15    14    1
    40     6     8    1
    41    12    10    1
    42    23     1    1
    43     4     1    1
    44     1     2    2
    45     1     3    1
    46     8    10    1
    47     8     9    1
    48    10    11    1
