@<TRIPOS>MOLECULE
1pzh_NAD_A_1.pdb
 44 48 0 0 0
SMALL
GASTEIGER

@<TRIPOS>ATOM
      1  PA         3.0940   16.4910   85.7150 P.3   701  NAD701      0.2189
      2  O1A        2.2230   15.4490   86.1320 O.2   701  NAD701     -0.5170
      3  O2A        3.6410   17.3960   86.7820 O.3   701  NAD701     -0.4371
      4  O5B        4.2910   15.8380   84.9640 O.3   701  NAD701     -0.3112
      5  C5B        5.3390   16.6320   84.3700 C.3   701  NAD701      0.1813
      6  C4B        6.4320   15.5470   84.4460 C.3   701  NAD701      0.1821
      7  O4B        7.6800   16.0030   83.7910 O.3   701  NAD701     -0.3135
      8  C3B        6.9410   15.0690   85.8850 C.3   701  NAD701      0.2184
      9  O3B        6.9000   13.6340   86.0080 O.3   701  NAD701     -0.2174
     10  C2B        8.3400   15.6480   85.9780 C.3   701  NAD701      0.2570
     11  O2B        9.2640   14.8960   86.7740 O.3   701  NAD701     -0.2130
     12  C1B        8.7730   15.6180   84.5460 C.3   701  NAD701      0.3186
     13  N9A        9.9400   16.3940   84.3190 N.pl3 701  NAD701     -0.1439
     14  C8A       10.3540   17.5990   84.8430 C.3   701  NAD701      0.3377
     15  N7A       11.5250   17.9930   84.3850 N.2   701  NAD701     -0.2095
     16  C5A       11.8850   16.9890   83.5150 C.2   701  NAD701      0.2526
     17  C6A       13.0380   16.8720   82.7460 C.2   701  NAD701      0.4393
     18  N6A       14.0750   17.7570   82.7130 N.pl3 701  NAD701      0.2180
     19  N1A       13.1520   15.7340   81.9290 N.2   701  NAD701      0.0021
     20  C2A       12.1300   14.7540   81.9040 C.3   701  NAD701      0.5254
     21  N3A       10.9750   14.8490   82.6740 N.2   701  NAD701     -0.0055
     22  C4A       10.9030   15.9940   83.4630 C.2   701  NAD701      0.3518
     23  O3         2.4320   17.3680   84.5880 O.3   701  NAD701     -0.2703
     24  PN         1.3400   17.0860   83.4660 P.3   701  NAD701      0.2189
     25  O1N       -0.0040   17.1140   84.0990 O.3   701  NAD701     -0.4371
     26  O2N        1.7070   15.8180   82.8030 O.2   701  NAD701     -0.5170
     27  O5D        1.5450   18.3570   82.5530 O.3   701  NAD701     -0.3112
     28  C5D        2.7940   18.4010   81.7540 C.3   701  NAD701      0.1813
     29  C4D        2.9170   19.7270   81.0050 C.3   701  NAD701      0.1799
     30  O4D        1.8430   19.9140   80.0550 O.3   701  NAD701     -0.3327
     31  C3D        2.8980   21.0470   81.8800 C.3   701  NAD701      0.2158
     32  O3D        3.8930   21.9980   81.3910 O.3   701  NAD701     -0.2175
     33  C2D        1.4660   21.5060   81.6950 C.3   701  NAD701      0.2309
     34  O2D        1.2860   22.8810   82.0050 O.3   701  NAD701     -0.2158
     35  C1D        1.2890   21.2330   80.2710 C.3   701  NAD701      0.2263
     36  N1N       -0.0820   21.1760   79.7080 N.pl3 701  NAD701     -0.2787
     37  C2N       -0.3020   21.5870   78.3980 C.3   701  NAD701      0.1244
     38  C3N       -1.5760   21.5350   77.8990 C.2   701  NAD701      0.0544
     39  C7N       -1.7880   21.9970   76.4590 C.2   701  NAD701      0.2818
     40  O7N       -2.9380   22.0070   76.0430 O.2   701  NAD701     -0.2670
     41  N7N       -0.7550   22.3800   75.7160 N.am  701  NAD701     -0.0839
     42  C4N       -2.6930   21.0650   78.7090 C.2   701  NAD701      0.0033
     43  C5N       -2.4170   20.6440   80.0360 C.2   701  NAD701      0.0157
     44  C6N       -1.1130   20.6900   80.5670 C.2   701  NAD701      0.0633
@<TRIPOS>BOND
     1    41    39   am
     2    40    39    2
     3    39    38    1
     4    38    37    1
     5    38    42    2
     6    37    36    1
     7    42    43    1
     8    36    35    1
     9    36    44    1
    10    43    44    2
    11    30    35    1
    12    30    29    1
    13    35    33    1
    14    29    28    1
    15    29    31    1
    16    32    31    1
    17    33    31    1
    18    33    34    1
    19    28    27    1
    20    20    19    1
    21    20    21    1
    22    19    17    2
    23    27    24    1
    24    21    22    2
    25    18    17    1
    26    17    16    1
    27    26    24    2
    28    22    16    1
    29    22    13    1
    30    24    25    1
    31    24    23    1
    32    16    15    2
    33     7     6    1
    34     7    12    1
    35    13    12    1
    36    13    14    1
    37     5     6    1
    38     5     4    1
    39    15    14    1
    40     6     8    1
    41    12    10    1
    42    23     1    1
    43     4     1    1
    44     1     2    2
    45     1     3    1
    46     8    10    1
    47     8     9    1
    48    10    11    1
