@<TRIPOS>MOLECULE
1pzi_1DM_D_1.pdb
 23 24 0 0 0
SMALL
GASTEIGER

@<TRIPOS>ATOM
      1  C13       53.1120   23.4760   33.0890 C.2   104  1DM104      0.2343
      2  O17       53.6590   24.0000   34.0510 O.2   104  1DM104     -0.2831
      3  C11       52.7570   21.9970   33.1180 C.ar  104  1DM104      0.0469
      4  C12       53.0540   21.1930   34.2190 C.ar  104  1DM104      0.0404
      5  C10       52.1330   21.4610   32.0080 C.ar  104  1DM104      0.0276
      6  C9        51.7910   20.1200   31.9920 C.ar  104  1DM104      0.1460
      7  N14       51.1680   19.6300   30.9150 N.pl3 104  1DM104      0.0578
      8  O15       51.0000   20.3680   29.9400 O.2   104  1DM104     -0.1261
      9  O16       50.7550   18.4660   30.9130 O.2   104  1DM104     -0.1261
     10  C8        52.0840   19.3170   33.0890 C.ar  104  1DM104      0.0610
     11  C7        52.7110   19.8410   34.2130 C.ar  104  1DM104      0.1432
     12  O1        52.9960   19.0290   35.2800 O.3   104  1DM104     -0.4504
     13  C1        51.9690   18.9770   36.2850 C.3   104  1DM104      0.3218
     14  O5        50.7470   18.3950   35.7900 O.3   104  1DM104     -0.3157
     15  C5        50.9300   17.0310   35.3950 C.3   104  1DM104      0.1846
     16  C6        49.6080   16.5440   34.8000 C.3   104  1DM104      0.2142
     17  O6        49.2670   17.3850   33.6810 O.3   104  1DM104     -0.2176
     18  C4        51.4010   16.1700   36.5670 C.3   104  1DM104      0.2145
     19  O4        50.3980   16.1370   37.6040 O.3   104  1DM104     -0.2176
     20  C3        52.6980   16.7200   37.1430 C.3   104  1DM104      0.2211
     21  O3        53.0470   15.9880   38.3240 O.3   104  1DM104     -0.2173
     22  C2        52.5070   18.1990   37.4940 C.3   104  1DM104      0.2542
     23  O2        53.7630   18.7340   37.8440 O.3   104  1DM104     -0.2135
@<TRIPOS>BOND
     1     8     7    2
     2     9     7    2
     3     7     6    1
     4     6     5   ar
     5     6    10   ar
     6     5     3   ar
     7    10    11   ar
     8     1     3    1
     9     1     2    2
    10     3     4   ar
    11    17    16    1
    12    11     4   ar
    13    11    12    1
    14    16    15    1
    15    12    13    1
    16    15    14    1
    17    15    18    1
    18    14    13    1
    19    13    22    1
    20    18    20    1
    21    18    19    1
    22    20    22    1
    23    20    21    1
    24    22    23    1
