@<TRIPOS>MOLECULE
1pzj_J15_E_1.pdb
 37 39 0 0 0
SMALL
GASTEIGER

@<TRIPOS>ATOM
      1  C1       -18.6770   48.3390   -1.5180 C.3   105  J15105      0.3218
      2  O1       -19.0170   49.6640   -1.2550 O.3   105  J15105     -0.4504
      3  C7       -18.0210   50.6070   -1.4600 C.ar  105  J15105      0.1432
      4  C8       -17.1260   50.8960   -0.4420 C.ar  105  J15105      0.0610
      5  C9       -16.1300   51.8460   -0.5880 C.ar  105  J15105      0.1460
      6  N14      -15.2480   52.0400    0.4820 N.pl3 105  J15105      0.0578
      7  O15      -15.3170   51.3610    1.5470 O.2   105  J15105     -0.1261
      8  O16      -14.3810   52.8870    0.2940 O.2   105  J15105     -0.1261
      9  C10      -16.0010   52.5260   -1.7940 C.ar  105  J15105      0.0288
     10  C11      -16.9060   52.2570   -2.8350 C.ar  105  J15105      0.0597
     11  C12      -17.9080   51.2960   -2.6560 C.ar  105  J15105      0.0417
     12  C13      -16.8950   52.8900   -4.1040 C.2   105  J15105      0.2649
     13  N18      -16.0560   53.8460   -4.5270 N.am  105  J15105     -0.2016
     14  C19      -15.0170   54.5060   -3.7470 C.3   105  J15105      0.1169
     15  C20      -14.5800   55.8030   -4.4350 C.3   105  J15105      0.0408
     16  C21      -15.3200   57.0060   -3.8770 C.3   105  J15105      0.0740
     17  N22      -15.5300   56.9960   -2.6260 N.3   105  J15105     -0.2703
     18  C23      -16.4570   58.0350   -2.2080 C.3   105  J15105      0.0897
     19  C24      -16.8580   57.7820   -0.7560 C.3   105  J15105      0.0897
     20  N25      -15.7300   57.6960    0.1770 N.3   105  J15105     -0.2703
     21  C28      -15.4450   58.7610    0.8160 C.3   105  J15105      0.0737
     22  C35      -14.8600   58.4700    1.9950 C.3   105  J15105      0.0378
     23  C36      -13.8020   59.4870    2.3850 C.3   105  J15105      0.1107
     24  N37      -12.7550   59.5990    1.3800 N.3   105  J15105     -0.1313
     25  C26      -14.5500   56.9760   -0.3380 C.3   105  J15105      0.0897
     26  C27      -14.3200   57.1380   -1.8380 C.3   105  J15105      0.0897
     27  O17      -17.7740   52.5290   -4.8650 O.2   105  J15105     -0.2684
     28  C2       -19.8700   47.4180   -1.5560 C.3   105  J15105      0.2542
     29  O2       -20.9800   47.9830   -2.2300 O.3   105  J15105     -0.2135
     30  C3       -20.2270   47.1540   -0.0900 C.3   105  J15105      0.2211
     31  O3       -21.2390   46.1590    0.0430 O.3   105  J15105     -0.2173
     32  C4       -18.9960   46.7360    0.7120 C.3   105  J15105      0.2145
     33  O4       -18.6000   45.4110    0.3170 O.3   105  J15105     -0.2176
     34  C5       -17.8600   47.7280    0.4890 C.3   105  J15105      0.1846
     35  C6       -16.6080   47.2620    1.1990 C.3   105  J15105      0.2142
     36  O6       -15.6100   48.2500    1.0890 O.3   105  J15105     -0.2176
     37  O5       -17.5290   47.8220   -0.8900 O.3   105  J15105     -0.3157
@<TRIPOS>BOND
     1    27    12    2
     2    13    12   am
     3    13    14    1
     4    15    16    1
     5    15    14    1
     6    12    10    1
     7    16    17    1
     8    10    11   ar
     9    10     9   ar
    10    11     3   ar
    11    17    18    1
    12    17    26    1
    13    29    28    1
    14    18    19    1
    15    26    25    1
    16     9     5   ar
    17    28     1    1
    18    28    30    1
    19     1     2    1
    20     1    37    1
    21     3     2    1
    22     3     4   ar
    23    37    34    1
    24    19    20    1
    25     5     4   ar
    26     5     6    1
    27    25    20    1
    28    30    31    1
    29    30    32    1
    30    20    21    1
    31     8     6    2
    32    33    32    1
    33     6     7    2
    34    34    32    1
    35    34    35    1
    36    21    22    1
    37    36    35    1
    38    24    23    1
    39    22    23    1
