@<TRIPOS>MOLECULE
1pzj_15B_D_1.pdb
 37 39 0 0 0
SMALL
GASTEIGER

@<TRIPOS>ATOM
      1  C1       -10.9760   19.6570    1.9860 C.3   104  15B104      0.3218
      2  O1       -10.4630   19.4050    0.7320 O.3   104  15B104     -0.4504
      3  C7       -10.9520   20.2910   -0.2710 C.ar  104  15B104      0.1432
      4  C8       -10.6500   19.9520   -1.5700 C.ar  104  15B104      0.0610
      5  C9       -11.1150   20.7800   -2.5730 C.ar  104  15B104      0.1460
      6  N14      -10.8150   20.4610   -3.8340 N.pl3 104  15B104      0.0578
      7  O15      -11.2060   21.1640   -4.7400 O.2   104  15B104     -0.1261
      8  O16      -10.1370   19.4710   -4.0820 O.2   104  15B104     -0.1261
      9  C10      -11.8880   21.9110   -2.2760 C.ar  104  15B104      0.0288
     10  C11      -12.2010   22.2330   -0.9470 C.ar  104  15B104      0.0597
     11  C12      -11.7250   21.4040    0.0650 C.ar  104  15B104      0.0417
     12  C13      -12.9540   23.3550   -0.5700 C.2   104  15B104      0.2649
     13  N18      -12.9790   24.3220   -1.3500 N.am  104  15B104     -0.2016
     14  C19      -13.7200   25.5440   -1.1160 C.3   104  15B104      0.1169
     15  C20      -14.8290   25.4360   -2.1560 C.3   104  15B104      0.0408
     16  C21      -16.2040   25.1670   -1.5850 C.3   104  15B104      0.0740
     17  N22      -17.1010   25.8600   -2.1590 N.3   104  15B104     -0.2703
     18  C23      -16.6480   27.2360   -2.3500 C.3   104  15B104      0.0897
     19  C24      -17.7300   28.0990   -2.9730 C.3   104  15B104      0.0897
     20  N25      -18.8690   28.1620   -2.0810 N.3   104  15B104     -0.2703
     21  C28      -19.6530   29.0580   -2.3660 C.3   104  15B104      0.0737
     22  C35      -19.4070   30.1630   -1.7890 C.3   104  15B104      0.0378
     23  C36      -18.7040   31.2090   -2.6420 C.3   104  15B104      0.1107
     24  N37      -19.1070   32.5640   -2.2970 N.3   104  15B104     -0.1313
     25  C26      -19.4290   26.8090   -2.0160 C.3   104  15B104      0.0897
     26  C27      -18.3840   25.8290   -1.4570 C.3   104  15B104      0.0897
     27  O17      -13.5190   23.4470    0.5270 O.2   104  15B104     -0.2684
     28  C2       -10.6960   18.4020    2.7780 C.3   104  15B104      0.2542
     29  O2       -11.4640   17.3440    2.2180 O.3   104  15B104     -0.2135
     30  C3       -11.0570   18.6920    4.2280 C.3   104  15B104      0.2211
     31  O3       -10.7090   17.5600    5.0010 O.3   104  15B104     -0.2173
     32  C4       -10.3460   19.9500    4.7380 C.3   104  15B104      0.2145
     33  O4        -8.9530   19.6760    4.8630 O.3   104  15B104     -0.2176
     34  C5       -10.6330   21.1250    3.8190 C.3   104  15B104      0.1846
     35  C6        -9.8630   22.3850    4.1990 C.3   104  15B104      0.2142
     36  O6       -10.2800   23.4870    3.3870 O.3   104  15B104     -0.2176
     37  O5       -10.2610   20.7680    2.4880 O.3   104  15B104     -0.3157
@<TRIPOS>BOND
     1     7     6    2
     2     8     6    2
     3     6     5    1
     4    19    18    1
     5    19    20    1
     6    23    24    1
     7    23    22    1
     8     5     9   ar
     9     5     4   ar
    10    21    20    1
    11    21    22    1
    12    18    17    1
    13     9    10   ar
    14    17    16    1
    15    17    26    1
    16    15    16    1
    17    15    14    1
    18    20    25    1
    19    25    26    1
    20     4     3   ar
    21    13    14    1
    22    13    12   am
    23    10    12    1
    24    10    11   ar
    25    12    27    2
    26     3    11   ar
    27     3     2    1
    28     2     1    1
    29     1    37    1
    30     1    28    1
    31    29    28    1
    32    37    34    1
    33    28    30    1
    34    36    35    1
    35    34    35    1
    36    34    32    1
    37    30    32    1
    38    30    31    1
    39    32    33    1
