@<TRIPOS>MOLECULE
1pzk_J12_D_1.pdb
 21 22 0 0 0
SMALL
GASTEIGER

@<TRIPOS>ATOM
      1  C1       -10.9690   19.9130    2.0260 C.3   105  J12105      0.3218
      2  O1       -12.2980   20.1460    1.5950 O.3   105  J12105     -0.4505
      3  C7       -12.7000   21.0450    0.6300 C.ar  105  J12105      0.1415
      4  C8       -11.8240   21.7090   -0.2170 C.ar  105  J12105      0.0370
      5  C9       -12.3420   22.5940   -1.1610 C.ar  105  J12105      0.0033
      6  C10      -13.7180   22.8150   -1.2460 C.ar  105  J12105      0.0048
      7  C11      -14.6020   22.1400   -0.4020 C.ar  105  J12105      0.0597
      8  C12      -14.0660   21.2720    0.5370 C.ar  105  J12105      0.0416
      9  C13      -16.0110   22.3480   -0.4450 C.2   105  J12105      0.2843
     10  O17      -16.4100   23.5370   -0.8710 O.2   105  J12105     -0.2667
     11  N18      -16.8380   21.5070   -0.0600 N.am  105  J12105     -0.0837
     12  C2       -10.7790   18.6060    2.8030 C.3   105  J12105      0.2542
     13  O2       -11.5090   17.5110    2.2380 O.3   105  J12105     -0.2135
     14  C3       -11.1790   18.8940    4.2490 C.3   105  J12105      0.2211
     15  O3       -10.8550   17.7900    5.0920 O.3   105  J12105     -0.2173
     16  C4       -10.4410   20.1390    4.7570 C.3   105  J12105      0.2145
     17  O4        -9.0450   19.8390    4.9190 O.3   105  J12105     -0.2176
     18  C5       -10.6330   21.2890    3.7810 C.3   105  J12105      0.1846
     19  C6        -9.8960   22.5260    4.2380 C.3   105  J12105      0.2142
     20  O6       -10.2010   23.6050    3.3500 O.3   105  J12105     -0.2176
     21  O5       -10.1470   20.9830    2.4620 O.3   105  J12105     -0.3157
@<TRIPOS>BOND
     1     6     5   ar
     2     6     7   ar
     3     5     4   ar
     4    10     9    2
     5     9     7    1
     6     9    11   am
     7     7     8   ar
     8     4     3   ar
     9     8     3   ar
    10     3     2    1
    11     2     1    1
    12     1    21    1
    13     1    12    1
    14    13    12    1
    15    21    18    1
    16    12    14    1
    17    20    19    1
    18    18    19    1
    19    18    16    1
    20    14    16    1
    21    14    15    1
    22    16    17    1
