@<TRIPOS>MOLECULE
1pzm_5GP_A_1.pdb
 24 26 0 0 0
SMALL
GASTEIGER

@<TRIPOS>ATOM
      1  P         -2.5640   55.6140   38.9990 P.3   301  5GP301      0.5327
      2  O1P       -1.9880   56.0620   37.7010 O.2   301  5GP301     -0.2224
      3  O2P       -3.4880   56.6170   39.5920 O.3   301  5GP301     -0.1145
      4  O3P       -1.4070   55.4940   39.9200 O.3   301  5GP301     -0.1145
      5  O5'       -3.2840   54.1960   38.7870 O.3   301  5GP301     -0.2675
      6  C5'       -3.8220   53.4250   39.8700 C.3   301  5GP301      0.1859
      7  C4'       -4.1110   51.9470   39.4690 C.3   301  5GP301      0.1801
      8  O4'       -5.3630   51.7680   38.7900 O.3   301  5GP301     -0.3326
      9  C3'       -3.0680   51.3040   38.5600 C.3   301  5GP301      0.2158
     10  O3'       -2.8260   49.9410   38.9190 O.3   301  5GP301     -0.2175
     11  C2'       -3.7450   51.3900   37.2010 C.3   301  5GP301      0.2310
     12  O2'       -3.1900   50.4540   36.3220 O.3   301  5GP301     -0.2158
     13  C1'       -5.2370   51.1850   37.5050 C.3   301  5GP301      0.2293
     14  N9        -6.1330   51.9290   36.5700 N.pl3 301  5GP301     -0.2354
     15  C8        -6.3220   53.3140   36.3960 C.3   301  5GP301      0.2246
     16  N7        -7.3630   53.5300   35.4780 N.2   301  5GP301     -0.2322
     17  C5        -7.9450   52.2900   35.3290 C.2   301  5GP301      0.2182
     18  C6        -9.0150   51.8580   34.5350 C.1   301  5GP301      0.2372
     19  O6        -9.6190   52.6640   33.7610 O.2   301  5GP301     -0.2069
     20  N1        -9.3980   50.5180   34.5720 N.2   301  5GP301     -0.2485
     21  C2        -8.7260   49.6280   35.4120 C.1   301  5GP301      0.2531
     22  N2        -9.0840   48.3490   35.4980 N.pl3 301  5GP301     -0.0226
     23  N3        -7.6710   50.0480   36.1720 N.2   301  5GP301     -0.3074
     24  C4        -7.2970   51.3790   36.1240 C.2   301  5GP301      0.2300
@<TRIPOS>BOND
     1    19    18    2
     2    18    20    2
     3    18    17    1
     4    20    21    2
     5    17    16    2
     6    17    24    1
     7    21    22    1
     8    21    23    2
     9    16    15    1
    10    24    23    2
    11    24    14    1
    12    12    11    1
    13    15    14    1
    14    14    13    1
    15    11    13    1
    16    11     9    1
    17    13     8    1
    18     2     1    2
    19     9    10    1
    20     9     7    1
    21     5     1    1
    22     5     6    1
    23     8     7    1
    24     1     3    1
    25     1     4    1
    26     7     6    1
