@<TRIPOS>MOLECULE
1pzo_CBT_A_1.pdb
 22 24 0 0 0
SMALL
GASTEIGER

@<TRIPOS>ATOM
      1 CL3         9.1350    8.4530   25.2140 Cl    300  CBT300     -0.0822
      2  C29        8.8000    9.4700   26.2660 C.ar  300  CBT300      0.0577
      3  C28        9.6450    9.6520   27.3900 C.ar  300  CBT300      0.0111
      4  C26        9.3940   10.7350   28.2740 C.ar  300  CBT300     -0.0017
      5  C27        7.6900   10.3120   26.0430 C.ar  300  CBT300      0.0111
      6  C25        7.4660   11.3690   26.9360 C.ar  300  CBT300     -0.0017
      7  C22        8.2870   11.5950   28.0490 C.ar  300  CBT300     -0.0017
      8  C17        7.8910   12.6850   29.0640 C.3   300  CBT300      0.1281
      9  N13        9.0410   13.1520   29.8690 N.pl3 300  CBT300     -0.2415
     10  C16        9.3430   12.5810   31.0400 C.1   300  CBT300      0.1370
     11  N18       10.2850   13.0250   31.8840 N.2   300  CBT300     -0.0567
     12  N20       10.1760   12.2960   33.0710 N.2   300  CBT300     -0.0117
     13  N21        9.1100   11.3920   32.9230 N.2   300  CBT300     -0.0117
     14  N19        8.6300   11.6160   31.6310 N.2   300  CBT300     -0.0567
     15  C1         9.8450   14.2850   29.3500 C.3   300  CBT300      0.1281
     16  C2         9.0720   15.6100   29.3930 C.ar  300  CBT300     -0.0017
     17  C3         8.0720   15.8560   30.3550 C.ar  300  CBT300     -0.0017
     18  C5         7.4740   17.1340   30.4050 C.ar  300  CBT300      0.0111
     19  C7         7.8170   18.1780   29.5270 C.ar  300  CBT300      0.0577
     20 CL8         7.1960   19.5650   29.6790 Cl    300  CBT300     -0.0822
     21  C6         8.7760   17.9170   28.5480 C.ar  300  CBT300      0.0111
     22  C4         9.3960   16.6410   28.4970 C.ar  300  CBT300     -0.0017
@<TRIPOS>BOND
     1     1     2    1
     2     5     2   ar
     3     5     6   ar
     4     2     3   ar
     5     6     7   ar
     6     3     4   ar
     7     7     4   ar
     8     7     8    1
     9    22    21   ar
    10    22    16   ar
    11    21    19   ar
    12     8     9    1
    13    15    16    1
    14    15     9    1
    15    16    17   ar
    16    19    20    1
    17    19    18   ar
    18     9    10    1
    19    17    18   ar
    20    10    14    2
    21    10    11    2
    22    14    13    1
    23    11    12    1
    24    13    12    2
