@<TRIPOS>MOLECULE
1pzp_FTA_A_1.pdb
 23 25 0 0 0
SMALL
GASTEIGER

@<TRIPOS>ATOM
      1  N8         1.4740   11.1940   20.3890 N.pl3 300  FTA300     -0.2125
      2  C24        2.2840   10.2420   21.0790 C.ar  300  FTA300      0.0705
      3  C26        3.6520   10.2270   20.9430 C.ar  300  FTA300      0.0165
      4  C28        4.3610    9.1780   21.4970 C.ar  300  FTA300      0.0013
      5  C30        3.7480    8.1610   22.2090 C.ar  300  FTA300      0.0001
      6  C29        2.3900    8.1850   22.3840 C.ar  300  FTA300      0.0013
      7  C27        1.6690    9.2440   21.8210 C.ar  300  FTA300      0.0165
      8  C7         1.9590   12.2360   19.5580 C.ar  300  FTA300      0.0706
      9  C6         1.3260   12.6180   18.3780 C.ar  300  FTA300      0.0178
     10  C4         1.6910   13.7760   17.6780 C.ar  300  FTA300      0.0174
     11  C5         2.9970   13.0220   20.0260 C.ar  300  FTA300      0.0178
     12  C3         3.3650   14.1810   19.3540 C.ar  300  FTA300      0.0174
     13  C2         2.7210   14.5700   18.1760 C.ar  300  FTA300      0.0655
     14  N1         2.9960   15.8650   17.6580 N.pl3 300  FTA300     -0.2354
     15  C17        4.2140   16.3070   17.2900 C.3   300  FTA300      0.1425
     16  C14        4.3000   17.3120   16.3960 C.3   300  FTA300      0.2008
     17  C18        5.0840   18.4900   16.6990 C.1   300  FTA300      0.0893
     18  N21        5.7030   19.4010   17.1010 N.1   300  FTA300     -0.1948
     19  C13        3.5990   17.1930   15.0970 C.1   300  FTA300      0.0727
     20  N15        4.0740   17.6320   13.8630 N.2   300  FTA300     -0.0745
     21  N19        3.0900   17.3690   12.9190 N.2   300  FTA300     -0.0132
     22  N20        2.0050   16.7740   13.5460 N.2   300  FTA300     -0.0132
     23  N16        2.3230   16.6540   14.8950 N.2   300  FTA300     -0.0745
@<TRIPOS>BOND
     1    21    22    2
     2    21    20    1
     3    22    23    1
     4    20    19    2
     5    23    19    2
     6    19    16    1
     7    16    17    1
     8    16    15    1
     9    17    18    3
    10    15    14    1
    11    14    13    1
    12    10    13   ar
    13    10     9   ar
    14    13    12   ar
    15     9     8   ar
    16    12    11   ar
    17     8    11   ar
    18     8     1    1
    19     1     2    1
    20     3     2   ar
    21     3     4   ar
    22     2     7   ar
    23     4     5   ar
    24     7     6   ar
    25     5     6   ar
