@<TRIPOS>MOLECULE
1pzy_NAG_B_1.pdb
 15 15 0 0 0
SMALL
GASTEIGER

@<TRIPOS>ATOM
      1  C1        -0.9400   -2.1620   15.0180 C.3   405  NAG405      0.2917
      2  C2        -1.6690   -1.1230   15.8940 C.3   405  NAG405      0.1871
      3  C3        -0.6970   -0.4530   16.8620 C.3   405  NAG405      0.2095
      4  C4         0.0270   -1.5300   17.6760 C.3   405  NAG405      0.2136
      5  C5         0.7370   -2.4960   16.7240 C.3   405  NAG405      0.1835
      6  C6         1.4690   -3.6080   17.4600 C.3   405  NAG405      0.2142
      7  C7        -3.6270   -0.0270   14.9970 C.2   405  NAG405      0.2421
      8  C8        -4.2000    1.1240   14.1780 C.3   405  NAG405      0.0964
      9  N2        -2.2990   -0.1190   15.0550 N.am  405  NAG405     -0.1991
     10  O1        -1.8750   -2.8540   14.2570 O.3   405  NAG405     -0.1879
     11  O3        -1.4230    0.4060   17.7310 O.3   405  NAG405     -0.2183
     12  O4         0.9680   -0.9350   18.5540 O.3   405  NAG405     -0.2176
     13  O5        -0.2290   -3.1180   15.8340 O.3   405  NAG405     -0.3242
     14  O6         0.5710   -4.4380   18.1900 O.3   405  NAG405     -0.2176
     15  O7        -4.3860   -0.8160   15.5700 O.2   405  NAG405     -0.2733
@<TRIPOS>BOND
     1     8     7    1
     2    10     1    1
     3     7     9   am
     4     7    15    2
     5     1    13    1
     6     1     2    1
     7     9     2    1
     8    13     5    1
     9     2     3    1
    10     5     6    1
    11     5     4    1
    12     3     4    1
    13     3    11    1
    14     6    14    1
    15     4    12    1
