@<TRIPOS>MOLECULE
1pzy_UDP_B_1.pdb
 25 26 0 0 0
SMALL
GASTEIGER

@<TRIPOS>ATOM
      1  N1        -1.1310   -0.4390   30.4220 N.am  407  UDP407     -0.1766
      2  C2        -1.3580   -0.5550   31.8020 C.1   407  UDP407      0.2845
      3  N3        -2.6070   -1.0320   32.1760 N.2   407  UDP407     -0.2452
      4  C4        -3.6650   -1.4080   31.3140 C.1   407  UDP407      0.2182
      5  C5        -3.3820   -1.2720   29.9060 C.2   407  UDP407      0.1242
      6  C6        -2.1670   -0.8090   29.5170 C.2   407  UDP407      0.0929
      7  O2        -0.5090   -0.2540   32.6490 O.2   407  UDP407     -0.1918
      8  O4        -4.7110   -1.8070   31.8240 O.2   407  UDP407     -0.2085
      9  C1'        0.1990    0.0760   29.9270 C.3   407  UDP407      0.2401
     10  C2'        1.4070   -0.8590   30.1190 C.3   407  UDP407      0.2319
     11  O2'        2.5910   -0.1040   30.3220 O.3   407  UDP407     -0.2157
     12  C3'        1.3940   -1.6480   28.8030 C.3   407  UDP407      0.2158
     13  C4'        1.1150   -0.5290   27.8070 C.3   407  UDP407      0.1799
     14  O4'        0.1460    0.3210   28.5010 O.3   407  UDP407     -0.3320
     15  O3'        2.6920   -2.2060   28.6060 O.3   407  UDP407     -0.2175
     16  C5'        0.4980   -0.9980   26.4720 C.3   407  UDP407      0.1813
     17  O5'       -0.4920   -1.9870   26.7170 O.3   407  UDP407     -0.3111
     18  PA        -0.6070   -3.5180   26.3370 P.3   407  UDP407      0.2231
     19  O1A        0.6450   -4.1960   26.7910 O.2   407  UDP407     -0.5169
     20  O2A       -1.9070   -4.0380   26.8820 O.3   407  UDP407     -0.4370
     21  O3A       -0.5800   -3.2990   24.7480 O.3   407  UDP407     -0.2261
     22  PB        -0.0870   -4.2220   23.5050 P.3   407  UDP407      0.5373
     23  O1B       -0.0220   -5.7540   24.0750 O.3   407  UDP407     -0.1143
     24  O2B       -0.7880   -3.8530   22.2780 O.2   407  UDP407     -0.2221
     25  O3B        1.3860   -4.0390   23.3680 O.3   407  UDP407     -0.1143
@<TRIPOS>BOND
     1    24    22    2
     2    25    22    1
     3    22    23    1
     4    22    21    1
     5    21    18    1
     6    18    17    1
     7    18    19    2
     8    18    20    1
     9    16    17    1
    10    16    13    1
    11    13    14    1
    12    13    12    1
    13    14     9    1
    14    15    12    1
    15    12    10    1
    16     6     5    2
    17     6     1    1
    18     5     4    1
    19     9    10    1
    20     9     1    1
    21    10    11    1
    22     1     2   am
    23     4     8    2
    24     4     3    2
    25     2     3    2
    26     2     7    2
