@<TRIPOS>MOLECULE
1q0b_NAT_A_1.pdb
 20 21 0 0 0
SMALL
GASTEIGER

@<TRIPOS>ATOM
      1  C1        18.9440   14.0740  112.2220 C.ar  604  NAT604      0.0025
      2  C2        17.9470   13.4400  111.3640 C.ar  604  NAT604      0.0305
      3  C3        16.9050   12.6140  111.9150 C.ar  604  NAT604      0.0443
      4  C4        16.8720   12.4480  113.3610 C.ar  604  NAT604      0.1958
      5  C5        17.8400   13.1070  114.2080 C.ar  604  NAT604      0.0420
      6  C6        18.9120   13.9210  113.6650 C.ar  604  NAT604      0.0034
      7  C7        18.0230   13.6040  109.8900 C.2   604  NAT604      0.1387
      8  N8        19.3220   13.1940  109.3440 N.2   604  NAT604     -0.3378
      9  C9        20.2140   14.0440  108.7860 C.1   604  NAT604      0.1785
     10  N10       19.8820   15.3390  108.6480 N.2   604  NAT604     -0.3422
     11  C11       18.5380   15.8290  108.9490 C.2   604  NAT604      0.1171
     12  C12       17.6030   14.9940  109.4580 C.3   604  NAT604      0.2004
     13  O13       15.9420   11.6470  113.9240 O.3   604  NAT604     -0.2866
     14  C14       16.1700   15.3890  109.6840 C.2   604  NAT604      0.3298
     15  O15       15.8650   16.7060  109.6070 O.3   604  NAT604     -0.4479
     16  C16       14.5240   17.3280  109.7240 C.3   604  NAT604      0.2086
     17  C17       14.6040   18.8410  109.4300 C.3   604  NAT604      0.0513
     18  C18       18.3510   17.2970  108.6310 C.3   604  NAT604      0.0635
     19  O19       15.3490   14.5470  109.9340 O.2   604  NAT604     -0.2492
     20  S20       21.6940   13.5190  108.2240 S.2   604  NAT604      0.0574
@<TRIPOS>BOND
     1    20     9    2
     2    18    11    1
     3    10     9    2
     4    10    11    2
     5     9     8    2
     6    11    12    1
     7     8     7    2
     8    17    16    1
     9    12    14    1
    10    12     7    1
    11    15    14    1
    12    15    16    1
    13    14    19    2
    14     7     2    1
    15     2     3   ar
    16     2     1   ar
    17     3     4   ar
    18     1     6   ar
    19     4    13    1
    20     4     5   ar
    21     6     5   ar
