@<TRIPOS>MOLECULE
1q0b_ADP_A_1.pdb
 27 29 0 0 0
SMALL
GASTEIGER

@<TRIPOS>ATOM
      1  PB        14.7860    6.5260   99.1200 P.3   601  ADP601      0.5373
      2  O1B       14.1250    7.1270   97.9250 O.2   601  ADP601     -0.2221
      3  O2B       15.4380    5.1270   98.7820 O.3   601  ADP601     -0.1143
      4  O3B       15.7960    7.4220   99.6940 O.3   601  ADP601     -0.1143
      5  PA        13.2970    7.0560  101.4970 P.3   601  ADP601      0.2231
      6  O1A       14.2820    6.8800  102.5660 O.3   601  ADP601     -0.4370
      7  O2A       13.1880    8.4640  101.1740 O.2   601  ADP601     -0.5169
      8  O3A       13.7030    6.2440  100.2160 O.3   601  ADP601     -0.2261
      9  O5'       11.8390    6.6790  101.9310 O.3   601  ADP601     -0.3111
     10  C5'       10.8760    5.8080  101.3550 C.3   601  ADP601      0.1813
     11  C4'        9.6290    5.9210  102.3180 C.3   601  ADP601      0.1821
     12  O4'        9.6860    4.7210  103.0600 O.3   601  ADP601     -0.3135
     13  C3'        9.6950    7.0520  103.3800 C.3   601  ADP601      0.2184
     14  O3'        8.3990    7.6480  103.6120 O.3   601  ADP601     -0.2174
     15  C2'       10.2550    6.4070  104.6430 C.3   601  ADP601      0.2570
     16  O2'        9.8430    7.0510  105.8610 O.3   601  ADP601     -0.2130
     17  C1'        9.8190    4.9600  104.4770 C.3   601  ADP601      0.3186
     18  N9        10.8170    3.9470  104.9500 N.pl3 601  ADP601     -0.1439
     19  C8        11.9190    3.5600  104.2520 C.3   601  ADP601      0.3377
     20  N7        12.5790    2.6490  104.9340 N.2   601  ADP601     -0.2095
     21  C5        11.9420    2.4290  106.0530 C.2   601  ADP601      0.2526
     22  C6        12.1380    1.5980  107.1590 C.2   601  ADP601      0.4393
     23  N6        13.1900    0.7820  107.1870 N.pl3 601  ADP601      0.2180
     24  N1        11.2450    1.6150  108.2170 N.2   601  ADP601      0.0021
     25  C2        10.1480    2.4330  108.2300 C.3   601  ADP601      0.5254
     26  N3         9.9420    3.2480  107.1540 N.2   601  ADP601     -0.0055
     27  C4        10.7980    3.2770  106.0740 C.2   601  ADP601      0.3518
@<TRIPOS>BOND
     1     2     1    2
     2     3     1    1
     3     1     4    1
     4     1     8    1
     5     8     5    1
     6     7     5    2
     7    10     9    1
     8    10    11    1
     9     5     9    1
    10     5     6    1
    11    11    12    1
    12    11    13    1
    13    12    17    1
    14    13    14    1
    15    13    15    1
    16    19    20    1
    17    19    18    1
    18    17    15    1
    19    17    18    1
    20    15    16    1
    21    20    21    2
    22    18    27    1
    23    21    27    1
    24    21    22    1
    25    27    26    2
    26    26    25    1
    27    22    23    1
    28    22    24    2
    29    24    25    1
