@<TRIPOS>MOLECULE
1q0c_DHY_A_1.pdb
 12 12 0 0 0
SMALL
GASTEIGER

@<TRIPOS>ATOM
      1  C1       129.6260  -14.2400  -18.2450 C.ar  999  DHY999     -0.0076
      2  C2       128.5680  -14.4950  -19.1770 C.ar  999  DHY999      0.0417
      3  C3       127.9910  -13.4370  -19.9240 C.ar  999  DHY999      0.2340
      4  C4       128.4730  -12.1000  -19.7430 C.ar  999  DHY999      0.2342
      5  C5       129.5300  -11.8330  -18.8190 C.ar  999  DHY999      0.0451
      6  C6       130.1040  -12.9100  -18.0670 C.ar  999  DHY999     -0.0002
      7  C7       130.1200  -15.4290  -17.5140 C.3   999  DHY999      0.1405
      8  C8       129.0960  -16.0120  -16.5650 C.2   999  DHY999      0.3692
      9  O1       128.6520  -17.1470  -16.7880 O.co2 999  DHY999     -0.2453
     10  O2       128.5900  -15.4720  -15.5590 O.co2 999  DHY999     -0.2453
     11  O3       126.9690  -13.4560  -20.8640 O.3   999  DHY999     -0.2832
     12  O4       127.7810  -11.1890  -20.5650 O.3   999  DHY999     -0.2831
@<TRIPOS>BOND
     1    11     3    1
     2    12     4    1
     3     3     4   ar
     4     3     2   ar
     5     4     5   ar
     6     2     1   ar
     7     5     6   ar
     8     1     6   ar
     9     1     7    1
    10     7     8    1
    11     9     8   ar
    12     8    10   ar
