@<TRIPOS>MOLECULE
1q0h_NDP_A_1.pdb
 31 33 0 0 0
SMALL
GASTEIGER

@<TRIPOS>ATOM
      1  PA        42.3620   24.0810   31.8220 P.3   401  NDP401      0.2231
      2  O1A       42.3900   24.9630   30.6320 O.2   401  NDP401     -0.5169
      3  O2A       43.7670   23.9870   32.4420 O.3   401  NDP401     -0.4370
      4  O5B       41.7910   22.6240   31.4260 O.3   401  NDP401     -0.3111
      5  C5B       42.3460   21.8770   30.3620 C.3   401  NDP401      0.1813
      6  C4B       42.1950   20.3810   30.6250 C.3   401  NDP401      0.1820
      7  O4B       41.7750   19.7010   29.4460 O.3   401  NDP401     -0.3136
      8  C3B       43.5250   19.7590   31.0180 C.3   401  NDP401      0.2157
      9  O3B       43.3440   18.7210   31.9550 O.3   401  NDP401     -0.2175
     10  C2B       44.0160   19.2120   29.6990 C.3   401  NDP401      0.2314
     11  O2B       45.0260   18.2440   29.8530 O.3   401  NDP401     -0.2630
     12  C1B       42.7080   18.6700   29.1490 C.3   401  NDP401      0.3158
     13  N9A       42.7610   18.3210   27.7170 N.pl3 401  NDP401     -0.1439
     14  C8A       43.0700   19.1370   26.6590 C.3   401  NDP401      0.3377
     15  N7A       42.9930   18.4060   25.5190 N.2   401  NDP401     -0.2095
     16  C5A       42.6410   17.1380   25.8320 C.2   401  NDP401      0.2526
     17  C6A       42.4220   15.9940   25.0590 C.2   401  NDP401      0.4393
     18  N6A       42.2710   16.0970   23.7400 N.pl3 401  NDP401      0.2180
     19  N1A       42.0620   14.8140   25.6880 N.2   401  NDP401      0.0021
     20  C2A       41.9190   14.7680   27.0640 C.3   401  NDP401      0.5254
     21  N3A       42.1380   15.9060   27.8210 N.2   401  NDP401     -0.0055
     22  C4A       42.4920   17.0720   27.2150 C.2   401  NDP401      0.3518
     23  O3        41.3280   24.6580   32.9160 O.3   401  NDP401     -0.2261
     24  PN        39.7400   24.6870   32.6810 P.3   401  NDP401      0.5373
     25  O1N       39.1860   23.3610   33.0290 O.3   401  NDP401     -0.1143
     26  O2N       39.4660   25.2670   31.3550 O.2   401  NDP401     -0.2221
     27  O5D       39.2660   25.7880   33.7510 O.3   401  NDP401     -0.1143
     28  P2B       46.5660   18.7070   29.9950 P.3   401  NDP401      0.5328
     29  O1X       46.6250   19.9900   30.7390 O.3   401  NDP401     -0.1145
     30  O2X       47.3230   17.6240   30.7850 O.3   401  NDP401     -0.1145
     31  O3X       47.1830   18.9030   28.5970 O.2   401  NDP401     -0.2224
@<TRIPOS>BOND
     1    18    17    1
     2    17    19    2
     3    17    16    1
     4    15    16    2
     5    15    14    1
     6    19    20    1
     7    16    22    1
     8    14    13    1
     9    20    21    1
    10    22    13    1
    11    22    21    2
    12    13    12    1
    13    31    28    2
    14    12     7    1
    15    12    10    1
    16     7     6    1
    17    10    11    1
    18    10     8    1
    19    11    28    1
    20    28    29    1
    21    28    30    1
    22     5     6    1
    23     5     4    1
    24     6     8    1
    25     2     1    2
    26     8     9    1
    27    26    24    2
    28     4     1    1
    29     1     3    1
    30     1    23    1
    31    24    23    1
    32    24    25    1
    33    24    27    1
