@<TRIPOS>MOLECULE
1q0h_FOM_A_1.pdb
 11 10 0 0 0
SMALL
GASTEIGER

@<TRIPOS>ATOM
      1  O2        32.6420   30.6130   33.7130 O.3   400  FOM400     -0.4195
      2  N1        33.3220   30.8600   34.7070 N.am  400  FOM400     -0.2796
      3  C1        33.1990   30.0730   35.7700 C.2   400  FOM400      0.1130
      4  O1        32.6900   28.9760   35.5950 O.2   400  FOM400     -0.5358
      5  C2        34.2650   31.9780   34.7340 C.3   400  FOM400      0.0985
      6  C3        33.4540   33.2690   34.6000 C.3   400  FOM400      0.0297
      7  C4        34.2980   34.4510   34.1270 C.3   400  FOM400      0.0607
      8  PA1       33.3470   35.5980   33.2580 P.3   400  FOM400      0.1172
      9  OP1       32.8960   34.8610   32.0160 O.2   400  FOM400     -0.4601
     10  OP2       34.2800   36.7370   32.9240 O.3   400  FOM400     -0.3571
     11  OP3       32.1850   35.9390   34.1250 O.3   400  FOM400     -0.3571
@<TRIPOS>BOND
     1     9     8    2
     2    10     8    1
     3     8    11    1
     4     8     7    1
     5     1     2    1
     6     7     6    1
     7     6     5    1
     8     2     5    1
     9     2     3   am
    10     4     3    2
