@<TRIPOS>MOLECULE
1q0l_FOM_A_1.pdb
 11 10 0 0 0
SMALL
GASTEIGER

@<TRIPOS>ATOM
      1  O2        32.3800   30.7580   33.6630 O.3   399  FOM399     -0.4195
      2  N1        33.2280   31.1240   34.4760 N.am  399  FOM399     -0.2796
      3  C1        33.2850   30.5440   35.6630 C.2   399  FOM399      0.1130
      4  O1        32.5990   29.5600   35.8360 O.2   399  FOM399     -0.5358
      5  C2        34.1810   32.1870   34.1760 C.3   399  FOM399      0.0985
      6  C3        33.5830   33.4500   34.7920 C.3   399  FOM399      0.0297
      7  C4        34.3160   34.7290   34.3790 C.3   399  FOM399      0.0607
      8  PA1       33.3120   35.7280   33.4090 P.3   399  FOM399      0.1172
      9  OP1       32.9990   34.8480   32.2280 O.2   399  FOM399     -0.4601
     10  OP2       34.1320   36.9400   33.0790 O.3   399  FOM399     -0.3571
     11  OP3       32.0630   36.0170   34.1770 O.3   399  FOM399     -0.3571
@<TRIPOS>BOND
     1     9     8    2
     2    10     8    1
     3     8    11    1
     4     8     7    1
     5     1     2    1
     6     5     2    1
     7     5     6    1
     8     7     6    1
     9     2     3   am
    10     3     4    2
