@<TRIPOS>MOLECULE
1q0l_NDP_A_1.pdb
 48 52 0 0 0
SMALL
GASTEIGER

@<TRIPOS>ATOM
      1  PA        42.5980   23.9480   31.6800 P.3   400  NDP400      0.2189
      2  O1A       43.4490   24.4600   30.5740 O.2   400  NDP400     -0.5170
      3  O2A       43.0500   24.4630   33.0550 O.3   400  NDP400     -0.4371
      4  O5B       42.5960   22.3540   31.6520 O.3   400  NDP400     -0.3112
      5  C5B       41.9360   21.6480   30.6310 C.3   400  NDP400      0.1813
      6  C4B       42.0440   20.1610   30.9070 C.3   400  NDP400      0.1820
      7  O4B       41.6640   19.4440   29.7490 O.3   400  NDP400     -0.3136
      8  C3B       43.4700   19.7560   31.2190 C.3   400  NDP400      0.2157
      9  O3B       43.4950   18.8150   32.2610 O.3   400  NDP400     -0.2175
     10  C2B       43.9420   19.1400   29.9290 C.3   400  NDP400      0.2314
     11  O2B       44.9680   18.2100   30.1470 O.3   400  NDP400     -0.2630
     12  C1B       42.6650   18.5000   29.4300 C.3   400  NDP400      0.3158
     13  N9A       42.6740   18.1760   27.9900 N.pl3 400  NDP400     -0.1439
     14  C8A       42.9380   19.0140   26.9420 C.3   400  NDP400      0.3377
     15  N7A       42.8240   18.3080   25.7960 N.2   400  NDP400     -0.2095
     16  C5A       42.4920   17.0350   26.0960 C.2   400  NDP400      0.2526
     17  C6A       42.2590   15.9090   25.3130 C.2   400  NDP400      0.4393
     18  N6A       42.1190   16.0190   23.9970 N.pl3 400  NDP400      0.2180
     19  N1A       41.9270   14.7180   25.9290 N.2   400  NDP400      0.0021
     20  C2A       41.8320   14.6480   27.3060 C.3   400  NDP400      0.5254
     21  N3A       42.0670   15.7710   28.0720 N.2   400  NDP400     -0.0055
     22  C4A       42.3920   16.9420   27.4760 C.2   400  NDP400      0.3518
     23  O3        41.0620   24.3170   31.3880 O.3   400  NDP400     -0.2703
     24  PN        39.9790   24.5210   32.5600 P.3   400  NDP400      0.2189
     25  O1N       40.0370   25.9320   32.9860 O.2   400  NDP400     -0.5170
     26  O2N       40.1200   23.4370   33.5510 O.3   400  NDP400     -0.4371
     27  O5D       38.5900   24.3230   31.7660 O.3   400  NDP400     -0.3112
     28  C5D       37.8520   23.1170   31.7100 C.3   400  NDP400      0.1813
     29  C4D       36.5220   23.3330   30.9800 C.3   400  NDP400      0.1799
     30  O4D       35.5540   23.8800   31.8560 O.3   400  NDP400     -0.3327
     31  C3D       36.6160   24.3140   29.8210 C.3   400  NDP400      0.2158
     32  O3D       35.7530   23.8880   28.7940 O.3   400  NDP400     -0.2175
     33  C2D       36.1650   25.6420   30.4020 C.3   400  NDP400      0.2309
     34  O2D       35.5750   26.4880   29.4390 O.3   400  NDP400     -0.2158
     35  C1D       35.1690   25.1870   31.4560 C.3   400  NDP400      0.2263
     36  N1N       35.0650   26.0630   32.6490 N.pl3 400  NDP400     -0.2787
     37  C2N       36.1510   26.3430   33.4570 C.3   400  NDP400      0.1244
     38  C3N       36.0380   27.1650   34.5970 C.2   400  NDP400      0.0544
     39  C7N       37.2010   27.4950   35.5120 C.2   400  NDP400      0.2818
     40  O7N       37.0040   28.3310   36.6330 O.2   400  NDP400     -0.2670
     41  N7N       38.4160   27.0100   35.2810 N.am  400  NDP400     -0.0839
     42  C4N       34.7950   27.7060   34.9040 C.2   400  NDP400      0.0033
     43  C5N       33.6280   27.3980   34.0200 C.2   400  NDP400      0.0157
     44  C6N       33.8280   26.5750   32.9270 C.2   400  NDP400      0.0633
     45  P2B       46.4950   18.6940   30.2650 P.3   400  NDP400      0.5328
     46  O1X       46.5760   19.9870   30.9820 O.3   400  NDP400     -0.1145
     47  O2X       47.2530   17.6150   31.0570 O.3   400  NDP400     -0.1145
     48  O3X       47.0710   18.8380   28.8460 O.2   400  NDP400     -0.2224
@<TRIPOS>BOND
     1    18    17    1
     2    17    19    2
     3    17    16    1
     4    15    16    2
     5    15    14    1
     6    19    20    1
     7    16    22    1
     8    14    13    1
     9    20    21    1
    10    22    13    1
    11    22    21    2
    12    13    12    1
    13    32    31    1
    14    48    45    2
    15    12     7    1
    16    12    10    1
    17    34    33    1
    18     7     6    1
    19    31    33    1
    20    31    29    1
    21    10    11    1
    22    10     8    1
    23    11    45    1
    24    45    46    1
    25    45    47    1
    26    33    35    1
    27     2     1    2
    28     5     6    1
    29     5     4    1
    30     6     8    1
    31    29    28    1
    32    29    30    1
    33     8     9    1
    34    23     1    1
    35    23    24    1
    36    35    30    1
    37    35    36    1
    38     4     1    1
    39     1     3    1
    40    28    27    1
    41    27    24    1
    42    24    25    2
    43    24    26    1
    44    36    44    1
    45    36    37    1
    46    44    43    2
    47    37    38    1
    48    43    42    1
    49    38    42    2
    50    38    39    1
    51    41    39   am
    52    39    40    2
