@<TRIPOS>MOLECULE
1q0n_PH2_A_1.pdb
 23 24 0 0 0
SMALL
GASTEIGER

@<TRIPOS>ATOM
      1  N1        -5.5280    6.0850    7.8060 N.2   181  PH2181     -0.3993
      2  C2        -5.6900    6.3780    6.5630 C.2   181  PH2181      0.1118
      3  C3        -5.0930    7.6040    5.9060 C.3   181  PH2181      0.0633
      4  N4        -4.1770    8.2420    6.7630 N.pl3 181  PH2181     -0.3102
      5  N5        -3.1880    8.7320    8.8150 N.2   181  PH2181     -0.3558
      6  C6        -3.1040    8.5000   10.0810 C.2   181  PH2181      0.2395
      7  N6        -2.2870    9.2060   10.8840 N.pl3 181  PH2181     -0.3206
      8  N7        -3.8500    7.5120   10.6720 N.am  181  PH2181     -0.2418
      9  C8        -4.7500    6.6770   10.0080 C.2   181  PH2181      0.2858
     10  O8        -5.3570    5.8330   10.6430 O.2   181  PH2181     -0.2668
     11  C9        -4.8240    6.9540    8.6130 C.2   181  PH2181      0.2274
     12  C10       -4.0310    7.9800    8.0800 C.2   181  PH2181      0.2172
     13  C11       -6.5140    5.5040    5.6660 C.3   181  PH2181      0.0949
     14  O4        -7.3180    4.6110    6.3530 O.3   181  PH2181     -0.3881
     15  H31       -4.8270    7.4810    4.8490 H     181  PH2181      0.0535
     16  H32       -5.9060    8.3560    5.9470 H     181  PH2181      0.0535
     17  HN4       -3.6460    9.0360    6.4280 H     181  PH2181      0.1489
     18 HN61       -1.6220    9.7340   10.3330 H     181  PH2181      0.1459
     19 HN62       -1.8960    8.7900   11.7180 H     181  PH2181      0.1459
     20  HN7       -3.7550    7.3980   11.5190 H     181  PH2181      0.1589
     21 H111       -7.0740    6.0660    5.1080 H     181  PH2181      0.0630
     22 H112       -5.9210    5.0060    5.0810 H     181  PH2181      0.0630
     23  HO4       -7.8560    4.1510    5.6930 H     181  PH2181      0.2099
@<TRIPOS>BOND
     1    15     3    1
     2    22    13    1
     3    21    13    1
     4    13    14    1
     5    13     2    1
     6    23    14    1
     7     3    16    1
     8     3     2    1
     9     3     4    1
    10    17     4    1
    11     2     1    2
    12     4    12    1
    13     1    11    2
    14    12    11    1
    15    12     5    2
    16    11     9    1
    17     5     6    2
    18     9    10    2
    19     9     8   am
    20     6     8    1
    21     6     7    1
    22    18     7    1
    23     8    20    1
    24     7    19    1
