@<TRIPOS>MOLECULE
1q0n_APC_A_1.pdb
 31 33 0 0 0
SMALL
GASTEIGER

@<TRIPOS>ATOM
      1  PG        -6.1280    1.9790    3.9990 P.3   171  APC171      0.5389
      2  O1G       -6.5520    0.5810    3.7470 O.3   171  APC171     -0.1143
      3  O2G       -4.9540    2.4090    3.1520 O.2   171  APC171     -0.2220
      4  O3G       -5.8710    2.2610    5.4700 O.3   171  APC171     -0.1143
      5  PB        -8.8320    2.9670    4.0330 P.3   171  APC171      0.3895
      6  O1B       -8.8070    2.2490    5.3780 O.3   171  APC171     -0.1388
      7  O2B       -9.3910    4.3500    3.9480 O.2   171  APC171     -0.2544
      8  O3B       -7.3100    2.9800    3.5360 O.3   171  APC171     -0.2026
      9  PA       -11.4270    1.8000    3.1700 P.3   171  APC171      0.3820
     10  O1A      -11.6710    1.8020    4.6820 O.3   171  APC171     -0.1392
     11  O2A      -12.1880    2.8260    2.3900 O.2   171  APC171     -0.2548
     12  C3A       -9.6900    1.9170    2.8600 C.3   171  APC171      0.2357
     13  O5'      -11.8680    0.3440    2.6870 O.3   171  APC171     -0.2896
     14  C5'      -11.9120    0.0420    1.2260 C.3   171  APC171      0.1836
     15  C4'      -11.9600   -1.4550    1.1260 C.3   171  APC171      0.1822
     16  O4'      -10.7540   -2.0200    1.6340 O.3   171  APC171     -0.3135
     17  C3'      -13.0810   -2.1800    1.7720 C.3   171  APC171      0.2184
     18  O3'      -14.2910   -2.1000    1.1290 O.3   171  APC171     -0.2174
     19  C2'      -12.5500   -3.5550    1.9440 C.3   171  APC171      0.2570
     20  O2'      -13.2080   -4.5080    1.0750 O.3   171  APC171     -0.2130
     21  C1'      -11.0580   -3.4540    1.5920 C.3   171  APC171      0.3186
     22  N9       -10.1190   -4.1520    2.4510 N.pl3 171  APC171     -0.1439
     23  C8        -9.0990   -4.9790    1.8760 C.3   171  APC171      0.3377
     24  N7        -8.3440   -5.4620    2.8610 N.2   171  APC171     -0.2095
     25  C5        -8.8910   -4.9380    4.0610 C.2   171  APC171      0.2526
     26  C6        -8.4630   -5.1460    5.3460 C.2   171  APC171      0.4393
     27  N6        -7.4650   -5.8650    5.7680 N.pl3 171  APC171      0.2180
     28  N1        -9.1850   -4.5070    6.3470 N.2   171  APC171      0.0021
     29  C2       -10.1900   -3.7740    6.0150 C.3   171  APC171      0.5254
     30  N3       -10.7250   -3.4840    4.7370 N.2   171  APC171     -0.0055
     31  C4        -9.9700   -4.1440    3.7820 C.2   171  APC171      0.3518
@<TRIPOS>BOND
     1    20    19    1
     2    15    14    1
     3    15    16    1
     4    15    17    1
     5    18    17    1
     6    14    13    1
     7    21    16    1
     8    21    19    1
     9    21    22    1
    10    17    19    1
    11    23    22    1
    12    23    24    1
    13    11     9    2
    14    22    31    1
    15    13     9    1
    16    12     9    1
    17    12     5    1
    18    24    25    2
    19     3     1    2
    20     9    10    1
    21     8     1    1
    22     8     5    1
    23     2     1    1
    24    31    25    1
    25    31    30    2
    26     7     5    2
    27     1     4    1
    28     5     6    1
    29    25    26    1
    30    30    29    1
    31    26    27    1
    32    26    28    2
    33    29    28    1
