@<TRIPOS>MOLECULE
1q0q_DXP_A_1.pdb
 13 12 0 0 0
SMALL
GASTEIGER

@<TRIPOS>ATOM
      1  C1        22.7040    2.2900   39.1820 C.3   701  DXP701      0.0751
      2  C2        22.7760    1.5100   37.9070 C.2   701  DXP701      0.1838
      3  C3        21.9500    1.9650   36.7450 C.3   701  DXP701      0.2412
      4  C4        20.4690    1.6120   36.8740 C.3   701  DXP701      0.2193
      5  C5        19.6270    2.8020   36.4110 C.3   701  DXP701      0.1896
      6  O2        23.5110    0.5450   37.7870 O.2   701  DXP701     -0.2933
      7  O3        22.4420    1.3730   35.5570 O.3   701  DXP701     -0.2123
      8  O4        20.1830    0.5070   36.0180 O.3   701  DXP701     -0.2172
      9  O5        18.2460    2.5110   36.5850 O.3   701  DXP701     -0.2674
     10  P         17.2880    1.8620   35.4590 P.3   701  DXP701      0.5327
     11  O2P       18.0530    1.7780   34.1670 O.2   701  DXP701     -0.2224
     12  O1P       16.1730    2.8850   35.4110 O.3   701  DXP701     -0.1145
     13  O3P       16.8990    0.5200   36.0050 O.3   701  DXP701     -0.1145
@<TRIPOS>BOND
     1    11    10    2
     2    12    10    1
     3    10    13    1
     4    10     9    1
     5     7     3    1
     6     8     4    1
     7     5     9    1
     8     5     4    1
     9     3     4    1
    10     3     2    1
    11     6     2    2
    12     2     1    1
