@<TRIPOS>MOLECULE
1q0q_NDP_A_1.pdb
 48 52 0 0 0
SMALL
GASTEIGER

@<TRIPOS>ATOM
      1  PA        29.7140   10.7770   34.0070 P.3   2001  NDP2001     0.2189
      2  O1A       29.3130   11.6760   32.9060 O.2   2001  NDP2001    -0.5170
      3  O2A       29.2750   11.3350   35.3620 O.3   2001  NDP2001    -0.4371
      4  O5B       31.3060   10.5800   34.0090 O.3   2001  NDP2001    -0.3112
      5  C5B       32.0260   10.2420   32.8500 C.3   2001  NDP2001     0.1813
      6  C4B       33.5160   10.2940   33.1600 C.3   2001  NDP2001     0.1820
      7  O4B       34.2670    9.9530   32.0000 O.3   2001  NDP2001    -0.3136
      8  C3B       33.9570   11.6910   33.5560 C.3   2001  NDP2001     0.2157
      9  O3B       35.0150   11.6270   34.4940 O.3   2001  NDP2001    -0.2175
     10  C2B       34.4110   12.2420   32.2250 C.3   2001  NDP2001     0.2314
     11  O2B       35.2690   13.3230   32.3460 O.3   2001  NDP2001    -0.2630
     12  C1B       35.1240   11.0250   31.6730 C.3   2001  NDP2001     0.3158
     13  N9A       35.3840   11.0080   30.2280 N.pl3 2001  NDP2001    -0.1439
     14  C8A       34.5150   11.2510   29.1960 C.3   2001  NDP2001     0.3377
     15  N7A       35.1820   11.0790   28.0330 N.2   2001  NDP2001    -0.2095
     16  C5A       36.4480   10.7100   28.3190 C.2   2001  NDP2001     0.2526
     17  C6A       37.5260   10.4060   27.5090 C.2   2001  NDP2001     0.4393
     18  N6A       37.3560   10.3430   26.1900 N.pl3 2001  NDP2001     0.2180
     19  N1A       38.7240   10.0520   28.0970 N.2   2001  NDP2001     0.0021
     20  C2A       38.8430   10.0030   29.4760 C.3   2001  NDP2001     0.5254
     21  N3A       37.7600   10.3040   30.2810 N.2   2001  NDP2001    -0.0055
     22  C4A       36.5870   10.6520   29.6970 C.2   2001  NDP2001     0.3518
     23  O3        29.1730    9.2940   33.6930 O.3   2001  NDP2001    -0.2703
     24  PN        28.8740    8.1630   34.7970 P.3   2001  NDP2001     0.2189
     25  O1N       27.4290    8.2150   35.0970 O.2   2001  NDP2001    -0.5170
     26  O2N       29.8580    8.2880   35.8930 O.3   2001  NDP2001    -0.4371
     27  O5D       29.1220    6.8250   33.9590 O.3   2001  NDP2001    -0.3112
     28  C5D       30.4150    6.3300   33.6980 C.3   2001  NDP2001     0.1813
     29  C4D       30.2600    4.9130   33.1760 C.3   2001  NDP2001     0.1799
     30  O4D       29.7510    4.1090   34.2220 O.3   2001  NDP2001    -0.3327
     31  C3D       29.2540    4.8260   32.0370 C.3   2001  NDP2001     0.2158
     32  O3D       29.7500    3.9390   31.0670 O.3   2001  NDP2001    -0.2175
     33  C2D       27.9800    4.3040   32.6820 C.3   2001  NDP2001     0.2309
     34  O2D       27.1840    3.4990   31.8360 O.3   2001  NDP2001    -0.2158
     35  C1D       28.5340    3.4890   33.8320 C.3   2001  NDP2001     0.2263
     36  N1N       27.6010    3.3620   34.9700 N.pl3 2001  NDP2001    -0.2787
     37  C2N       27.2790    4.4580   35.7350 C.3   2001  NDP2001     0.1244
     38  C3N       26.4120    4.3550   36.8240 C.2   2001  NDP2001     0.0544
     39  C7N       26.0490    5.5260   37.6830 C.2   2001  NDP2001     0.2818
     40  O7N       25.1730    5.2910   38.7480 O.2   2001  NDP2001    -0.2670
     41  N7N       26.5380    6.7440   37.4570 N.am  2001  NDP2001    -0.0839
     42  C4N       25.8410    3.1200   37.1310 C.2   2001  NDP2001     0.0033
     43  C5N       26.2110    1.9390   36.2920 C.2   2001  NDP2001     0.0157
     44  C6N       27.0840    2.1240   35.2360 C.2   2001  NDP2001     0.0633
     45  P2B       34.7610   14.8260   32.6030 P.3   2001  NDP2001     0.5328
     46  O1X       33.4870   14.8340   33.3380 O.3   2001  NDP2001    -0.1145
     47  O2X       35.8940   15.4520   33.4250 O.3   2001  NDP2001    -0.1145
     48  O3X       34.6020   15.5340   31.2490 O.2   2001  NDP2001    -0.2224
@<TRIPOS>BOND
     1    18    17    1
     2    17    19    2
     3    17    16    1
     4    15    16    2
     5    15    14    1
     6    19    20    1
     7    16    22    1
     8    14    13    1
     9    20    21    1
    10    22    13    1
    11    22    21    2
    12    13    12    1
    13    32    31    1
    14    48    45    2
    15    12     7    1
    16    12    10    1
    17    34    33    1
    18     7     6    1
    19    31    33    1
    20    31    29    1
    21    10    11    1
    22    10     8    1
    23    11    45    1
    24    45    46    1
    25    45    47    1
    26    33    35    1
    27     5     6    1
    28     5     4    1
    29     2     1    2
    30     6     8    1
    31    29    28    1
    32    29    30    1
    33     8     9    1
    34    23     1    1
    35    23    24    1
    36    28    27    1
    37    35    30    1
    38    35    36    1
    39    27    24    1
    40     1     4    1
    41     1     3    1
    42    24    25    2
    43    24    26    1
    44    36    44    1
    45    36    37    1
    46    44    43    2
    47    37    38    1
    48    43    42    1
    49    38    42    2
    50    38    39    1
    51    41    39   am
    52    39    40    2
