@<TRIPOS>MOLECULE
1q0r_AKT_A_1.pdb
 37 41 0 0 0
SMALL
GASTEIGER

@<TRIPOS>ATOM
      1  O12        8.8320   17.9720   11.2140 O.2   600  AKT600     -0.2866
      2  C12        9.7530   17.4840   10.5130 C.2   600  AKT600      0.1959
      3  C15       10.6960   18.3550    9.9390 C.ar  600  AKT600      0.0451
      4  C1        10.6040   19.7380   10.1620 C.ar  600  AKT600      0.0035
      5  C2        11.5400   20.6070    9.6040 C.ar  600  AKT600      0.0034
      6  C3        12.5720   20.1230    8.8150 C.ar  600  AKT600      0.0421
      7  C16       11.7490   17.8840    9.1450 C.ar  600  AKT600      0.0810
      8  C4        12.6720   18.7560    8.5840 C.ar  600  AKT600      0.1988
      9  O4        13.6610   18.2810    7.8300 O.3   600  AKT600     -0.2865
     10  C5        11.8770   16.4300    8.8700 C.2   600  AKT600      0.2019
     11  O5        12.7580   16.0000    8.0900 O.2   600  AKT600     -0.2864
     12  C18        9.8070   16.0920   10.3170 C.ar  600  AKT600      0.0448
     13  C17       10.8890   15.5140    9.4840 C.ar  600  AKT600      0.0807
     14  C6        10.9600   14.1450    9.2760 C.ar  600  AKT600      0.1968
     15  O6        11.9520   13.7060    8.5070 O.3   600  AKT600     -0.2867
     16  C11        8.8860   15.1920   10.8720 C.ar  600  AKT600     -0.0009
     17  C19        8.9830   13.8080   10.6300 C.ar  600  AKT600     -0.0182
     18  C10        8.0350   12.8460   11.3340 C.3   600  AKT600      0.0567
     19  C20       10.0090   13.2930    9.8420 C.ar  600  AKT600      0.0399
     20  C7        10.1270   11.8230    9.7160 C.3   600  AKT600      0.1452
     21  C8         9.4170   11.0510   10.8370 C.3   600  AKT600      0.0650
     22  C9         9.0110   11.9170   12.0500 C.3   600  AKT600      0.1333
     23  O9        10.1590   12.5340   12.6470 O.3   600  AKT600     -0.2252
     24  C13        8.3240   10.9530   13.0250 C.3   600  AKT600      0.0308
     25  C14        9.2570    9.9010   13.6090 C.3   600  AKT600      0.0026
     26  O7        11.4780   11.5970   10.1350 O.3   600  AKT600     -0.3283
     27  C1'       12.0780   10.3030    9.9600 C.3   600  AKT600      0.2368
     28  C2'       13.2610   10.4380    9.0150 C.3   600  AKT600      0.0799
     29  C3'       14.2760   11.3790    9.6520 C.3   600  AKT600      0.0956
     30  N3'       15.2940   11.6350    8.6210 N.3   600  AKT600     -0.2691
     31  C8'       16.0590   10.7270    8.1720 C.3   600  AKT600      0.0897
     32  C7'       15.3470   12.7990    8.1110 C.3   600  AKT600      0.0897
     33  C4'       14.7870   10.7320   10.9440 C.3   600  AKT600      0.1935
     34  O4'       15.3970    9.4650   10.7040 O.3   600  AKT600     -0.2191
     35  C5'       13.5790   10.5600   11.8720 C.3   600  AKT600      0.1494
     36  O5'       12.5390    9.8010   11.2310 O.3   600  AKT600     -0.3303
     37  C6'       13.9530    9.8840   13.1950 C.3   600  AKT600      0.0349
@<TRIPOS>BOND
     1     9     8    1
     2    11    10    2
     3    32    30    1
     4    31    30    1
     5    15    14    1
     6     8     6   ar
     7     8     7   ar
     8    30    29    1
     9     6     5   ar
    10    10     7    1
    11    10    13    1
    12    28    29    1
    13    28    27    1
    14     7     3   ar
    15    14    13   ar
    16    14    19   ar
    17    13    12   ar
    18     5     4   ar
    19    29    33    1
    20    20    19    1
    21    20    26    1
    22    20    21    1
    23    19    17   ar
    24     3     4   ar
    25     3     2    1
    26    27    26    1
    27    27    36    1
    28    12     2    1
    29    12    16   ar
    30     2     1    2
    31    17    16   ar
    32    17    18    1
    33    34    33    1
    34    21    22    1
    35    33    35    1
    36    36    35    1
    37    18    22    1
    38    35    37    1
    39    22    23    1
    40    22    24    1
    41    24    25    1
