@<TRIPOS>MOLECULE
1q0s_SAH_A_1.pdb
 26 28 0 0 0
SMALL
GASTEIGER

@<TRIPOS>ATOM
      1  N         18.3030   15.0840   18.4740 N.3   300  SAH300     -0.1208
      2  CA        16.9810   15.1060   17.8660 C.3   300  SAH300      0.1952
      3  CB        16.0040   14.1940   18.6190 C.3   300  SAH300      0.0422
      4  CG        16.2740   12.7130   18.4840 C.3   300  SAH300      0.0597
      5  SD        14.9610   11.7340   19.2900 S.3   300  SAH300     -0.1375
      6  C         16.4360   16.5370   17.8750 C.2   300  SAH300      0.3819
      7  O         15.2400   16.7820   17.4090 O.co2 300  SAH300     -0.2441
      8  OXT       17.1750   17.4940   18.3640 O.co2 300  SAH300     -0.2441
      9  C5'       15.3800   10.1070   18.5670 C.3   300  SAH300      0.0899
     10  C4'       14.7680    9.7450   17.2300 C.3   300  SAH300      0.1630
     11  O4'       15.1620    8.4130   16.8580 O.3   300  SAH300     -0.3153
     12  C3'       13.2500    9.6950   17.2330 C.3   300  SAH300      0.2168
     13  O3'       12.7620   10.9420   16.7680 O.3   300  SAH300     -0.2175
     14  C2'       12.8780    8.5870   16.2390 C.3   300  SAH300      0.2569
     15  O2'       12.2330    9.0410   15.0710 O.3   300  SAH300     -0.2130
     16  C1'       14.2260    7.9220   15.9390 C.3   300  SAH300      0.3185
     17  N9        14.2870    6.4640   15.9190 N.pl3 300  SAH300     -0.1439
     18  C8        13.6740    5.5580   16.7430 C.3   300  SAH300      0.3377
     19  N7        13.9360    4.3110   16.4410 N.2   300  SAH300     -0.2095
     20  C5        14.7830    4.4020   15.3450 C.2   300  SAH300      0.2526
     21  C6        15.4290    3.4290   14.5570 C.2   300  SAH300      0.4393
     22  N6        15.3220    2.1170   14.7590 N.pl3 300  SAH300      0.2180
     23  N1        16.2040    3.8620   13.5380 N.2   300  SAH300      0.0021
     24  C2        16.3230    5.1780   13.3360 C.3   300  SAH300      0.5254
     25  N3        15.7720    6.1850   14.0090 N.2   300  SAH300     -0.0055
     26  C4        15.0050    5.7240   15.0120 C.2   300  SAH300      0.3518
@<TRIPOS>BOND
     1    24    23    1
     2    24    25    1
     3    23    21    2
     4    25    26    2
     5    21    22    1
     6    21    20    1
     7    26    20    1
     8    26    17    1
     9    15    14    1
    10    20    19    2
    11    17    16    1
    12    17    18    1
    13    16    14    1
    14    16    11    1
    15    14    12    1
    16    19    18    1
    17    13    12    1
    18    11    10    1
    19    10    12    1
    20    10     9    1
    21     7     6   ar
    22     2     6    1
    23     2     1    1
    24     2     3    1
    25     6     8   ar
    26     4     3    1
    27     4     5    1
    28     9     5    1
