@<TRIPOS>MOLECULE
1q0t_SAH_A_1.pdb
 26 28 0 0 0
SMALL
GASTEIGER

@<TRIPOS>ATOM
      1  N        -33.6030  -24.9190   68.2710 N.3   300  SAH300     -0.1208
      2  CA       -32.7610  -24.3730   69.3040 C.3   300  SAH300      0.1952
      3  CB       -31.5780  -25.3180   69.4900 C.3   300  SAH300      0.0422
      4  CG       -30.6350  -24.9150   70.5940 C.3   300  SAH300      0.0597
      5  SD       -29.2820  -26.1010   70.8700 S.3   300  SAH300     -0.1375
      6  C        -32.2840  -22.9620   68.9420 C.2   300  SAH300      0.3819
      7  O        -31.8450  -22.2620   69.9510 O.co2 300  SAH300     -0.2441
      8  OXT      -32.7610  -22.3180   67.9010 O.co2 300  SAH300     -0.2441
      9  C5'      -29.5810  -27.2430   72.2680 C.3   300  SAH300      0.0899
     10  C4'      -29.5710  -26.4540   73.5590 C.3   300  SAH300      0.1630
     11  O4'      -30.1870  -27.2250   74.6180 O.3   300  SAH300     -0.3153
     12  C3'      -28.2080  -26.1260   74.1420 C.3   300  SAH300      0.2168
     13  O3'      -27.6650  -24.9640   73.5470 O.3   300  SAH300     -0.2175
     14  C2'      -28.5590  -25.7900   75.5770 C.3   300  SAH300      0.2569
     15  O2'      -29.0790  -24.4850   75.6640 O.3   300  SAH300     -0.2130
     16  C1'      -29.6460  -26.8190   75.8660 C.3   300  SAH300      0.3185
     17  N9       -29.0800  -27.9810   76.5500 N.pl3 300  SAH300     -0.1439
     18  C8       -27.7960  -28.4680   76.4590 C.3   300  SAH300      0.3377
     19  N7       -27.5560  -29.4750   77.2590 N.2   300  SAH300     -0.2095
     20  C5       -28.7700  -29.6820   77.9070 C.2   300  SAH300      0.2526
     21  C6       -29.1720  -30.6020   78.8880 C.2   300  SAH300      0.4393
     22  N6       -28.3620  -31.5360   79.4100 N.pl3 300  SAH300      0.2180
     23  N1       -30.4510  -30.5330   79.3230 N.2   300  SAH300      0.0021
     24  C2       -31.2580  -29.6040   78.7980 C.3   300  SAH300      0.5254
     25  N3       -30.9980  -28.6900   77.8750 N.2   300  SAH300     -0.0055
     26  C4       -29.7190  -28.7790   77.4670 C.2   300  SAH300      0.3518
@<TRIPOS>BOND
     1     8     6   ar
     2     1     2    1
     3     6     2    1
     4     6     7   ar
     5     2     3    1
     6     3     4    1
     7     4     5    1
     8     5     9    1
     9     9    10    1
    10    13    12    1
    11    10    12    1
    12    10    11    1
    13    12    14    1
    14    11    16    1
    15    14    15    1
    16    14    16    1
    17    16    17    1
    18    18    17    1
    19    18    19    1
    20    17    26    1
    21    19    20    2
    22    26    25    2
    23    26    20    1
    24    25    24    1
    25    20    21    1
    26    24    23    1
    27    21    23    2
    28    21    22    1
