@<TRIPOS>MOLECULE
1q0y_MOI_H_1.pdb
 21 25 0 0 0
SMALL
GASTEIGER

@<TRIPOS>ATOM
      1  C1        52.8890   56.8760    6.1110 C.ar  401  MOI401     -0.0010
      2  C2        52.5930   58.1250    8.4580 C.3   401  MOI401      0.0424
      3  C3        53.2920   57.1470    7.4540 C.ar  401  MOI401     -0.0216
      4  C4        54.4900   56.5430    7.8880 C.ar  401  MOI401      0.0143
      5  C5        55.1400   56.6710    9.2600 C.3   401  MOI401      0.0675
      6  C6        54.9390   58.1620    9.7370 C.3   401  MOI401      0.0441
      7  C7        54.4840   55.6710   10.2810 C.3   401  MOI401      0.0254
      8  C8        53.0400   56.0110   10.6270 C.3   401  MOI401      0.0726
      9  C9        51.4230   57.6200   11.2530 C.3   401  MOI401      0.0896
     10  C10       53.7020   56.0510    5.2800 C.ar  401  MOI401      0.0449
     11  C11       54.9400   55.4710    5.7450 C.ar  401  MOI401      0.2289
     12  C12       55.2910   55.7590    7.0820 C.ar  401  MOI401      0.1729
     13  C13       56.5980   56.2270    8.9510 C.3   401  MOI401      0.2043
     14  C14       57.5830   57.4250    8.7280 C.3   401  MOI401      0.2136
     15  C15       56.9040   58.7460    8.2850 C.2   401  MOI401      0.0053
     16  C16       55.6710   59.0940    8.7390 C.2   401  MOI401     -0.0266
     17  C17       53.3540   58.3770    9.8800 C.3   401  MOI401      0.0663
     18  N1        52.8620   57.4380   10.9780 N.3   401  MOI401     -0.2721
     19  O1        55.7070   54.7040    4.9260 O.3   401  MOI401     -0.2833
     20  O2        58.5770   57.0990    7.7730 O.3   401  MOI401     -0.2144
     21  O3        56.4530   55.3360    7.7490 O.3   401  MOI401     -0.4730
@<TRIPOS>BOND
     1    19    11    1
     2    10    11   ar
     3    10     1   ar
     4    11    12   ar
     5     1     3   ar
     6    12    21    1
     7    12     4   ar
     8     3     4   ar
     9     3     2    1
    10    21    13    1
    11    20    14    1
    12     4     5    1
    13    15    14    1
    14    15    16    2
    15     2    17    1
    16    14    13    1
    17    16     6    1
    18    13     5    1
    19     5     6    1
    20     5     7    1
    21     6    17    1
    22    17    18    1
    23     7     8    1
    24     8    18    1
    25    18     9    1
