@<TRIPOS>MOLECULE
1q11_TYE_A_1.pdb
 12 12 0 0 0
SMALL
GASTEIGER

@<TRIPOS>ATOM
      1  C         64.5410   14.5560   27.1220 C.3   401  TYE401      0.2013
      2  N         66.9460   14.0070   27.2180 N.3   401  TYE401     -0.1298
      3  O         64.6260   14.9470   28.4950 O.3   401  TYE401     -0.2188
      4  CA        65.9680   14.6910   26.3670 C.3   401  TYE401      0.1290
      5  CB        65.6220   14.2370   25.0150 C.3   401  TYE401      0.0480
      6  CG        66.8580   14.2750   24.1280 C.ar  401  TYE401     -0.0204
      7  OH        70.2960   14.3580   21.6710 O.3   401  TYE401     -0.2866
      8  CZ        69.1820   14.3280   22.4650 C.ar  401  TYE401      0.1957
      9  CD1       67.4040   13.0700   23.5830 C.ar  401  TYE401     -0.0009
     10  CD2       67.5120   15.5080   23.8140 C.ar  401  TYE401     -0.0009
     11  CE1       68.5560   13.0940   22.7570 C.ar  401  TYE401      0.0417
     12  CE2       68.6660   15.5380   22.9900 C.ar  401  TYE401      0.0417
@<TRIPOS>BOND
     1     7     8    1
     2     8    11   ar
     3     8    12   ar
     4    11     9   ar
     5    12    10   ar
     6     9     6   ar
     7    10     6   ar
     8     6     5    1
     9     5     4    1
    10     4     1    1
    11     4     2    1
    12     1     3    1
