@<TRIPOS>MOLECULE
1q12_ATP_A_1.pdb
 31 33 0 0 0
SMALL
GASTEIGER

@<TRIPOS>ATOM
      1  PG        -6.4520  -11.7900   10.0380 P.3   382  ATP382      0.5373
      2  O1G       -5.3110  -11.8380   11.0260 O.3   382  ATP382     -0.1143
      3  O2G       -7.6870  -11.0790   10.4450 O.3   382  ATP382     -0.1143
      4  O3G       -5.9350  -11.2510    8.7590 O.2   382  ATP382     -0.2221
      5  PB        -6.1920  -14.6140    9.5060 P.3   382  ATP382      0.2277
      6  O1B       -6.7870  -15.6190    8.6820 O.2   382  ATP382     -0.5168
      7  O2B       -4.8140  -14.7060    9.9680 O.3   382  ATP382     -0.4368
      8  O3B       -6.9440  -13.2300    9.5980 O.3   382  ATP382     -0.2258
      9  PA        -6.6930  -16.5060   11.7550 P.3   382  ATP382      0.2189
     10  O1A       -6.1540  -16.1600   13.0460 O.3   382  ATP382     -0.4371
     11  O2A       -6.8290  -17.8860   11.2900 O.2   382  ATP382     -0.5170
     12  O3A       -7.0560  -15.2950   10.7850 O.3   382  ATP382     -0.2700
     13  O5'       -7.9840  -16.4030   12.4480 O.3   382  ATP382     -0.3112
     14  C5'       -9.2490  -16.4460   12.5310 C.3   382  ATP382      0.1813
     15  C4'      -10.5450  -17.1470   12.3350 C.3   382  ATP382      0.1821
     16  O4'      -10.4480  -18.2830   13.2210 O.3   382  ATP382     -0.3135
     17  C3'      -11.3780  -16.0490   12.8430 C.3   382  ATP382      0.2184
     18  O3'      -12.2980  -15.4880   11.9120 O.3   382  ATP382     -0.2174
     19  C2'      -12.0280  -16.6580   14.1280 C.3   382  ATP382      0.2570
     20  O2'      -13.4280  -16.7580   13.9730 O.3   382  ATP382     -0.2130
     21  C1'      -11.3820  -18.0640   14.3220 C.3   382  ATP382      0.3186
     22  N9       -10.6690  -18.2330   15.6020 N.pl3 382  ATP382     -0.1439
     23  C8        -9.3560  -17.9070   15.9800 C.3   382  ATP382      0.3377
     24  N7        -9.0660  -18.2140   17.2120 N.2   382  ATP382     -0.2095
     25  C5       -10.2590  -18.7680   17.6690 C.2   382  ATP382      0.2526
     26  C6       -10.6540  -19.3360   18.9330 C.2   382  ATP382      0.4393
     27  N6        -9.8220  -19.3890   19.9610 N.pl3 382  ATP382      0.2180
     28  N1       -11.9530  -19.8250   19.0690 N.2   382  ATP382      0.0021
     29  C2       -12.8220  -19.7800   18.0320 C.3   382  ATP382      0.5254
     30  N3       -12.5740  -19.2790   16.8010 N.2   382  ATP382     -0.0055
     31  C4       -11.2290  -18.7890   16.6950 C.2   382  ATP382      0.3518
@<TRIPOS>BOND
     1     6     5    2
     2     4     1    2
     3     5     8    1
     4     5     7    1
     5     5    12    1
     6     8     1    1
     7     1     3    1
     8     1     2    1
     9    12     9    1
    10    11     9    2
    11     9    13    1
    12     9    10    1
    13    18    17    1
    14    15    14    1
    15    15    17    1
    16    15    16    1
    17    13    14    1
    18    17    19    1
    19    16    21    1
    20    20    19    1
    21    19    21    1
    22    21    22    1
    23    22    23    1
    24    22    31    1
    25    23    24    1
    26    31    30    2
    27    31    25    1
    28    30    29    1
    29    24    25    2
    30    25    26    1
    31    29    28    1
    32    26    28    2
    33    26    27    1
