@<TRIPOS>MOLECULE
1q13_TES_A_1.pdb
 21 24 0 0 0
SMALL
GASTEIGER

@<TRIPOS>ATOM
      1  C1        26.3740   -0.8370   31.8490 C.3   501  TES501      0.0118
      2  C2        24.8670   -0.5500   32.0490 C.3   501  TES501      0.0694
      3  C3        24.0040   -1.2690   31.0040 C.2   501  TES501      0.1725
      4  O3        22.8930   -0.8540   30.6550 O.2   501  TES501     -0.2914
      5  C4        24.5240   -2.5140   30.3960 C.2   501  TES501      0.0289
      6  C5        25.7450   -2.9960   30.7260 C.2   501  TES501     -0.0420
      7  C6        26.1770   -4.2650   30.0360 C.3   501  TES501      0.0221
      8  C7        27.2710   -5.1140   30.8470 C.3   501  TES501      0.0044
      9  C8        28.2580   -4.2820   31.6700 C.3   501  TES501      0.0007
     10  C9        28.0980   -2.7650   31.5250 C.3   501  TES501      0.0035
     11  C10       26.6430   -2.3470   31.7800 C.3   501  TES501      0.0157
     12  C11       29.1330   -2.0700   32.4290 C.3   501  TES501      0.0004
     13  C12       30.5720   -2.4600   32.0500 C.3   501  TES501      0.0025
     14  C13       30.7040   -3.9760   32.1640 C.3   501  TES501      0.0282
     15  C14       29.6830   -4.6210   31.2480 C.3   501  TES501      0.0025
     16  C15       30.0720   -6.0980   31.1660 C.3   501  TES501      0.0027
     17  C16       31.5290   -6.1440   31.6400 C.3   501  TES501      0.0329
     18  C17       31.9670   -4.6500   31.6500 C.3   501  TES501      0.1519
     19  O17       33.0610   -4.4390   32.5360 O.3   501  TES501     -0.2232
     20  C18       30.4610   -4.4030   33.6200 C.3   501  TES501      0.0025
     21  C19       26.2370   -2.9870   33.1140 C.3   501  TES501      0.0041
@<TRIPOS>BOND
     1     7     6    1
     2     7     8    1
     3     5     6    2
     4     5     3    1
     5     4     3    2
     6     6    11    1
     7     8     9    1
     8     3     2    1
     9    16    15    1
    10    16    17    1
    11    15     9    1
    12    15    14    1
    13    10     9    1
    14    10    11    1
    15    10    12    1
    16    17    18    1
    17    18    14    1
    18    18    19    1
    19    11     1    1
    20    11    21    1
    21     1     2    1
    22    13    14    1
    23    13    12    1
    24    14    20    1
