@<TRIPOS>MOLECULE
1q13_NAP_A_1.pdb
 48 52 0 0 0
SMALL
GASTEIGER

@<TRIPOS>ATOM
      1  PA        17.4710   -9.6490   31.7370 P.3   401  NAP401      0.2189
      2  O1A       17.5110   -9.6670   33.2350 O.3   401  NAP401     -0.4371
      3  O2A       16.1510   -9.1270   31.1870 O.2   401  NAP401     -0.5170
      4  O5B       17.6830  -11.1440   31.1930 O.3   401  NAP401     -0.3112
      5  C5B       18.5360  -11.4670   30.1080 C.3   401  NAP401      0.1813
      6  C4B       18.7970  -12.9750   30.0310 C.3   401  NAP401      0.1820
      7  O4B       17.6440  -13.7260   30.3430 O.3   401  NAP401     -0.3136
      8  C3B       19.1650  -13.3270   28.5800 C.3   401  NAP401      0.2157
      9  O3B       20.3010  -14.1740   28.6240 O.3   401  NAP401     -0.2175
     10  C2B       17.8900  -13.9490   28.0130 C.3   401  NAP401      0.2314
     11  O2B       18.2080  -14.9460   27.1520 O.3   401  NAP401     -0.2630
     12  C1B       17.3120  -14.5990   29.2990 C.3   401  NAP401      0.3158
     13  N9A       15.8390  -14.7440   29.1190 N.pl3 401  NAP401     -0.1439
     14  C8A       14.9700  -13.8140   28.5430 C.3   401  NAP401      0.3377
     15  N7A       13.7210  -14.3410   28.6040 N.2   401  NAP401     -0.2095
     16  C5A       13.7850  -15.5960   29.0740 C.2   401  NAP401      0.2526
     17  C6A       12.8110  -16.5260   29.3530 C.2   401  NAP401      0.4393
     18  N6A       11.5260  -16.1770   29.2900 N.pl3 401  NAP401      0.2180
     19  N1A       13.2200  -17.7150   30.0090 N.2   401  NAP401      0.0021
     20  C2A       14.5490  -17.9930   30.3470 C.3   401  NAP401      0.5254
     21  N3A       15.5150  -17.0440   30.0710 N.2   401  NAP401     -0.0055
     22  C4A       15.1190  -15.8680   29.4510 C.2   401  NAP401      0.3518
     23  O3        18.8070   -8.9770   31.1500 O.3   401  NAP401     -0.2703
     24  PN        19.3890   -7.4850   31.3420 P.3   401  NAP401      0.2189
     25  O1N       20.0640   -7.4040   32.7270 O.3   401  NAP401     -0.4371
     26  O2N       20.1380   -7.1980   30.1440 O.2   401  NAP401     -0.5170
     27  O5D       18.0980   -6.5550   31.5810 O.3   401  NAP401     -0.3112
     28  C5D       17.1440   -6.2870   30.5620 C.3   401  NAP401      0.1813
     29  C4D       17.2790   -4.8710   30.0150 C.3   401  NAP401      0.1799
     30  O4D       17.4650   -3.8290   30.9760 O.3   401  NAP401     -0.3327
     31  C3D       18.4720   -4.7370   29.0630 C.3   401  NAP401      0.2158
     32  O3D       18.1960   -5.2580   27.7960 O.3   401  NAP401     -0.2175
     33  C2D       18.7350   -3.2450   29.0640 C.3   401  NAP401      0.2309
     34  O2D       17.8020   -2.7450   28.1990 O.3   401  NAP401     -0.2158
     35  C1D       18.2700   -2.7930   30.4770 C.3   401  NAP401      0.2263
     36  N1N       19.4270   -2.5540   31.3240 N.pl3 401  NAP401     -0.2787
     37  C2N       19.7210   -1.2650   31.6910 C.3   401  NAP401      0.1244
     38  C3N       20.8270   -1.0370   32.4850 C.2   401  NAP401      0.0544
     39  C7N       21.0590    0.3090   33.0610 C.2   401  NAP401      0.2818
     40  O7N       22.3740    0.5680   33.4480 O.2   401  NAP401     -0.2670
     41  N7N       20.0720    1.1960   33.2430 N.am  401  NAP401     -0.0839
     42  C4N       21.6440   -2.0870   32.8870 C.2   401  NAP401      0.0033
     43  C5N       21.3130   -3.4060   32.5670 C.2   401  NAP401      0.0157
     44  C6N       20.2080   -3.6020   31.7380 C.2   401  NAP401      0.0633
     45  P2B       18.0740  -14.7830   25.5050 P.3   401  NAP401      0.5328
     46  O1X       18.1550  -13.3860   25.0730 O.3   401  NAP401     -0.1145
     47  O2X       19.1800  -15.6010   24.9400 O.2   401  NAP401     -0.2224
     48  O3X       16.6440  -15.2310   25.2210 O.3   401  NAP401     -0.1145
@<TRIPOS>BOND
     1    47    45    2
     2    46    45    1
     3    48    45    1
     4    45    11    1
     5    11    10    1
     6    32    31    1
     7    10     8    1
     8    10    12    1
     9    34    33    1
    10    14    15    1
    11    14    13    1
    12     8     9    1
    13     8     6    1
    14    15    16    2
    15    31    33    1
    16    31    29    1
    17    33    35    1
    18    16    17    1
    19    16    22    1
    20    13    12    1
    21    13    22    1
    22    18    17    1
    23    12     7    1
    24    17    19    2
    25    22    21    2
    26    19    20    1
    27    29    28    1
    28    29    30    1
    29     6     5    1
    30     6     7    1
    31    21    20    1
    32     5     4    1
    33    26    24    2
    34    35    30    1
    35    35    36    1
    36    28    27    1
    37    23    24    1
    38    23     1    1
    39     3     1    2
    40     4     1    1
    41    36    37    1
    42    36    44    1
    43    24    27    1
    44    24    25    1
    45    37    38    1
    46     1     2    1
    47    44    43    2
    48    38    42    2
    49    38    39    1
    50    43    42    1
    51    39    41   am
    52    39    40    2
