@<TRIPOS>MOLECULE
1q16_HEM_C_1.pdb
 43 50 0 0 0
SMALL
GASTEIGER

@<TRIPOS>ATOM
      1 FE       -147.3970  -13.5200  -13.5000 Fe    806  HEM806      0.0000
      2  CHA     -144.8850  -15.6810  -13.9280 C.2   806  HEM806      0.0000
      3  CHB     -149.2570  -15.9250  -11.8960 C.2   806  HEM806      0.0000
      4  CHC     -149.9310  -11.2810  -13.0800 C.2   806  HEM806      0.0000
      5  CHD     -145.5970  -11.0430  -15.1450 C.2   806  HEM806      0.0000
      6  NA      -147.1220  -15.4290  -13.0170 N.2   806  HEM806      0.0000
      7  C1A     -146.0000  -16.1720  -13.2760 C.2   806  HEM806      0.0000
      8  C2A     -146.1990  -17.5260  -12.7570 C.2   806  HEM806      0.0000
      9  C3A     -147.4100  -17.5940  -12.1940 C.2   806  HEM806      0.0000
     10  C4A     -148.0060  -16.2690  -12.3480 C.2   806  HEM806      0.0000
     11  CMA     -148.1350  -18.7880  -11.4880 C.3   806  HEM806      0.0000
     12  CAA     -145.1490  -18.6440  -12.8740 C.3   806  HEM806      0.0000
     13  CBA     -144.1540  -18.6270  -11.6300 C.3   806  HEM806      0.0000
     14  CGA     -143.2810  -19.8890  -11.4880 C.2   806  HEM806      0.0000
     15  O1A     -143.6850  -20.7820  -10.6860 O.co2 806  HEM806      0.0000
     16  O2A     -142.2470  -19.9430  -12.2270 O.co2 806  HEM806      0.0000
     17  NB      -149.2280  -13.5870  -12.6550 N.ar  806  HEM806      0.0000
     18  C1B     -149.8340  -14.6710  -12.0350 C.ar  806  HEM806      0.0000
     19  C2B     -151.1700  -14.2990  -11.5580 C.ar  806  HEM806      0.0000
     20  C3B     -151.3600  -12.9920  -11.8890 C.ar  806  HEM806      0.0000
     21  C4B     -150.1430  -12.5470  -12.5770 C.ar  806  HEM806      0.0000
     22  CMB     -152.1210  -15.2920  -10.8190 C.3   806  HEM806      0.0000
     23  CAB     -152.6200  -12.0740  -11.6220 C.2   806  HEM806      0.0000
     24  CBB     -153.1490  -11.8040  -10.3810 C.2   806  HEM806      0.0000
     25  NC      -147.7060  -11.5480  -14.0080 N.2   806  HEM806      0.0000
     26  C1C     -148.8330  -10.7940  -13.7380 C.2   806  HEM806      0.0000
     27  C2C     -148.6690   -9.4260  -14.2550 C.2   806  HEM806      0.0000
     28  C3C     -147.4500   -9.3630  -14.8420 C.2   806  HEM806      0.0000
     29  C4C     -146.8470  -10.6930  -14.6860 C.2   806  HEM806      0.0000
     30  CMC     -149.7620   -8.3040  -14.1090 C.3   806  HEM806      0.0000
     31  CAC     -146.7010   -8.1860  -15.5680 C.2   806  HEM806      0.0000
     32  CBC     -147.3620   -7.4480  -16.5140 C.2   806  HEM806      0.0000
     33  ND      -145.6020  -13.3850  -14.3620 N.ar  806  HEM806      0.0000
     34  C1D     -145.0140  -12.2830  -14.9980 C.ar  806  HEM806      0.0000
     35  C2D     -143.6750  -12.6340  -15.4800 C.ar  806  HEM806      0.0000
     36  C3D     -143.4770  -13.9250  -15.1260 C.ar  806  HEM806      0.0000
     37  C4D     -144.6930  -14.3960  -14.4350 C.ar  806  HEM806      0.0000
     38  CMD     -142.7030  -11.6720  -16.2390 C.3   806  HEM806      0.0000
     39  CAD     -142.2470  -14.8750  -15.3330 C.3   806  HEM806      0.0000
     40  CBD     -141.0340  -14.6250  -14.3420 C.3   806  HEM806      0.0000
     41  CGD     -139.7630  -15.3900  -14.7360 C.2   806  HEM806      0.0000
     42  O1D     -139.4970  -16.4280  -14.0470 O.co2 806  HEM806      0.0000
     43  O2D     -139.0980  -14.8940  -15.7140 O.co2 806  HEM806      0.0000
@<TRIPOS>BOND
     1    32    31    2
     2    38    35    1
     3    43    41   ar
     4    31    28    1
     5    35    36   ar
     6    35    34   ar
     7    39    36    1
     8    39    40    1
     9     5    34    2
    10     5    29    1
    11    36    37   ar
    12    34    33   ar
    13    28    29    1
    14    28    27    2
    15    41    40    1
    16    41    42   ar
    17    29    25    2
    18    37    33   ar
    19    37     2    2
    20    33     1    1
    21    27    30    1
    22    27    26    1
    23    25    26    1
    24    25     1    1
    25     2     7    1
    26    26     4    2
    27     1     6    1
    28     1    17    1
    29     7     6    2
    30     7     8    1
    31     4    21    1
    32     6    10    1
    33    12     8    1
    34    12    13    1
    35     8     9    2
    36    17    21   ar
    37    17    18   ar
    38    21    20   ar
    39    10     9    1
    40    10     3    2
    41    16    14   ar
    42     9    11    1
    43    18     3    1
    44    18    19   ar
    45    20    23    1
    46    20    19   ar
    47    13    14    1
    48    23    24    2
    49    19    22    1
    50    14    15   ar
