@<TRIPOS>MOLECULE
1q16_MD1_A_1.pdb
 47 51 0 0 0
SMALL
GASTEIGER

@<TRIPOS>ATOM
      1  PB      -124.3830  -63.4600  -23.9520 P.3   1300  MD11300     0.2189
      2  O3B     -125.6610  -62.5060  -23.7950 O.3   1300  MD11300    -0.2703
      3  O1B     -124.7140  -64.5370  -24.9140 O.2   1300  MD11300    -0.5170
      4  O2B     -123.2410  -62.6330  -24.2920 O.3   1300  MD11300    -0.4371
      5  O3A     -124.1380  -64.1510  -22.5210 O.3   1300  MD11300    -0.3108
      6  C10     -125.0380  -65.0170  -21.8380 C.3   1300  MD11300     0.1870
      7  C11     -124.2040  -65.4490  -20.6030 C.3   1300  MD11300     0.2107
      8  O11     -123.8330  -64.2510  -19.9150 O.3   1300  MD11300    -0.2150
      9  C12     -125.0160  -66.3940  -19.6130 C.2   1300  MD11300     0.0503
     10  S12     -126.6650  -66.8960  -19.9720 S.3   1300  MD11300    -0.0525
     11  C13     -124.5140  -66.8810  -18.3680 C.2   1300  MD11300     0.0425
     12  S13     -125.6340  -67.8530  -17.4340 S.3   1300  MD11300    -0.0531
     13  C14     -123.1260  -66.6650  -17.7170 C.3   1300  MD11300     0.1588
     14  N15     -123.4520  -65.8970  -16.4980 N.2   1300  MD11300    -0.2437
     15  C16     -122.3940  -65.4560  -15.7000 C.2   1300  MD11300     0.2466
     16  C15     -122.5550  -65.2450  -14.3010 C.1   1300  MD11300     0.2441
     17  O14     -123.6350  -65.4590  -13.7470 O.2   1300  MD11300    -0.2063
     18  N17     -121.4170  -64.7740  -13.5870 N.2   1300  MD11300    -0.2474
     19  C17     -120.1650  -64.5120  -14.1810 C.1   1300  MD11300     0.2608
     20  N16     -119.1590  -64.0680  -13.4280 N.pl3 1300  MD11300    -0.0220
     21  N18     -120.0270  -64.7220  -15.5180 N.2   1300  MD11300    -0.2683
     22  C20     -121.0760  -65.1790  -16.3070 C.1   1300  MD11300     0.1270
     23  N8      -120.8830  -65.3740  -17.6860 N.2   1300  MD11300    -0.2051
     24  C7      -122.0530  -65.8630  -18.4930 C.3   1300  MD11300     0.1666
     25  PA      -125.8120  -60.9390  -23.9340 P.3   1300  MD11300     0.2189
     26  O1A     -124.8110  -60.3240  -23.0570 O.3   1300  MD11300    -0.4371
     27  O2A     -127.2550  -60.5930  -23.7230 O.2   1300  MD11300    -0.5170
     28  O5'     -125.3600  -60.8580  -25.4840 O.3   1300  MD11300    -0.3112
     29  C5'     -126.2990  -60.5310  -26.4940 C.3   1300  MD11300     0.1813
     30  C4'     -125.6620  -59.6460  -27.5280 C.3   1300  MD11300     0.1799
     31  O4'     -126.2000  -60.0130  -28.8000 O.3   1300  MD11300    -0.3326
     32  C1'     -126.8930  -58.8940  -29.3830 C.3   1300  MD11300     0.2293
     33  N9      -128.0610  -59.4870  -30.0600 N.pl3 1300  MD11300    -0.2354
     34  C4      -128.0480  -59.9140  -31.3820 C.2   1300  MD11300     0.2300
     35  N3      -126.9660  -59.8600  -32.2770 N.2   1300  MD11300    -0.3074
     36  C2      -127.2290  -60.3550  -33.5190 C.1   1300  MD11300     0.2531
     37  N2      -126.3150  -60.3790  -34.4670 N.pl3 1300  MD11300    -0.0226
     38  N1      -128.4940  -60.8680  -33.8430 N.2   1300  MD11300    -0.2485
     39  C6      -129.5960  -60.9300  -32.9560 C.1   1300  MD11300     0.2372
     40  O6      -130.6780  -61.3960  -33.3110 O.2   1300  MD11300    -0.2069
     41  C5      -129.3390  -60.4160  -31.6420 C.2   1300  MD11300     0.2182
     42  N7      -130.1440  -60.3120  -30.5250 N.2   1300  MD11300    -0.2322
     43  C8      -129.3540  -59.7640  -29.6230 C.3   1300  MD11300     0.2246
     44  C2'     -127.2150  -57.9400  -28.2000 C.3   1300  MD11300     0.2310
     45  O2'     -127.3510  -56.5490  -28.5440 O.3   1300  MD11300    -0.2158
     46  C3'     -126.0140  -58.1760  -27.2590 C.3   1300  MD11300     0.2158
     47  O3'     -124.9020  -57.3150  -27.5020 O.3   1300  MD11300    -0.2175
@<TRIPOS>BOND
     1    37    36    1
     2    38    36    2
     3    38    39    2
     4    36    35    2
     5    40    39    2
     6    39    41    1
     7    35    34    2
     8    41    34    1
     9    41    42    2
    10    34    33    1
    11    42    43    1
    12    33    43    1
    13    33    32    1
    14    32    31    1
    15    32    44    1
    16    31    30    1
    17    45    44    1
    18    44    46    1
    19    30    46    1
    20    30    29    1
    21    47    46    1
    22    29    28    1
    23    28    25    1
    24     3     1    2
    25     4     1    1
    26     1     2    1
    27     1     5    1
    28    25     2    1
    29    25    27    2
    30    25    26    1
    31     5     6    1
    32     6     7    1
    33     7     8    1
    34     7     9    1
    35    10     9    1
    36     9    11    2
    37    24    13    1
    38    24    23    1
    39    11    13    1
    40    11    12    1
    41    13    14    1
    42    23    22    2
    43    14    15    2
    44    22    15    1
    45    22    21    2
    46    15    16    1
    47    21    19    2
    48    16    17    2
    49    16    18    2
    50    19    18    2
    51    19    20    1
