@<TRIPOS>MOLECULE
1q17_APR_A_1.pdb
 36 39 0 0 0
SMALL
GASTEIGER

@<TRIPOS>ATOM
      1  N1        -1.3540    2.5800   14.0270 N.2   1001  APR1001     0.0021
      2  C2        -2.5420    1.8320   13.9820 C.3   1001  APR1001     0.5254
      3  N3        -2.6150    0.4970   14.0390 N.2   1001  APR1001    -0.0055
      4  C4        -1.3700   -0.1430   14.1560 C.2   1001  APR1001     0.3518
      5  C5        -0.0970    0.4470   14.2080 C.2   1001  APR1001     0.2526
      6  C6        -0.0970    1.9110   14.1420 C.2   1001  APR1001     0.4393
      7  N6         1.0120    2.6610   14.1800 N.pl3 1001  APR1001     0.2180
      8  N7         0.8810   -0.5160   14.3200 N.2   1001  APR1001    -0.2095
      9  C8         0.2190   -1.6750   14.3380 C.3   1001  APR1001     0.3377
     10  N9        -1.1460   -1.4990   14.2410 N.pl3 1001  APR1001    -0.1439
     11  C1'       -2.2450   -2.4700   14.2230 C.3   1001  APR1001     0.3186
     12  C2'       -1.9130   -3.8690   13.7730 C.3   1001  APR1001     0.2570
     13  O2'       -2.0330   -4.0630   12.3600 O.3   1001  APR1001    -0.2130
     14  C3'       -2.8350   -4.7620   14.5950 C.3   1001  APR1001     0.2184
     15  O3'       -4.0820   -5.1810   14.0170 O.3   1001  APR1001    -0.2174
     16  O4'       -2.6120   -2.6180   15.5650 O.3   1001  APR1001    -0.3135
     17  C4'       -2.9920   -3.9770   15.8910 C.3   1001  APR1001     0.1821
     18  C5'       -2.1120   -4.4820   17.0130 C.3   1001  APR1001     0.1813
     19  O5'       -2.4640   -5.8370   17.1940 O.3   1001  APR1001    -0.3112
     20  PA        -1.8340   -6.7610   18.3690 P.3   1001  APR1001     0.2189
     21  O1A       -0.5270   -7.4030   18.3130 O.2   1001  APR1001    -0.5170
     22  O2A       -2.6170   -7.9820   18.4450 O.3   1001  APR1001    -0.4371
     23  O3A       -2.0630   -6.0120   19.6640 O.3   1001  APR1001    -0.2703
     24  PB        -3.1230   -5.7370   20.7240 P.3   1001  APR1001     0.2189
     25  O1B       -4.3930   -6.1850   20.2360 O.2   1001  APR1001    -0.5170
     26  O2B       -3.2950   -4.6800   21.5440 O.3   1001  APR1001    -0.4371
     27  O5D       -2.8840   -7.1820   21.4230 O.3   1001  APR1001    -0.3112
     28  C5D       -3.8330   -7.4510   22.6590 C.3   1001  APR1001     0.1813
     29  O4D       -2.7230   -9.5280   23.3080 O.3   1001  APR1001    -0.3237
     30  O1D       -0.9470  -10.6860   23.7980 O.3   1001  APR1001    -0.1869
     31  C1D       -1.7220   -9.9260   24.3640 C.3   1001  APR1001     0.3023
     32  O2D       -1.5860   -9.0700   26.1650 O.3   1001  APR1001    -0.2148
     33  C2D       -1.3590   -8.7970   25.0470 C.3   1001  APR1001     0.2433
     34  O3D       -2.7090   -6.4330   25.3580 O.3   1001  APR1001    -0.2175
     35  C3D       -2.1820   -7.5090   24.5480 C.3   1001  APR1001     0.2168
     36  C4D       -3.1760   -8.1420   23.7530 C.3   1001  APR1001     0.1807
@<TRIPOS>BOND
     1    13    12    1
     2    12    11    1
     3    12    14    1
     4     2     1    1
     5     2     3    1
     6    15    14    1
     7     1     6    2
     8     3     4    2
     9     6     7    1
    10     6     5    1
    11     4     5    1
    12     4    10    1
    13     5     8    2
    14    11    10    1
    15    11    16    1
    16    10     9    1
    17     8     9    1
    18    14    17    1
    19    16    17    1
    20    17    18    1
    21    18    19    1
    22    19    20    1
    23    21    20    2
    24    20    22    1
    25    20    23    1
    26    23    24    1
    27    25    24    2
    28    24    27    1
    29    24    26    1
    30    27    28    1
    31    28    36    1
    32    29    36    1
    33    29    31    1
    34    36    35    1
    35    30    31    1
    36    31    33    1
    37    35    33    1
    38    35    34    1
    39    33    32    1
