@<TRIPOS>MOLECULE
1q19_SSC_A_1.pdb
 12 12 0 0 0
SMALL
GASTEIGER

@<TRIPOS>ATOM
      1  NS       -12.5940    8.1700   73.2410 N.3   506  SSC506     -0.2092
      2  C1S      -13.7190    7.5030   73.8700 C.3   506  SSC506      0.1757
      3  CS       -14.7270    7.1750   72.7840 C.2   506  SSC506      0.3803
      4  O1S      -15.3830    7.9880   71.7430 O.co2 506  SSC506     -0.2441
      5  O2S      -15.2050    5.7930   72.6570 O.co2 506  SSC506     -0.2441
      6  CSS      -14.2080    8.5030   74.9260 C.3   506  SSC506      0.0304
      7  C3S      -12.9750    9.2510   75.3360 C.3   506  SSC506      0.0200
      8  C4S      -12.0750    9.2790   74.0840 C.3   506  SSC506      0.0847
      9  C5S      -10.6290    8.8970   74.3530 C.3   506  SSC506      0.1314
     10  C6S       -9.3940    9.4080   75.0890 C.2   506  SSC506      0.3663
     11  O3S       -9.3600    9.3130   76.3450 O.co2 506  SSC506     -0.2456
     12  O4S       -8.4460    9.9080   74.4120 O.co2 506  SSC506     -0.2456
@<TRIPOS>BOND
     1     4     3   ar
     2     5     3   ar
     3     3     2    1
     4     1     2    1
     5     1     8    1
     6     2     6    1
     7     8     9    1
     8     8     7    1
     9     9    10    1
    10    12    10   ar
    11     6     7    1
    12    10    11   ar
