@<TRIPOS>MOLECULE
1q19_APC_A_1.pdb
 31 33 0 0 0
SMALL
GASTEIGER

@<TRIPOS>ATOM
      1  PG       -22.8480    7.2300   73.0970 P.3   505  APC505      0.5389
      2  O1G      -22.0580    7.8500   71.9490 O.2   505  APC505     -0.2220
      3  O2G      -24.2770    7.6070   72.9950 O.3   505  APC505     -0.1143
      4  O3G      -22.2010    7.6930   74.4720 O.3   505  APC505     -0.1143
      5  PB       -21.6440    4.6920   72.8200 P.3   505  APC505      0.3895
      6  O1B      -22.0020    3.2450   73.0280 O.3   505  APC505     -0.1388
      7  O2B      -21.3150    4.9030   71.4360 O.2   505  APC505     -0.2544
      8  O3B      -22.8140    5.6390   73.1630 O.3   505  APC505     -0.2026
      9  PA       -18.9830    5.4090   74.1680 P.3   505  APC505      0.3820
     10  O1A      -18.1150    6.6070   73.7180 O.2   505  APC505     -0.2548
     11  O2A      -19.8650    5.6290   75.4260 O.3   505  APC505     -0.1392
     12  C3A      -20.0730    4.9770   73.0870 C.3   505  APC505      0.2357
     13  O5'      -18.5060    4.1840   73.8840 O.3   505  APC505     -0.2896
     14  C5'      -17.6960    3.2790   73.9750 C.3   505  APC505      0.1836
     15  C4'      -17.5970    1.9920   73.5080 C.3   505  APC505      0.1822
     16  O4'      -17.3930    1.1490   74.5710 O.3   505  APC505     -0.3135
     17  C3'      -18.8120    1.4340   72.7190 C.3   505  APC505      0.2184
     18  O3'      -18.7670    1.3780   71.3390 O.3   505  APC505     -0.2174
     19  C2'      -19.0520    0.1100   73.4460 C.3   505  APC505      0.2570
     20  O2'      -18.7340   -0.9800   72.5500 O.3   505  APC505     -0.2130
     21  C1'      -18.1840   -0.0200   74.7340 C.3   505  APC505      0.3186
     22  N9       -19.1780    0.1100   75.8890 N.pl3 505  APC505     -0.1439
     23  C8       -19.4510    1.2220   76.7100 C.3   505  APC505      0.3377
     24  N7       -20.3530    1.0770   77.6530 N.2   505  APC505     -0.2095
     25  C5       -20.7530   -0.2390   77.5120 C.2   505  APC505      0.2526
     26  C6       -21.7360   -1.0750   78.2640 C.2   505  APC505      0.4393
     27  N6       -22.3860   -0.6510   79.2060 N.pl3 505  APC505      0.2180
     28  N1       -21.8350   -2.4380   77.7700 N.2   505  APC505      0.0021
     29  C2       -21.0860   -3.0040   76.6570 C.3   505  APC505      0.5254
     30  N3       -20.1910   -2.2390   75.9700 N.2   505  APC505     -0.0055
     31  C4       -20.0370   -0.8790   76.4030 C.2   505  APC505      0.3518
@<TRIPOS>BOND
     1    18    17    1
     2     7     5    2
     3     2     1    2
     4    20    19    1
     5    17    19    1
     6    17    15    1
     7     5     6    1
     8     5    12    1
     9     5     8    1
    10     3     1    1
    11    12     9    1
    12     1     8    1
    13     1     4    1
    14    19    21    1
    15    15    14    1
    16    15    16    1
    17    10     9    2
    18    13    14    1
    19    13     9    1
    20     9    11    1
    21    16    21    1
    22    21    22    1
    23    22    31    1
    24    22    23    1
    25    30    31    2
    26    30    29    1
    27    31    25    1
    28    29    28    1
    29    23    24    1
    30    25    24    2
    31    25    26    1
    32    28    26    2
    33    26    27    1
