@<TRIPOS>MOLECULE
1q1a_OAD_A_1.pdb
 39 42 0 0 0
SMALL
GASTEIGER

@<TRIPOS>ATOM
      1  PA         8.8140   30.6850   -2.7670 P.3   1001  OAD1001     0.2189
      2  O1A        9.9640   29.8000   -2.8650 O.3   1001  OAD1001    -0.4371
      3  O2A        8.5170   31.7480   -3.7100 O.2   1001  OAD1001    -0.5170
      4  O5'        8.8520   31.3800   -1.3510 O.3   1001  OAD1001    -0.3112
      5  C5'        9.1370   30.6620   -0.1200 C.3   1001  OAD1001     0.1813
      6  C4'        9.0960   31.7340    0.9930 C.3   1001  OAD1001     0.1821
      7  O4'        9.2790   31.0960    2.2580 O.3   1001  OAD1001    -0.3135
      8  C3'       10.1910   32.7860    0.9360 C.3   1001  OAD1001     0.2184
      9  O3'        9.7040   34.1130    1.0080 O.3   1001  OAD1001    -0.2174
     10  C2'       11.1660   32.3350    2.0110 C.3   1001  OAD1001     0.2570
     11  O2'       11.9110   33.4030    2.5950 O.3   1001  OAD1001    -0.2130
     12  C1'       10.3160   31.6490    3.0130 C.3   1001  OAD1001     0.3186
     13  N9        10.8330   30.4940    3.7140 N.pl3 1001  OAD1001    -0.1439
     14  C8        11.6710   29.4920    3.3130 C.3   1001  OAD1001     0.3377
     15  N7        11.8950   28.5880    4.2670 N.2   1001  OAD1001    -0.2095
     16  C5        11.1710   29.0140    5.3270 C.2   1001  OAD1001     0.2526
     17  C6        10.9470   28.5110    6.6830 C.2   1001  OAD1001     0.4393
     18  N6        11.4970   27.3860    7.1530 N.pl3 1001  OAD1001     0.2180
     19  N1        10.0850   29.2590    7.5510 N.2   1001  OAD1001     0.0021
     20  C2         9.4740   30.4600    7.0970 C.3   1001  OAD1001     0.5254
     21  N3         9.6310   30.9840    5.8640 N.2   1001  OAD1001    -0.0055
     22  C4        10.4880   30.2230    5.0210 C.2   1001  OAD1001     0.3518
     23  O3A        7.6040   29.8130   -2.8550 O.3   1001  OAD1001    -0.2703
     24  PB         6.0340   29.7630   -2.8020 P.3   1001  OAD1001     0.2189
     25  O1B        5.6810   31.1120   -2.4940 O.2   1001  OAD1001    -0.5170
     26  O2B        5.1680   28.9020   -2.1930 O.3   1001  OAD1001    -0.4371
     27  O2D        4.9560   26.2030   -7.8530 O.3   1001  OAD1001    -0.4441
     28  O5D        6.1300   29.6970   -4.3850 O.3   1001  OAD1001    -0.3112
     29  C5D        4.7960   29.6530   -5.0600 C.3   1001  OAD1001     0.1813
     30  C4D        4.9020   28.6950   -6.0780 C.3   1001  OAD1001     0.1819
     31  O4D        5.7840   29.1710   -7.1510 O.3   1001  OAD1001    -0.3229
     32  C3D        4.7760   27.1290   -5.8850 C.3   1001  OAD1001     0.2264
     33  O3D        3.5660   26.6480   -5.4390 O.3   1001  OAD1001    -0.2164
     34  C2D        5.7800   26.8390   -7.1320 C.3   1001  OAD1001     0.2601
     35  C1D        6.4030   27.8110   -7.8890 C.3   1001  OAD1001     0.3122
     36  O1D        6.3060   28.1730   -9.1860 O.3   1001  OAD1001    -0.1857
     37  C6D        4.4820   25.2250   -8.1490 C.2   1001  OAD1001     0.3177
     38  O6D        3.2040   24.5450   -9.0290 O.2   1001  OAD1001    -0.2501
     39  C7D        5.0050   24.0370   -7.3710 C.3   1001  OAD1001     0.1212
@<TRIPOS>BOND
     1    36    35    1
     2    38    37    2
     3    37    27    1
     4    37    39    1
     5    35    31    1
     6    35    34    1
     7    27    34    1
     8    31    30    1
     9    34    32    1
    10    30    32    1
    11    30    29    1
    12    32    33    1
    13    29    28    1
    14    28    24    1
    15     3     1    2
    16     2     1    1
    17    23    24    1
    18    23     1    1
    19    24    25    2
    20    24    26    1
    21     1     4    1
    22     4     5    1
    23     5     6    1
    24     8     6    1
    25     8     9    1
    26     8    10    1
    27     6     7    1
    28    10    11    1
    29    10    12    1
    30     7    12    1
    31    12    13    1
    32    14    13    1
    33    14    15    1
    34    13    22    1
    35    15    16    2
    36    22    16    1
    37    22    21    2
    38    16    17    1
    39    21    20    1
    40    17    18    1
    41    17    19    2
    42    20    19    1
