@<TRIPOS>MOLECULE
1q1f_HEM_A_1.pdb
 43 50 0 0 0
SMALL
GASTEIGER

@<TRIPOS>ATOM
      1 FE         17.3400   54.5970   34.8030 Fe    200  HEM200      0.0000
      2  CHA       19.0060   57.4200   35.7000 C.2   200  HEM200      0.0000
      3  CHB       14.6200   56.4750   33.8520 C.2   200  HEM200      0.0000
      4  CHC       15.4780   51.7630   34.5740 C.2   200  HEM200      0.0000
      5  CHD       20.1210   52.6780   35.5740 C.2   200  HEM200      0.0000
      6  NA        16.8630   56.5050   34.8360 N.ar  200  HEM200      0.0000
      7  C1A       17.7540   57.5480   35.1530 C.ar  200  HEM200      0.0000
      8  C2A       17.1840   58.7820   34.7800 C.ar  200  HEM200      0.0000
      9  C3A       15.9760   58.5550   34.2190 C.ar  200  HEM200      0.0000
     10  C4A       15.7660   57.1380   34.2910 C.ar  200  HEM200      0.0000
     11  CMA       14.9440   59.5240   33.6540 C.3   200  HEM200      0.0000
     12  CAA       17.8020   60.1990   34.9060 C.3   200  HEM200      0.0000
     13  CBA       18.2780   60.7180   33.5420 C.3   200  HEM200      0.0000
     14  CGA       19.4180   59.8860   33.0300 C.2   200  HEM200      0.0000
     15  O1A       20.4170   59.6930   33.8050 O.co2 200  HEM200      0.0000
     16  O2A       19.3540   59.4320   31.8940 O.co2 200  HEM200      0.0000
     17  NB        15.4640   54.1860   34.3140 N.2   200  HEM200      0.0000
     18  C1B       14.5560   55.1200   33.9730 C.2   200  HEM200      0.0000
     19  C2B       13.2770   54.4030   33.7410 C.2   200  HEM200      0.0000
     20  C3B       13.4670   53.1260   33.9850 C.2   200  HEM200      0.0000
     21  C4B       14.8520   52.9350   34.3070 C.2   200  HEM200      0.0000
     22  CMB       11.9680   55.1140   33.3500 C.3   200  HEM200      0.0000
     23  CAB       12.5330   51.8930   33.8650 C.2   200  HEM200      0.0000
     24  CBB       11.2290   51.9440   34.0510 C.2   200  HEM200      0.0000
     25  NC        17.7250   52.6510   35.0110 N.ar  200  HEM200      0.0000
     26  C1C       16.7890   51.6120   34.8980 C.ar  200  HEM200      0.0000
     27  C2C       17.3900   50.3870   35.3360 C.ar  200  HEM200      0.0000
     28  C3C       18.6930   50.6350   35.6500 C.ar  200  HEM200      0.0000
     29  C4C       18.8790   52.0500   35.3920 C.ar  200  HEM200      0.0000
     30  CMC       16.6290   49.0250   35.3850 C.3   200  HEM200      0.0000
     31  CAC       19.7570   49.6640   36.0760 C.2   200  HEM200      0.0000
     32  CBC       19.8990   48.3440   35.8090 C.2   200  HEM200      0.0000
     33  ND        19.1510   54.9790   35.4930 N.2   200  HEM200      0.0000
     34  C1D       20.1410   54.0410   35.6340 C.2   200  HEM200      0.0000
     35  C2D       21.3500   54.7540   36.0450 C.2   200  HEM200      0.0000
     36  C3D       21.0410   56.0350   36.0940 C.2   200  HEM200      0.0000
     37  C4D       19.6590   56.2320   35.7360 C.2   200  HEM200      0.0000
     38  CMD       22.6830   54.0450   36.2490 C.3   200  HEM200      0.0000
     39  CAD       21.9310   57.2330   36.5200 C.3   200  HEM200      0.0000
     40  CBD       21.5340   57.4430   38.0480 C.3   200  HEM200      0.0000
     41  CGD       22.3290   58.6020   38.6350 C.2   200  HEM200      0.0000
     42  O1D       21.8600   59.7270   38.7000 O.co2 200  HEM200      0.0000
     43  O2D       23.5210   58.4130   38.9070 O.co2 200  HEM200      0.0000
@<TRIPOS>BOND
     1    16    14   ar
     2    14    13    1
     3    14    15   ar
     4    22    19    1
     5    13    12    1
     6    11     9    1
     7    19    18    1
     8    19    20    2
     9     3    18    1
    10     3    10    2
    11    23    20    1
    12    23    24    2
    13    18    17    2
    14    20    21    1
    15     9    10   ar
    16     9     8   ar
    17    10     6   ar
    18    21    17    1
    19    21     4    2
    20    17     1    1
    21     4    26    1
    22     8    12    1
    23     8     7   ar
    24     1     6    1
    25     1    25    1
    26     1    33    1
    27     6     7   ar
    28    26    25   ar
    29    26    27   ar
    30    25    29   ar
    31     7     2    2
    32    27    30    1
    33    27    28   ar
    34    29     5    1
    35    29    28   ar
    36    33    34    1
    37    33    37    2
    38     5    34    2
    39    34    35    1
    40    28    31    1
    41     2    37    1
    42    37    36    1
    43    32    31    2
    44    35    36    2
    45    35    38    1
    46    36    39    1
    47    39    40    1
    48    40    41    1
    49    41    42   ar
    50    41    43   ar
