@<TRIPOS>MOLECULE
1q1g_MTI_A_1.pdb
 20 22 0 0 0
SMALL
GASTEIGER

@<TRIPOS>ATOM
      1  CS        10.0600    1.4930   95.8060 C.3   301  MTI301      0.0692
      2  S5'        9.1690    0.7520   94.4400 S.3   301  MTI301     -0.1378
      3  C5'        8.4420    2.2270   93.6690 C.3   301  MTI301      0.0776
      4  C4'        8.2100    2.0730   92.1670 C.3   301  MTI301      0.1168
      5  N4'        7.2450    3.0960   91.7510 N.3   301  MTI301     -0.2101
      6  C2'        9.3560    3.7780   90.8520 C.3   301  MTI301      0.2035
      7  O2'        9.7040    3.9350   89.4300 O.3   301  MTI301     -0.2185
      8  C3'        9.4870    2.2590   91.3320 C.3   301  MTI301      0.2005
      9  O3'        9.4770    1.3230   90.1740 O.3   301  MTI301     -0.2188
     10  C1'        7.8870    4.2530   91.1400 C.3   301  MTI301      0.1309
     11  C9         7.7120    5.4680   92.1150 C.2   301  MTI301      0.0348
     12  C8         6.4840    5.9820   92.5230 C.2   301  MTI301      0.0984
     13  N7         6.5410    7.0010   93.3410 N.2   301  MTI301     -0.2310
     14  C5         7.8920    7.2270   93.5320 C.2   301  MTI301      0.1804
     15  C6         8.5660    8.2330   94.3350 C.1   301  MTI301      0.1716
     16  O6         8.0270    9.1020   95.0270 O.2   301  MTI301     -0.2206
     17  N1         9.9960    8.1590   94.2860 N.2   301  MTI301     -0.1739
     18  C2        10.7160    7.2090   93.5330 C.3   301  MTI301      0.2626
     19  N3        10.0740    6.2510   92.7650 N.2   301  MTI301     -0.2415
     20  C4         8.6570    6.3040   92.7940 C.2   301  MTI301      0.1059
@<TRIPOS>BOND
     1     7     6    1
     2     9     8    1
     3     6    10    1
     4     6     8    1
     5    10     5    1
     6    10    11    1
     7     8     4    1
     8     5     4    1
     9    11    12    2
    10    11    20    1
    11     4     3    1
    12    12    13    1
    13    19    20    2
    14    19    18    1
    15    20    14    1
    16    13    14    2
    17    14    15    1
    18    18    17    1
    19     3     2    1
    20    17    15    2
    21    15    16    2
    22     2     1    1
