@<TRIPOS>MOLECULE
1q1k_PRT_A_1.pdb
 44 47 0 0 0
SMALL
GASTEIGER

@<TRIPOS>ATOM
      1  O1G       41.7840   37.6650   41.7190 O.3   500  PRT500     -0.1143
      2  PG        42.8280   38.7600   41.8320 P.3   500  PRT500      0.5373
      3  O2G       43.7620   38.2370   42.8860 O.3   500  PRT500     -0.1143
      4  O3G       43.4800   39.4630   40.6610 O.2   500  PRT500     -0.2221
      5  O3B       41.9490   39.9580   42.4630 O.3   500  PRT500     -0.2258
      6  PB        40.8480   39.7780   43.6440 P.3   500  PRT500      0.2277
      7  O1B       39.4890   40.2720   43.1510 O.2   500  PRT500     -0.5168
      8  O2B       40.9450   38.3400   44.0960 O.3   500  PRT500     -0.4368
      9  O3A       41.4670   40.8020   44.7860 O.3   500  PRT500     -0.2700
     10  PA        41.0560   40.9690   46.3740 P.3   500  PRT500      0.2189
     11  O1A       41.8750   40.0210   47.2600 O.3   500  PRT500     -0.4371
     12  O2A       39.5300   40.9950   46.4190 O.2   500  PRT500     -0.5170
     13  O5'       41.4710   42.4860   46.7670 O.3   500  PRT500     -0.3108
     14  C5'       41.9990   42.7340   48.1020 C.3   500  PRT500      0.1867
     15  C4'       43.3180   42.0180   48.1680 C.3   500  PRT500      0.2137
     16  O4'       44.3490   42.2860   47.1810 O.3   500  PRT500     -0.3042
     17  C3'       43.8060   41.7160   49.3420 C.2   500  PRT500      0.2436
     18  O3'       43.0630   41.2120   50.2310 O.2   500  PRT500     -0.2854
     19  C2'       45.1070   42.2420   49.3000 C.2   500  PRT500      0.2824
     20  O2'       46.1360   41.7370   49.8270 O.2   500  PRT500     -0.2811
     21  C1'       45.1510   43.0230   48.1590 C.3   500  PRT500      0.3523
     22  N9        45.8780   44.1020   48.0110 N.pl3 500  PRT500     -0.1399
     23  C8        46.4570   44.9040   48.9500 C.3   500  PRT500      0.3376
     24  C4        45.8240   44.7490   46.8290 C.2   500  PRT500      0.3397
     25  C5        46.4430   46.0750   47.1050 C.2   500  PRT500      0.1722
     26  N7        46.8010   46.1100   48.4100 N.2   500  PRT500     -0.2179
     27  C6        46.5280   47.0180   45.9560 C.3   500  PRT500      0.2039
     28  N6        47.0930   48.2400   46.1680 N.3   500  PRT500     -0.1079
     29  N3        45.3690   44.4700   45.5800 N.2   500  PRT500     -0.0443
     30  C2        45.4790   45.3870   44.5740 C.3   500  PRT500      0.3459
     31  N1        46.0250   46.6340   44.7470 N.3   500  PRT500     -0.1783
     32  C11       46.1630   47.5210   43.6960 C.3   500  PRT500      0.2478
     33  C12       45.2610   48.2290   43.0020 C.2   500  PRT500      0.2529
     34  O12       44.2940   47.7490   42.4390 O.2   500  PRT500     -0.2841
     35  C13       45.8440   49.3260   42.5350 C.2   500  PRT500      0.2407
     36  O13       45.5340   49.8180   41.4590 O.2   500  PRT500     -0.2855
     37  O14       47.4880   48.0500   43.4130 O.3   500  PRT500     -0.3261
     38  C14       47.0780   49.3820   43.0350 C.3   500  PRT500      0.2113
     39  C15       47.7390   50.4730   43.4610 C.3   500  PRT500      0.1913
     40  O15       48.7370   50.3840   44.5270 O.3   500  PRT500     -0.2671
     41  P         49.5650   51.7040   44.9590 P.3   500  PRT500      0.5327
     42  O3P       50.8920   51.1970   45.4360 O.3   500  PRT500     -0.1145
     43  O1P       49.8000   52.5080   43.7070 O.2   500  PRT500     -0.2224
     44  O2P       48.8550   52.3790   46.1140 O.3   500  PRT500     -0.1145
@<TRIPOS>BOND
     1     4     2    2
     2    36    35    2
     3     1     2    1
     4     2     5    1
     5     2     3    1
     6    34    33    2
     7     5     6    1
     8    35    33    1
     9    35    38    1
    10    33    32    1
    11    38    37    1
    12    38    39    1
    13     7     6    2
    14    37    32    1
    15    39    40    1
    16     6     8    1
    17     6     9    1
    18    32    31    1
    19    43    41    2
    20    40    41    1
    21    30    31    1
    22    30    29    1
    23    31    27    1
    24     9    10    1
    25    41    42    1
    26    41    44    1
    27    29    24    2
    28    27    28    1
    29    27    25    1
    30    10    12    2
    31    10    13    1
    32    10    11    1
    33    13    14    1
    34    24    25    1
    35    24    22    1
    36    25    26    2
    37    16    21    1
    38    16    15    1
    39    22    21    1
    40    22    23    1
    41    14    15    1
    42    21    19    1
    43    15    17    1
    44    26    23    1
    45    19    17    1
    46    19    20    2
    47    17    18    2
