@<TRIPOS>MOLECULE
1q1m_234_A_1.pdb
 30 32 0 0 0
SMALL
GASTEIGER

@<TRIPOS>ATOM
      1  C1        33.0460   31.0940   18.4330 C.ar  322  234322      0.1431
      2  C2        32.5060   30.4810   19.6090 C.ar  322  234322      0.0647
      3  C3        31.1140   30.6200   19.8430 C.ar  322  234322      0.0054
      4  C4        30.2740   31.3340   18.9520 C.ar  322  234322      0.0000
      5  C5        30.8390   31.9260   17.7920 C.ar  322  234322      0.0023
      6  C6        32.2250   31.8120   17.5260 C.ar  322  234322      0.0297
      7  C7        33.2940   29.7050   20.6230 C.ar  322  234322      0.1793
      8  O12       32.6890   29.1670   21.7470 O.2   322  234322     -0.3531
      9  N13       33.7090   28.5200   22.4770 N.ar  322  234322     -0.0702
     10  C14       34.8870   28.6610   21.8140 C.ar  322  234322      0.2023
     11  C15       34.6190   29.4330   20.6050 C.ar  322  234322      0.0694
     12  C16       36.2540   28.1260   22.2250 C.2   322  234322      0.4084
     13  O1        37.2240   28.8720   22.2250 O.co2 322  234322     -0.2387
     14  O2        36.2880   26.8000   22.5800 O.co2 322  234322     -0.2387
     15  C8        28.8090   31.4860   19.1960 C.2   322  234322     -0.0009
     16  C32       24.7490   29.9960   21.4990 C.ar  322  234322      0.1484
     17  C33       23.9270   31.1860   21.5410 C.ar  322  234322      0.0373
     18  C34       22.5400   31.1190   21.8360 C.ar  322  234322      0.0064
     19  C35       21.9370   29.8670   22.0990 C.ar  322  234322      0.0425
     20  C36       22.7000   28.6690   22.0720 C.ar  322  234322      0.2049
     21  C37       24.1110   28.7080   21.7780 C.ar  322  234322      0.1482
     22  C38       24.8700   27.4200   21.7670 C.2   322  234322      0.3475
     23  O11       24.9340   26.7280   22.7660 O.2   322  234322     -0.2447
     24  O4        25.4600   27.0980   20.6020 O.3   322  234322     -0.4412
     25  C39       26.2110   25.8660   20.5310 C.3   322  234322      0.2560
     26  O14       22.0090   27.4920   22.3470 O.3   322  234322     -0.2862
     27  O3        26.1550   30.0390   21.2020 O.3   322  234322     -0.4703
     28  C40       26.6500   31.1500   20.4670 C.3   322  234322      0.2318
     29  C41       28.1310   30.9790   20.2660 C.2   322  234322      0.0207
     30  F1        34.3520   31.0140   18.1420 F     322  234322     -0.2041
@<TRIPOS>BOND
     1     6     5   ar
     2     6     1   ar
     3     5     4   ar
     4    30     1    1
     5     1     2   ar
     6     4    15    1
     7     4     3   ar
     8    15    29    2
     9     2     3   ar
    10     2     7    1
    11    29    28    1
    12    28    27    1
    13    25    24    1
    14    24    22    1
    15    11     7   ar
    16    11    10   ar
    17     7     8   ar
    18    27    16    1
    19    16    17   ar
    20    16    21   ar
    21    17    18   ar
    22     8     9   ar
    23    22    21    1
    24    22    23    2
    25    21    20   ar
    26    10    12    1
    27    10     9   ar
    28    18    19   ar
    29    20    19   ar
    30    20    26    1
    31    13    12   ar
    32    12    14   ar
