@<TRIPOS>MOLECULE
1q1q_A3P_A_1.pdb
 27 29 0 0 0
SMALL
GASTEIGER

@<TRIPOS>ATOM
      1  P1        23.5070   14.8130   16.5110 P.3   352  A3P352      0.5327
      2  O1P       22.0430   14.8390   16.2260 O.3   352  A3P352     -0.1145
      3  O2P       23.9920   13.4260   16.5940 O.3   352  A3P352     -0.1145
      4  O3P       24.3010   15.5590   15.5000 O.2   352  A3P352     -0.2224
      5  P2        21.3760   17.3710   23.4630 P.3   352  A3P352      0.5327
      6  O4P       20.0030   17.1390   22.8960 O.2   352  A3P352     -0.2224
      7  O5P       21.6040   16.5110   24.6490 O.3   352  A3P352     -0.1145
      8  O6P       21.5710   18.7990   23.8080 O.3   352  A3P352     -0.1145
      9  O5'       22.4820   16.9810   22.3610 O.3   352  A3P352     -0.2675
     10  C5'       22.2030   16.0900   21.2750 C.3   352  A3P352      0.1859
     11  C4'       23.3200   16.1480   20.2300 C.3   352  A3P352      0.1796
     12  O4'       24.6130   15.9700   20.8950 O.3   352  A3P352     -0.3136
     13  C3'       23.2480   15.0290   19.2010 C.3   352  A3P352      0.1928
     14  O3'       23.7500   15.5290   17.9380 O.3   352  A3P352     -0.2673
     15  C2'       24.1060   13.9780   19.8890 C.3   352  A3P352      0.2543
     16  O2'       24.5320   12.8770   19.1280 O.3   352  A3P352     -0.2131
     17  C1'       25.2670   14.8490   20.3350 C.3   352  A3P352      0.3185
     18  N9        26.1490   14.1800   21.2960 N.pl3 352  A3P352     -0.1439
     19  C8        25.8470   13.6240   22.5150 C.3   352  A3P352      0.3377
     20  N7        26.8680   13.0980   23.1380 N.2   352  A3P352     -0.2095
     21  C5        27.9160   13.3220   22.2810 C.2   352  A3P352      0.2526
     22  C6        29.3020   12.9970   22.3480 C.2   352  A3P352      0.4393
     23  N6        29.8530   12.3640   23.3840 N.pl3 352  A3P352      0.2180
     24  N1        30.1080   13.3680   21.2990 N.2   352  A3P352      0.0021
     25  C2        29.5610   14.0120   20.2420 C.3   352  A3P352      0.5254
     26  N3        28.2570   14.3700   20.0710 N.2   352  A3P352     -0.0055
     27  C4        27.4910   13.9860   21.1290 C.2   352  A3P352      0.3518
@<TRIPOS>BOND
     1     4     1    2
     2     2     1    1
     3     1     3    1
     4     1    14    1
     5    14    13    1
     6    16    15    1
     7    13    15    1
     8    13    11    1
     9    15    17    1
    10    26    25    1
    11    26    27    2
    12    11    12    1
    13    11    10    1
    14    25    24    1
    15    17    12    1
    16    17    18    1
    17    27    18    1
    18    27    21    1
    19    10     9    1
    20    18    19    1
    21    24    22    2
    22    21    22    1
    23    21    20    2
    24    22    23    1
    25     9     5    1
    26    19    20    1
    27     6     5    2
    28     5     8    1
    29     5     7    1
