@<TRIPOS>MOLECULE
1q1s_III_A_1.pdb
 45 44 0 0 0
SMALL
GASTEIGER

@<TRIPOS>ATOM
      1  N         43.9340   51.9680   38.3600 N.3   128  LYS128     -0.1231
      2  CA        42.4510   51.9440   38.5220 C.3   128  LYS128      0.1693
      3  C         41.9690   52.9510   39.5660 C.2   128  LYS128      0.2592
      4  O         41.2180   53.8750   39.2390 O.2   128  LYS128     -0.2718
      5  CB        41.9880   50.5260   38.8860 C.3   128  LYS128      0.0285
      6  CG        41.9710   49.5780   37.6940 C.3   128  LYS128      0.0035
      7  CD        41.0720   50.1420   36.6000 C.3   128  LYS128      0.0206
      8  CE        41.1520   49.3480   35.3100 C.3   128  LYS128      0.1093
      9  NZ        40.3600   50.0050   34.2220 N.3   128  LYS128     -0.1314
     10  N         42.3940   52.7660   40.8140 N.am  129  LYS129     -0.1966
     11  CA        42.0280   53.6710   41.9060 C.3   129  LYS129      0.1728
     12  C         42.6790   55.0260   41.6230 C.2   129  LYS129      0.2616
     13  O         43.8970   55.1650   41.7560 O.2   129  LYS129     -0.2715
     14  CB        42.5620   53.1420   43.2420 C.3   129  LYS129      0.0311
     15  CG        41.9750   51.8240   43.7210 C.3   129  LYS129      0.0038
     16  CD        40.6930   52.0400   44.4950 C.3   129  LYS129      0.0206
     17  CE        40.3090   50.7980   45.2710 C.3   129  LYS129      0.1093
     18  NZ        39.0800   51.0200   46.0730 N.3   129  LYS129     -0.1314
     19  N         41.8830   56.0190   41.2360 N.am  130  ARG130     -0.1963
     20  CA        42.4230   57.3450   40.9360 C.3   130  ARG130      0.1729
     21  C         42.0380   58.3780   41.9950 C.2   130  ARG130      0.2616
     22  O         40.8930   58.4330   42.4500 O.2   130  ARG130     -0.2715
     23  CB        41.9490   57.8090   39.5600 C.3   130  ARG130      0.0348
     24  CG        40.4590   57.9770   39.4800 C.3   130  ARG130      0.0492
     25  CD        40.0140   58.5730   38.1590 C.3   130  ARG130      0.2205
     26  NE        38.5970   58.9010   38.2260 N.pl3 130  ARG130     -0.0865
     27  CZ        37.6510   58.0210   38.5350 C.cat 130  ARG130      0.5346
     28  NH1       37.9710   56.7580   38.7960 N.pl3 130  ARG130      0.1354
     29  NH2       36.3880   58.4080   38.6070 N.pl3 130  ARG130      0.1354
     30  N         43.0020   59.2170   42.3590 N.am  131  LYS131     -0.1963
     31  CA        42.8010   60.2240   43.3960 C.3   131  LYS131      0.1728
     32  C         42.4030   61.6250   42.9600 C.2   131  LYS131      0.2616
     33  O         42.3270   61.9430   41.7700 O.2   131  LYS131     -0.2715
     34  CB        44.0690   60.3460   44.2370 C.3   131  LYS131      0.0311
     35  CG        44.6090   59.0350   44.7260 C.3   131  LYS131      0.0038
     36  CD        45.8220   59.2380   45.6020 C.3   131  LYS131      0.0206
     37  CE        46.2330   57.9170   46.1910 C.3   131  LYS131      0.1093
     38  NZ        45.0140   57.2190   46.6610 N.3   131  LYS131     -0.1314
     39  N         42.1630   62.4560   43.9730 N.am  132  VAL132     -0.1977
     40  CA        41.8050   63.8570   43.8030 C.3   132  VAL132      0.1596
     41  C         43.0100   64.5380   43.1480 C.2   132  VAL132      0.2287
     42  O         44.0950   63.9120   43.1300 O.2   132  VAL132     -0.2864
     43  CB        41.5150   64.5130   45.1910 C.3   132  VAL132      0.0276
     44  CG1       41.4600   66.0290   45.0780 C.3   132  VAL132      0.0022
     45  CG2       40.2020   63.9870   45.7480 C.3   132  VAL132      0.0022
@<TRIPOS>BOND
     1     9     8    1
     2     8     7    1
     3     7     6    1
     4     6     5    1
     5    25    26    1
     6    25    24    1
     7    26    27    2
     8     1     2    1
     9     2     5    1
    10     2     3    1
    11    27    29    1
    12    27    28    1
    13     4     3    2
    14    24    23    1
    15    23    20    1
    16     3    10   am
    17    10    11    1
    18    20    19    1
    19    20    21    1
    20    19    12   am
    21    12    13    2
    22    12    11    1
    23    33    32    2
    24    11    14    1
    25    21    30   am
    26    21    22    2
    27    30    31    1
    28    32    31    1
    29    32    39   am
    30    42    41    2
    31    41    40    1
    32    14    15    1
    33    31    34    1
    34    15    16    1
    35    40    39    1
    36    40    43    1
    37    34    35    1
    38    16    17    1
    39    35    36    1
    40    44    43    1
    41    43    45    1
    42    17    18    1
    43    36    37    1
    44    37    38    1
