@<TRIPOS>MOLECULE
1q1y_BB2_A_1.pdb
 27 27 0 0 0
SMALL
GASTEIGER

@<TRIPOS>ATOM
      1  C5       -17.7270  144.2480   43.5130 C.3   301  BB2301      0.0603
      2  C3       -18.6200  143.4310   42.5920 C.2   301  BB2301      0.0873
      3  O4       -19.8200  143.6990   42.5520 O.2   301  BB2301     -0.5395
      4  N1       -18.0370  142.4380   41.9150 N.am  301  BB2301     -0.2030
      5  O2       -18.6800  141.6450   41.1490 O.3   301  BB2301     -0.4026
      6  C6       -17.4860  143.6490   44.9310 C.3   301  BB2301      0.0848
      7  C12      -16.7950  144.8090   45.6770 C.2   301  BB2301      0.2417
      8  O13      -15.6450  145.1960   45.4100 O.2   301  BB2301     -0.2733
      9  C7       -16.6810  142.3310   44.8230 C.3   301  BB2301      0.0142
     10  C8       -15.5580  141.8030   45.7250 C.3   301  BB2301      0.0262
     11  C9       -15.9960  141.5950   47.1760 C.2   301  BB2301     -0.0307
     12  C10      -16.5630  140.2510   47.6350 C.2   301  BB2301     -0.0304
     13  C11      -16.9280  140.0640   49.1050 C.3   301  BB2301      0.0303
     14  N14      -17.6040  145.3820   46.5740 N.am  301  BB2301     -0.1978
     15  C15      -17.3240  146.5820   47.3590 C.3   301  BB2301      0.1715
     16  C16      -18.6180  147.3930   47.5810 C.3   301  BB2301      0.0289
     17  C18      -19.4220  147.7030   46.3220 C.3   301  BB2301      0.0023
     18  C17      -18.6370  148.5750   48.5620 C.3   301  BB2301      0.0023
     19  C19      -16.4970  146.3220   48.6230 C.2   301  BB2301      0.2495
     20  O20      -17.0430  145.6030   49.4690 O.2   301  BB2301     -0.2727
     21  N21      -15.3310  147.0020   48.8300 N.am  301  BB2301     -0.2504
     22  C22      -14.5450  147.0910   50.0710 C.3   301  BB2301      0.1487
     23  C23      -14.6330  147.7740   47.7710 C.2   301  BB2301      0.0634
     24  C24      -13.3660  148.3460   48.3630 C.2   301  BB2301     -0.0078
     25  C25      -13.2870  147.9190   49.7920 C.3   301  BB2301      0.0556
     26  C26      -15.2650  147.7540   51.2560 C.2   301  BB2301      0.2276
     27  O27      -15.9730  148.7640   51.1020 O.2   301  BB2301     -0.2865
@<TRIPOS>BOND
     1     5     4    1
     2     4     2   am
     3     3     2    2
     4     2     1    1
     5     1     6    1
     6     9     6    1
     7     9    10    1
     8     6     7    1
     9     8     7    2
    10     7    14   am
    11    10    11    1
    12    17    16    1
    13    14    15    1
    14    11    12    2
    15    15    16    1
    16    15    19    1
    17    16    18    1
    18    12    13    1
    19    23    24    2
    20    23    21    1
    21    24    25    1
    22    19    21   am
    23    19    20    2
    24    21    22    1
    25    25    22    1
    26    22    26    1
    27    27    26    2
