@<TRIPOS>MOLECULE
1q1z_A3P_A_1.pdb
 27 29 0 0 0
SMALL
GASTEIGER

@<TRIPOS>ATOM
      1  P1        23.5680   14.5360   16.5740 P.3   314  A3P314      0.5327
      2  O1P       22.1060   14.4100   16.4120 O.3   314  A3P314     -0.1145
      3  O2P       24.2270   13.2490   16.4270 O.3   314  A3P314     -0.1145
      4  O3P       24.1460   15.5110   15.6560 O.2   314  A3P314     -0.2224
      5  P2        21.4080   16.9610   23.4390 P.3   314  A3P314      0.5327
      6  O4P       21.6900   18.3170   23.9090 O.3   314  A3P314     -0.1145
      7  O5P       21.9230   15.9770   24.4100 O.3   314  A3P314     -0.1145
      8  O6P       19.9710   16.7710   23.1980 O.2   314  A3P314     -0.2224
      9  O5'       22.1910   16.7610   22.0670 O.3   314  A3P314     -0.2675
     10  C5'       22.2730   15.5240   21.3690 C.3   314  A3P314      0.1859
     11  C4'       23.3620   15.6460   20.3080 C.3   314  A3P314      0.1796
     12  O4'       24.6520   15.5620   20.9780 O.3   314  A3P314     -0.3136
     13  C3'       23.3790   14.5360   19.2650 C.3   314  A3P314      0.1928
     14  O3'       23.8650   15.0960   18.0390 O.3   314  A3P314     -0.2673
     15  C2'       24.3170   13.5580   19.9130 C.3   314  A3P314      0.2543
     16  O2'       24.8590   12.5540   19.1120 O.3   314  A3P314     -0.2131
     17  C1'       25.3920   14.5010   20.4100 C.3   314  A3P314      0.3185
     18  N9        26.2610   13.8240   21.3720 N.pl3 314  A3P314     -0.1439
     19  C8        25.9470   13.2430   22.5830 C.3   314  A3P314      0.3377
     20  N7        26.9610   12.7000   23.1970 N.2   314  A3P314     -0.2095
     21  C5        28.0160   12.9330   22.3430 C.2   314  A3P314      0.2526
     22  C6        29.3970   12.6040   22.4020 C.2   314  A3P314      0.4393
     23  N6        29.9430   11.9420   23.4050 N.pl3 314  A3P314      0.2180
     24  N1        30.1980   12.9930   21.3640 N.2   314  A3P314      0.0021
     25  C2        29.6600   13.6710   20.3170 C.3   314  A3P314      0.5254
     26  N3        28.3680   14.0350   20.1480 N.2   314  A3P314     -0.0055
     27  C4        27.6000   13.6340   21.2030 C.2   314  A3P314      0.3518
@<TRIPOS>BOND
     1     4     1    2
     2     2     1    1
     3     3     1    1
     4     1    14    1
     5    14    13    1
     6    16    15    1
     7    13    15    1
     8    13    11    1
     9    15    17    1
    10    26    25    1
    11    26    27    2
    12    11    12    1
    13    11    10    1
    14    25    24    1
    15    17    12    1
    16    17    18    1
    17    27    18    1
    18    27    21    1
    19    24    22    2
    20    10     9    1
    21    18    19    1
    22     9     5    1
    23    21    22    1
    24    21    20    2
    25    22    23    1
    26    19    20    1
    27     8     5    2
    28     5     6    1
    29     5     7    1
