@<TRIPOS>MOLECULE
1q20_A3P_A_1.pdb
 27 29 0 0 0
SMALL
GASTEIGER

@<TRIPOS>ATOM
      1  P1        23.4600   14.5580   16.6570 P.3   314  A3P314      0.5327
      2  O1P       21.9640   14.4790   16.5700 O.3   314  A3P314     -0.1145
      3  O2P       24.0730   13.2210   16.5520 O.3   314  A3P314     -0.1145
      4  O3P       24.0330   15.4770   15.6660 O.2   314  A3P314     -0.2224
      5  P2        21.6140   17.0480   23.5960 P.3   314  A3P314      0.5327
      6  O4P       21.8630   18.4490   24.0160 O.3   314  A3P314     -0.1145
      7  O5P       22.1970   16.1250   24.5750 O.3   314  A3P314     -0.1145
      8  O6P       20.1660   16.7840   23.4400 O.2   314  A3P314     -0.2224
      9  O5'       22.3310   16.8390   22.1900 O.3   314  A3P314     -0.2675
     10  C5'       22.3550   15.5950   21.4920 C.3   314  A3P314      0.1859
     11  C4'       23.4100   15.6890   20.3920 C.3   314  A3P314      0.1796
     12  O4'       24.7290   15.5660   21.0210 O.3   314  A3P314     -0.3136
     13  C3'       23.3540   14.5820   19.3490 C.3   314  A3P314      0.1928
     14  O3'       23.8190   15.1350   18.1030 O.3   314  A3P314     -0.2673
     15  C2'       24.2770   13.5500   19.9620 C.3   314  A3P314      0.2543
     16  O2'       24.7350   12.5120   19.1260 O.3   314  A3P314     -0.2131
     17  C1'       25.4160   14.4710   20.4410 C.3   314  A3P314      0.3185
     18  N9        26.2750   13.7900   21.4200 N.pl3 314  A3P314     -0.1439
     19  C8        25.9400   13.2680   22.6580 C.3   314  A3P314      0.3377
     20  N7        26.9410   12.7070   23.2930 N.2   314  A3P314     -0.2095
     21  C5        28.0070   12.8650   22.4270 C.2   314  A3P314      0.2526
     22  C6        29.3630   12.4810   22.5040 C.2   314  A3P314      0.4393
     23  N6        29.8760   11.8290   23.5440 N.pl3 314  A3P314      0.2180
     24  N1        30.1860   12.7970   21.4510 N.2   314  A3P314      0.0021
     25  C2        29.6770   13.4610   20.3760 C.3   314  A3P314      0.5254
     26  N3        28.4040   13.8720   20.1890 N.2   314  A3P314     -0.0055
     27  C4        27.6180   13.5400   21.2570 C.2   314  A3P314      0.3518
@<TRIPOS>BOND
     1     4     1    2
     2     3     1    1
     3     2     1    1
     4     1    14    1
     5    14    13    1
     6    16    15    1
     7    13    15    1
     8    13    11    1
     9    15    17    1
    10    26    25    1
    11    26    27    2
    12    25    24    1
    13    11    12    1
    14    11    10    1
    15    17    12    1
    16    17    18    1
    17    27    18    1
    18    27    21    1
    19    18    19    1
    20    24    22    2
    21    10     9    1
    22     9     5    1
    23    21    22    1
    24    21    20    2
    25    22    23    1
    26    19    20    1
    27     8     5    2
    28     5     6    1
    29     5     7    1
