@<TRIPOS>MOLECULE
1q20_PLO_A_1.pdb
 23 26 0 0 0
SMALL
GASTEIGER

@<TRIPOS>ATOM
      1  C1        14.1540   16.6540   28.8170 C.3   401  PLO401      0.0063
      2  C2        15.0180   17.4350   27.7540 C.3   401  PLO401      0.0335
      3  C3        16.4030   16.7720   27.4830 C.3   401  PLO401      0.1560
      4  O3        17.1980   17.4920   26.4820 O.3   401  PLO401     -0.2228
      5  C4        16.2670   15.2600   27.0280 C.3   401  PLO401      0.0545
      6  C5        15.4360   14.4380   28.0380 C.2   401  PLO401     -0.0466
      7  C6        15.8820   13.0280   28.4570 C.2   401  PLO401     -0.0345
      8  C7        15.0780   12.1600   29.4530 C.3   401  PLO401      0.0254
      9  C8        13.7090   12.7600   30.0340 C.3   401  PLO401      0.0046
     10  C9        13.7630   14.3160   30.1420 C.3   401  PLO401      0.0038
     11  C10       14.0450   14.9840   28.7360 C.3   401  PLO401      0.0150
     12  C11       12.4490   14.8780   30.7430 C.3   401  PLO401      0.0003
     13  C12       12.1200   14.2470   32.1140 C.3   401  PLO401      0.0004
     14  C13       12.0210   12.6910   32.0300 C.3   401  PLO401      0.0065
     15  C14       13.3950   12.1780   31.4330 C.3   401  PLO401      0.0007
     16  C15       13.2790   10.6470   31.6320 C.3   401  PLO401      0.0005
     17  C16       12.6870   10.5150   33.0340 C.3   401  PLO401      0.0073
     18  C17       12.0260   11.8970   33.4010 C.3   401  PLO401      0.0576
     19  C18       10.7900   12.2750   31.1480 C.3   401  PLO401      0.0004
     20  C19       12.8930   14.8230   27.7030 C.3   401  PLO401      0.0040
     21  C20       10.6290   11.6970   34.0520 C.2   401  PLO401      0.1507
     22  C21        9.9620   12.9190   34.5990 C.3   401  PLO401      0.0722
     23  O20       10.0750   10.6130   34.1350 O.2   401  PLO401     -0.2961
@<TRIPOS>BOND
     1     4     3    1
     2     5     3    1
     3     5     6    1
     4     3     2    1
     5    20    11    1
     6     2     1    1
     7     6     7    2
     8     6    11    1
     9     7     8    1
    10    11     1    1
    11    11    10    1
    12     8     9    1
    13     9    10    1
    14     9    15    1
    15    10    12    1
    16    12    13    1
    17    19    14    1
    18    15    16    1
    19    15    14    1
    20    16    17    1
    21    14    13    1
    22    14    18    1
    23    17    18    1
    24    18    21    1
    25    21    23    2
    26    21    22    1
