@<TRIPOS>MOLECULE
1q21_GDP_A_1.pdb
 28 30 0 0 0
SMALL
GASTEIGER

@<TRIPOS>ATOM
      1  PB        25.7750   20.9550   13.1200 P.3   180  GDP180      0.5373
      2  O1B       26.4890   19.9990   14.0830 O.3   180  GDP180     -0.1143
      3  O2B       26.4270   22.2590   12.9840 O.2   180  GDP180     -0.2221
      4  O3B       24.2310   21.1820   13.5450 O.3   180  GDP180     -0.1143
      5  O3A       25.6770   20.3680   11.6390 O.3   180  GDP180     -0.2261
      6  PA        24.3730   19.8690   10.7110 P.3   180  GDP180      0.2231
      7  O1A       23.8320   21.1360   10.0340 O.2   180  GDP180     -0.5169
      8  O2A       23.3950   18.9660   11.5070 O.3   180  GDP180     -0.4370
      9  O5'       25.1090   19.0870    9.6720 O.3   180  GDP180     -0.3111
     10  C5'       26.3050   19.5320    9.0840 C.3   180  GDP180      0.1813
     11  C4'       26.4950   18.9520    7.7640 C.3   180  GDP180      0.1799
     12  O4'       26.8240   17.5110    7.8800 O.3   180  GDP180     -0.3326
     13  C3'       25.2860   18.9550    6.8500 C.3   180  GDP180      0.2158
     14  O3'       25.6880   18.9970    5.5080 O.3   180  GDP180     -0.2175
     15  C2'       24.5980   17.6730    7.2270 C.3   180  GDP180      0.2310
     16  O2'       23.7550   17.2490    6.1400 O.3   180  GDP180     -0.2158
     17  C1'       25.8480   16.7580    7.2120 C.3   180  GDP180      0.2293
     18  N9        25.6160   15.5510    8.0110 N.pl3 180  GDP180     -0.2354
     19  C8        25.1440   15.4680    9.3030 C.3   180  GDP180      0.2246
     20  N7        25.1300   14.2370    9.7670 N.2   180  GDP180     -0.2322
     21  C5        25.6260   13.4620    8.7260 C.2   180  GDP180      0.2182
     22  C6        25.8220   12.1610    8.6590 C.1   180  GDP180      0.2372
     23  O6        25.5490   11.3010    9.5480 O.2   180  GDP180     -0.2069
     24  N1        26.3050   11.7280    7.4360 N.2   180  GDP180     -0.2485
     25  C2        26.6890   12.5450    6.4250 C.1   180  GDP180      0.2531
     26  N2        27.2540   11.9220    5.3280 N.pl3 180  GDP180     -0.0226
     27  N3        26.5540   13.8990    6.4690 N.2   180  GDP180     -0.3074
     28  C4        25.9440   14.2720    7.6210 C.2   180  GDP180      0.2300
@<TRIPOS>BOND
     1    26    25    1
     2    14    13    1
     3    16    15    1
     4    25    27    2
     5    25    24    2
     6    27    28    2
     7    13    15    1
     8    13    11    1
     9    17    15    1
    10    17    12    1
    11    17    18    1
    12    24    22    2
    13    28    18    1
    14    28    21    1
    15    11    12    1
    16    11    10    1
    17    18    19    1
    18    22    21    1
    19    22    23    2
    20    21    20    2
    21    10     9    1
    22    19    20    1
    23     9     6    1
    24     7     6    2
    25     6     8    1
    26     6     5    1
    27     5     1    1
    28     3     1    2
    29     1     4    1
    30     1     2    1
