@<TRIPOS>MOLECULE
1q22_A3P_A_1.pdb
 27 29 0 0 0
SMALL
GASTEIGER

@<TRIPOS>ATOM
      1  P1        23.3180   14.3780   16.6220 P.3   314  A3P314      0.5327
      2  O1P       21.8330   14.3320   16.5440 O.3   314  A3P314     -0.1145
      3  O2P       23.9100   13.0440   16.4890 O.3   314  A3P314     -0.1145
      4  O3P       23.8940   15.2910   15.6290 O.2   314  A3P314     -0.2224
      5  P2        21.4800   16.8490   23.5580 P.3   314  A3P314      0.5327
      6  O4P       21.7140   18.2430   23.9600 O.3   314  A3P314     -0.1145
      7  O5P       22.0510   15.9540   24.5710 O.3   314  A3P314     -0.1145
      8  O6P       20.0330   16.5840   23.3550 O.2   314  A3P314     -0.2224
      9  O5'       22.2400   16.6160   22.1890 O.3   314  A3P314     -0.2675
     10  C5'       22.2080   15.3920   21.4490 C.3   314  A3P314      0.1859
     11  C4'       23.2790   15.4820   20.3610 C.3   314  A3P314      0.1796
     12  O4'       24.5930   15.4020   21.0090 O.3   314  A3P314     -0.3136
     13  C3'       23.2650   14.3650   19.3260 C.3   314  A3P314      0.1928
     14  O3'       23.7130   14.9240   18.0660 O.3   314  A3P314     -0.2673
     15  C2'       24.2270   13.3830   19.9560 C.3   314  A3P314      0.2543
     16  O2'       24.7490   12.3780   19.1330 O.3   314  A3P314     -0.2131
     17  C1'       25.3200   14.3400   20.4350 C.3   314  A3P314      0.3185
     18  N9        26.2070   13.6950   21.3930 N.pl3 314  A3P314     -0.1439
     19  C8        25.9290   13.2310   22.6550 C.3   314  A3P314      0.3377
     20  N7        26.9510   12.6850   23.2670 N.2   314  A3P314     -0.2095
     21  C5        27.9700   12.7830   22.3470 C.2   314  A3P314      0.2526
     22  C6        29.3350   12.3940   22.3820 C.2   314  A3P314      0.4393
     23  N6        29.8900   11.7750   23.4240 N.pl3 314  A3P314      0.2180
     24  N1        30.1040   12.6470   21.2790 N.2   314  A3P314      0.0021
     25  C2        29.5550   13.2670   20.2100 C.3   314  A3P314      0.5254
     26  N3        28.2780   13.6850   20.0640 N.2   314  A3P314     -0.0055
     27  C4        27.5390   13.4210   21.1800 C.2   314  A3P314      0.3518
@<TRIPOS>BOND
     1     4     1    2
     2     3     1    1
     3     2     1    1
     4     1    14    1
     5    14    13    1
     6    16    15    1
     7    13    15    1
     8    13    11    1
     9    15    17    1
    10    26    25    1
    11    26    27    2
    12    25    24    1
    13    11    12    1
    14    11    10    1
    15    17    12    1
    16    17    18    1
    17    27    18    1
    18    27    21    1
    19    24    22    2
    20    18    19    1
    21    10     9    1
    22     9     5    1
    23    21    22    1
    24    21    20    2
    25    22    23    1
    26    19    20    1
    27     8     5    2
    28     5     6    1
    29     5     7    1
