@<TRIPOS>MOLECULE
1q22_AND_A_1.pdb
 21 24 0 0 0
SMALL
GASTEIGER

@<TRIPOS>ATOM
      1  C1        14.1530   16.6760   28.7910 C.3   401  AND401      0.0063
      2  C2        15.0400   17.4750   27.7950 C.3   401  AND401      0.0335
      3  C3        16.4420   16.8250   27.5370 C.3   401  AND401      0.1560
      4  O3        17.2570   17.6170   26.5910 O.3   401  AND401     -0.2228
      5  C4        16.3140   15.3610   27.0180 C.3   401  AND401      0.0545
      6  C5        15.4550   14.5060   27.9880 C.2   401  AND401     -0.0466
      7  C6        15.8730   13.0820   28.3710 C.2   401  AND401     -0.0345
      8  C7        15.0430   12.1620   29.3010 C.3   401  AND401      0.0254
      9  C8        13.7070   12.7220   29.8600 C.3   401  AND401      0.0050
     10  C9        13.7550   14.3150   30.0030 C.3   401  AND401      0.0038
     11  C10       14.0860   15.0750   28.5870 C.3   401  AND401      0.0150
     12  C11       12.4000   14.8400   30.6090 C.3   401  AND401      0.0007
     13  C12       12.0480   14.1170   31.9830 C.3   401  AND401      0.0069
     14  C13       11.9880   12.5700   31.8770 C.3   401  AND401      0.0515
     15  C14       13.3390   12.0880   31.2330 C.3   401  AND401      0.0073
     16  C15       13.2020   10.5770   31.3810 C.3   401  AND401      0.0082
     17  C16       12.7780   10.4770   32.8760 C.3   401  AND401      0.0645
     18  C17       12.0330   11.6970   33.1620 C.2   401  AND401      0.1498
     19  O17       11.5240   11.9310   34.2760 O.2   401  AND401     -0.2961
     20  C18       10.6090   12.1620   31.1620 C.3   401  AND401      0.0073
     21  C19       12.9250   14.7940   27.5030 C.3   401  AND401      0.0040
@<TRIPOS>BOND
     1     4     3    1
     2     5     3    1
     3     5     6    1
     4    21    11    1
     5     3     2    1
     6     2     1    1
     7     6     7    2
     8     6    11    1
     9     7     8    1
    10    11     1    1
    11    11    10    1
    12     8     9    1
    13     9    10    1
    14     9    15    1
    15    10    12    1
    16    12    13    1
    17    20    14    1
    18    15    16    1
    19    15    14    1
    20    16    17    1
    21    14    13    1
    22    14    18    1
    23    17    18    1
    24    18    19    2
