@<TRIPOS>MOLECULE
1q23_FUA_A_1.pdb
 37 40 0 0 0
SMALL
GASTEIGER

@<TRIPOS>ATOM
      1  C1         6.5550   15.4920   -1.5280 C.3   702  FUA702      0.0030
      2  C2         7.8310   15.3570   -0.6760 C.3   702  FUA702      0.0329
      3  C3         8.1800   14.0210    0.0360 C.3   702  FUA702      0.1522
      4  C4         7.4420   12.7750   -0.2620 C.3   702  FUA702      0.0345
      5  C5         6.1410   12.9630   -0.9920 C.3   702  FUA702      0.0242
      6  C6         5.3910   11.6690   -1.2210 C.2   702  FUA702     -0.0310
      7  C7         4.1700   11.6820   -2.0410 C.2   702  FUA702     -0.0309
      8  C8         3.7350   13.0210   -2.5500 C.3   702  FUA702      0.0245
      9  C9         4.5700   14.2210   -2.6480 C.3   702  FUA702      0.0390
     10  C10        5.8510   14.2020   -1.7900 C.3   702  FUA702      0.0069
     11  C11        4.0230   15.4800   -3.2800 C.3   702  FUA702      0.1739
     12  C12        2.7280   15.3430   -4.0680 C.2   702  FUA702      0.0016
     13  C13        2.0810   13.9790   -4.2450 C.2   702  FUA702     -0.0249
     14  C14        2.5470   12.9120   -3.4080 C.3   702  FUA702      0.0258
     15  C15        1.3590   12.1350   -2.9930 C.3   702  FUA702      0.0526
     16  C16        0.1860   12.4950   -3.9050 C.3   702  FUA702      0.1910
     17  C17        0.6780   13.6730   -4.6740 C.2   702  FUA702      0.0155
     18  C18        7.6680   11.5930    0.7000 C.3   702  FUA702      0.0029
     19  C19        6.8070   13.8840   -2.9450 C.3   702  FUA702      0.0004
     20  C20        3.0490   13.5110   -1.2280 C.3   702  FUA702      0.0048
     21  C21        3.0010   11.9340   -4.5400 C.3   702  FUA702      0.0048
     22  C22       -0.0280   14.2830   -5.6040 C.2   702  FUA702      0.0569
     23  C23        0.4780   15.4440   -6.4410 C.3   702  FUA702      0.0375
     24  C24       -0.1220   16.7530   -6.0570 C.3   702  FUA702      0.0303
     25  C25       -0.2200   17.0790   -4.5600 C.2   702  FUA702     -0.0342
     26  C26       -1.4090   17.4530   -4.1260 C.2   702  FUA702     -0.0478
     27  C27       -1.7060   17.8360   -2.7030 C.3   702  FUA702      0.0260
     28  C28       -2.5270   17.4730   -5.1720 C.3   702  FUA702      0.0260
     29  C29       -1.3890   13.8020   -5.8860 C.2   702  FUA702      0.3837
     30  C31       -1.3490   10.6770   -4.4130 C.2   702  FUA702      0.3178
     31  C32       -2.1680   10.0710   -5.5110 C.3   702  FUA702      0.1212
     32  O1         3.9480   16.4000   -2.1940 O.3   702  FUA702     -0.2183
     33  O2        -0.1720   11.4270   -4.8270 O.3   702  FUA702     -0.4477
     34  O3        -1.5620   10.6030   -3.1800 O.2   702  FUA702     -0.2501
     35  O4        -1.5030   13.5330   -7.0780 O.co2 702  FUA702     -0.2409
     36  O5        -2.3960   13.5170   -5.0760 O.co2 702  FUA702     -0.2409
     37  O6         7.4630   14.1640    1.2840 O.3   702  FUA702     -0.2231
@<TRIPOS>BOND
     1    35    29   ar
     2    23    24    1
     3    23    22    1
     4    24    25    1
     5    29    22    1
     6    29    36   ar
     7    22    17    2
     8    31    30    1
     9    28    26    1
    10    33    30    1
    11    33    16    1
    12    17    13    1
    13    17    16    1
    14    25    26    2
    15    21    14    1
    16    30    34    2
    17    13    12    2
    18    13    14    1
    19    26    27    1
    20    12    11    1
    21    16    15    1
    22    14    15    1
    23    14     8    1
    24    11     9    1
    25    11    32    1
    26    19    10    1
    27     9     8    1
    28     9    10    1
    29     8     7    1
    30     8    20    1
    31     7     6    2
    32    10     1    1
    33    10     5    1
    34     1     2    1
    35     6     5    1
    36     5     4    1
    37     2     3    1
    38     4     3    1
    39     4    18    1
    40     3    37    1
