@<TRIPOS>MOLECULE
1q24_ATP_A_1.pdb
 31 33 0 0 0
SMALL
GASTEIGER

@<TRIPOS>ATOM
      1  PG        15.9430    8.2310   -0.3810 P.3   400  ATP400      0.5373
      2  O1G       15.2570    7.0170    0.1550 O.3   400  ATP400     -0.1143
      3  O2G       17.3200    8.4330    0.2930 O.3   400  ATP400     -0.1143
      4  O3G       16.1650    8.0810   -1.9020 O.2   400  ATP400     -0.2221
      5  PB        14.2180   10.4140   -0.9960 P.3   400  ATP400      0.2277
      6  O1B       14.9670   11.6790   -1.1620 O.3   400  ATP400     -0.4368
      7  O2B       14.0130    9.6740   -2.3370 O.2   400  ATP400     -0.5168
      8  O3B       15.0150    9.4920    0.0400 O.3   400  ATP400     -0.2258
      9  PA        11.7530    9.5830    0.1840 P.3   400  ATP400      0.2189
     10  O1A       10.6510    9.4480   -0.7980 O.2   400  ATP400     -0.5170
     11  O2A       12.4400    8.2380    0.4830 O.3   400  ATP400     -0.4371
     12  O3A       12.8080   10.7280   -0.2750 O.3   400  ATP400     -0.2700
     13  O5'       11.1700   10.2550    1.5240 O.3   400  ATP400     -0.3112
     14  C5'       11.8880   10.2240    2.7390 C.3   400  ATP400      0.1813
     15  C4'       10.9770    9.7190    3.8490 C.3   400  ATP400      0.1821
     16  O4'        9.7730   10.4700    3.9350 O.3   400  ATP400     -0.3135
     17  C3'       10.5200    8.2840    3.6570 C.3   400  ATP400      0.2184
     18  O3'       11.5180    7.3420    3.9910 O.3   400  ATP400     -0.2174
     19  C2'        9.3100    8.2810    4.5700 C.3   400  ATP400      0.2570
     20  O2'        9.6760    8.1450    5.9210 O.3   400  ATP400     -0.2130
     21  C1'        8.7060    9.6590    4.3870 C.3   400  ATP400      0.3186
     22  N9         7.5870    9.6290    3.4170 N.pl3 400  ATP400     -0.1439
     23  C8         7.6800    9.5950    2.0430 C.3   400  ATP400      0.3377
     24  N7         6.4300    9.5740    1.5100 N.2   400  ATP400     -0.2095
     25  C5         5.5350    9.5910    2.5210 C.2   400  ATP400      0.2526
     26  C6         4.1390    9.5850    2.5410 C.2   400  ATP400      0.4393
     27  N6         3.4460    9.5930    1.4020 N.pl3 400  ATP400      0.2180
     28  N1         3.4750    9.6080    3.7590 N.2   400  ATP400      0.0021
     29  C2         4.1940    9.6290    4.9400 C.3   400  ATP400      0.5254
     30  N3         5.5780    9.6430    4.9090 N.2   400  ATP400     -0.0055
     31  C4         6.2440    9.6250    3.7240 C.2   400  ATP400      0.3518
@<TRIPOS>BOND
     1     7     5    2
     2     4     1    2
     3     6     5    1
     4     5    12    1
     5     5     8    1
     6    10     9    2
     7     1     8    1
     8     1     2    1
     9     1     3    1
    10    12     9    1
    11     9    11    1
    12     9    13    1
    13    27    26    1
    14    24    23    1
    15    24    25    2
    16    13    14    1
    17    23    22    1
    18    25    26    1
    19    25    31    1
    20    26    28    2
    21    14    15    1
    22    22    31    1
    23    22    21    1
    24    17    15    1
    25    17    18    1
    26    17    19    1
    27    31    30    2
    28    28    29    1
    29    15    16    1
    30    16    21    1
    31    21    19    1
    32    19    20    1
    33    30    29    1
