@<TRIPOS>MOLECULE
1q2c_III_B_1.pdb
 47 46 0 0 0
SMALL
GASTEIGER

@<TRIPOS>ATOM
      1  N         28.6510   17.8830   17.5880 N.3   308  LYS308     -0.1231
      2  CA        28.1170   19.1090   18.2410 C.3   308  LYS308      0.1693
      3  C         28.1210   20.2450   17.2170 C.2   308  LYS308      0.2593
      4  O         28.0620   21.4210   17.5770 O.2   308  LYS308     -0.2718
      5  CB        28.9860   19.4690   19.4560 C.3   308  LYS308      0.0285
      6  CG        28.4310   20.5840   20.3280 C.3   308  LYS308      0.0035
      7  CD        28.2230   20.1350   21.7710 C.3   308  LYS308      0.0206
      8  CE        26.9690   19.3140   21.9600 C.3   308  LYS308      0.1093
      9  NZ        26.9320   18.1860   21.0080 N.3   308  LYS308     -0.1314
     10  N         28.1830   19.8730   15.9390 N.am  309  GLY309     -0.1942
     11  CA        28.2030   20.8480   14.8600 C.3   309  GLY309      0.2014
     12  C         27.1540   21.9330   14.9690 C.2   309  GLY309      0.2639
     13  O         25.9630   21.6500   14.8370 O.2   309  GLY309     -0.2714
     14  N         27.5860   23.1760   15.1790 N.am  310  LEU310     -0.1963
     15  CA        26.6390   24.2750   15.3570 C.3   310  LEU310      0.1728
     16  C         26.8300   25.5420   14.5340 C.2   310  LEU310      0.2617
     17  O         27.9110   26.1370   14.5100 O.2   310  LEU310     -0.2715
     18  CB        26.5920   24.6490   16.8340 C.3   310  LEU310      0.0311
     19  CG        25.2100   24.4800   17.4470 C.3   310  LEU310      0.0022
     20  CD1       24.5960   23.1700   17.0080 C.3   310  LEU310      0.0001
     21  CD2       25.3290   24.5620   18.9460 C.3   310  LEU310      0.0001
     22  N         25.7500   25.9540   13.8760 N.am  311  GLY311     -0.1940
     23  CA        25.7680   27.1490   13.0570 C.3   311  GLY311      0.2014
     24  C         24.6590   28.0640   13.5360 C.2   311  GLY311      0.2639
     25  O         23.5470   28.0410   13.0120 O.2   311  GLY311     -0.2714
     26  N         24.9730   28.8730   14.5430 N.am  312  LYS312     -0.1963
     27  CA        24.0340   29.8170   15.1270 C.3   312  LYS312      0.1728
     28  C         22.6460   29.2060   15.3320 C.2   312  LYS312      0.2617
     29  O         22.5090   28.0020   15.5320 O.2   312  LYS312     -0.2715
     30  CB        23.9100   31.0740   14.2580 C.3   312  LYS312      0.0311
     31  CG        24.8730   31.1590   13.0790 C.3   312  LYS312      0.0038
     32  CD        24.2720   30.5180   11.8370 C.3   312  LYS312      0.0206
     33  CE        25.1850   30.6430   10.6310 C.3   312  LYS312      0.1093
     34  NZ        26.5050   29.9860   10.8430 N.3   312  LYS312     -0.1314
     35  N         21.6110   30.0420   15.2970 N.am  313  GLY313     -0.1940
     36  CA        20.2500   29.5580   15.4960 C.3   313  GLY313      0.2014
     37  C         20.0480   28.9340   16.8670 C.2   313  GLY313      0.2639
     38  O         20.3970   29.5240   17.8920 O.2   313  GLY313     -0.2714
     39  N         19.4640   27.7410   16.8820 N.am  314  GLY314     -0.1939
     40  CA        19.2040   27.0460   18.1300 C.3   314  GLY314      0.2014
     41  C         18.4050   27.8550   19.1350 C.2   314  GLY314      0.2638
     42  O         18.7730   27.9270   20.3170 O.2   314  GLY314     -0.2714
     43  N         17.3130   28.4590   18.6670 N.am  315  ALA315     -0.1977
     44  CA        16.4440   29.2700   19.5180 C.3   315  ALA315      0.1597
     45  C         17.2940   30.2460   20.3610 C.2   315  ALA315      0.2287
     46  O         17.1510   30.2350   21.5990 O.2   315  ALA315     -0.2864
     47  CB        15.5990   28.3850   20.4130 C.3   315  ALA315      0.0319
@<TRIPOS>BOND
     1    33    34    1
     2    33    32    1
     3    32    31    1
     4    25    24    2
     5    23    24    1
     6    23    22    1
     7    31    30    1
     8    24    26   am
     9    22    16   am
    10    30    27    1
    11    17    16    2
    12    16    15    1
    13    26    27    1
    14    13    12    2
    15    11    12    1
    16    11    10    1
    17    12    14   am
    18    27    28    1
    19    14    15    1
    20    35    28   am
    21    35    36    1
    22    28    29    2
    23    15    18    1
    24    36    37    1
    25    10     3   am
    26    18    19    1
    27    37    39   am
    28    37    38    2
    29    39    40    1
    30    20    19    1
    31     3     4    2
    32     3     2    1
    33    19    21    1
    34     1     2    1
    35    40    41    1
    36     2     5    1
    37    43    41   am
    38    43    44    1
    39    41    42    2
    40     5     6    1
    41    44    45    1
    42    44    47    1
    43     6     7    1
    44    45    46    2
    45     9     8    1
    46     7     8    1
