@<TRIPOS>MOLECULE
1q2c_COA_A_1.pdb
 48 48 0 0 0
SMALL
GASTEIGER

@<TRIPOS>ATOM
      1  N1A       24.7450   31.0820   23.6700 N.2   401  COA401     -0.0265
      2  C2A       23.9380   31.7440   24.5950 C.3   401  COA401      0.4008
      3  N3A       22.6860   31.3620   24.9750 N.2   401  COA401     -0.1640
      4  C4A       22.2520   30.2400   24.3500 C.1   401  COA401      0.0579
      5  C5A       22.9450   29.4670   23.3870 C.2   401  COA401      0.2303
      6  C6A       24.2990   29.9400   23.0370 C.2   401  COA401      0.4393
      7  N6A       25.0100   29.3100   22.1970 N.pl3 401  COA401      0.2185
      8  N7A       22.2240   28.4030   22.9500 N.2   401  COA401     -0.2267
      9  C8A       21.0610   28.4740   23.6320 C.3   401  COA401      0.2618
     10  N9A       21.0180   29.5660   24.5150 N.2   401  COA401     -0.1914
     11  C1B       20.1080   29.6300   25.8690 C.3   401  COA401      0.2176
     12  C2B       18.9620   28.6030   26.0250 C.3   401  COA401      0.2206
     13  O2B       18.0860   28.5520   24.9280 O.3   401  COA401     -0.1862
     14  C3B       18.3330   29.1170   27.3880 C.3   401  COA401      0.2182
     15  O3B       17.5560   30.3870   27.2530 O.3   401  COA401     -0.2085
     16  P3B       17.7670   31.6060   28.4210 P.3   401  COA401      0.5588
     17  O7A       17.2820   30.7690   29.6130 O.3   401  COA401     -0.1130
     18  O8A       16.8660   32.9910   28.3720 O.3   401  COA401     -0.1130
     19  O9A       19.2880   31.9440   28.3290 O.2   401  COA401     -0.2202
     20  C4B       19.7080   28.8930   28.3510 C.3   401  COA401      0.2175
     21  O4B       20.8290   29.1940   27.2100 O.3   401  COA401     -0.2175
     22  C5B       19.8280   27.3700   29.1610 C.3   401  COA401      0.2179
     23  O5B       18.5430   26.9390   28.6010 O.3   401  COA401     -0.2123
     24  P1A       17.2230   26.0350   28.1240 P.3   401  COA401      0.3298
     25  O1A       16.0800   26.9410   27.8020 O.3   401  COA401     -0.1651
     26  O2A       18.0040   29.9310   24.3340 O.3   401  COA401     -0.0346
     27  O3A       17.3290   30.7570   26.9340 O.3   401  COA401     -0.1221
     28  P2A       16.3380   24.1730   26.0550 P.3   401  COA401      0.1486
     29  O4A       20.3910   29.3820   26.8760 O.3   401  COA401     -0.2175
     30  O5A       18.6410   26.7490   27.6740 O.3   401  COA401     -0.1703
     31  O6A       17.5560   23.2790   25.4040 O.3   401  COA401     -0.3307
     32  CBP       18.9060   22.6290   23.4590 C.3   401  COA401      0.0592
     33  CCP       17.8260   22.1680   24.5730 C.3   401  COA401      0.1495
     34  CDP       20.4850   22.4350   23.6700 C.3   401  COA401      0.0052
     35  CEP       19.1240   23.6650   24.5720 C.3   401  COA401      0.0052
     36  CAP       18.3840   23.8070   22.4740 C.3   401  COA401      0.1920
     37  OAP       17.9220   24.5020   21.2780 O.3   401  COA401     -0.3137
     38  C9P       18.6260   22.8780   21.1590 C.3   401  COA401      0.3099
     39  O9P       18.2220   21.6120   20.9160 O.3   401  COA401     -0.1732
     40  N8P       19.3480   23.6110   20.3410 N.3   401  COA401     -0.1655
     41  C7P       19.8370   23.1940   19.0220 C.3   401  COA401      0.1033
     42  C6P       20.8350   22.0640   19.1860 C.3   401  COA401      0.1057
     43  C5P       22.1480   22.5960   19.6530 C.2   401  COA401      0.2429
     44  O5P       22.6270   23.7170   19.2420 O.2   401  COA401     -0.2733
     45  N4P       22.7300   21.7920   20.5150 N.am  401  COA401     -0.2044
     46  C3P       24.0700   21.9860   21.2180 C.3   401  COA401      0.1276
     47  C2P       25.1510   21.7300   20.1840 C.3   401  COA401      0.0920
     48  S1P       25.3190   19.9700   19.6650 S.3   401  COA401     -0.0802
@<TRIPOS>BOND
     1    41    42    1
     2    41    40    1
     3    42    43    1
     4    44    43    2
     5    43    45   am
     6    48    47    1
     7    47    46    1
     8    40    38    1
     9    45    46    1
    10    39    38    1
    11    38    37    1
    12    38    36    1
    13    37    36    1
    14     7     6    1
    15    36    32    1
    16     8     5    2
    17     8     9    1
    18     6     5    1
    19     6     1    2
    20     5     4    1
    21    32    34    1
    22    32    35    1
    23    32    33    1
    24     9    10    1
    25     1     2    1
    26    26    13    1
    27     4    10    2
    28     4     3    2
    29    33    31    1
    30     2     3    1
    31    13    12    1
    32    31    28    1
    33    11    12    1
    34    11    29    1
    35    12    14    1
    36    29    21    1
    37    27    15    1
    38    27    16    1
    39    21    20    1
    40    15    14    1
    41    14    20    1
    42    30    24    1
    43    30    23    1
    44    25    24    1
    45    19    16    2
    46    18    16    1
    47    16    17    1
    48    23    22    1
