@<TRIPOS>MOLECULE
1q2d_III_B_1.pdb
 45 45 0 0 0
SMALL
GASTEIGER

@<TRIPOS>ATOM
      1  N          1.7870   33.4680   30.6480 N.3   320  LYS320     -0.1231
      2  CA         3.1130   33.9800   30.1960 C.3   320  LYS320      0.1693
      3  C          3.9280   34.6280   31.3110 C.2   320  LYS320      0.2592
      4  O          4.3720   35.7590   31.1690 O.2   320  LYS320     -0.2718
      5  CB         2.9220   35.0020   29.0760 C.3   320  LYS320      0.0285
      6  CG         2.4000   34.4360   27.7730 C.3   320  LYS320      0.0035
      7  CD         3.5190   33.8770   26.9320 C.3   320  LYS320      0.0206
      8  CE         3.1590   32.5190   26.4100 C.3   320  LYS320      0.1093
      9  NZ         2.6780   31.7170   27.5530 N.3   320  LYS320     -0.1314
     10  N          4.1660   33.8930   32.3940 N.am  321  LYS321     -0.1966
     11  CA         4.9280   34.4040   33.5340 C.3   321  LYS321      0.1713
     12  C          6.3660   34.8860   33.2920 C.2   321  LYS321      0.2458
     13  O          6.7500   35.9470   33.7850 O.2   321  LYS321     -0.2730
     14  CB         4.9430   33.3570   34.6410 C.3   321  LYS321      0.0311
     15  CG         5.8440   32.1820   34.3970 C.3   321  LYS321      0.0038
     16  CD         7.1490   32.4130   35.0910 C.3   321  LYS321      0.0206
     17  CE         7.7060   31.1130   35.5710 C.3   321  LYS321      0.1093
     18  NZ         8.8280   31.2820   36.5170 N.3   321  LYS321     -0.1314
     19  N          7.1580   34.1340   32.5000 N.am  322  PRO322     -0.2716
     20  CA         8.5510   34.3770   32.1360 C.3   322  PRO322      0.1536
     21  C          9.3480   35.4760   32.8000 C.2   322  PRO322      0.2598
     22  O          9.7840   36.4080   32.1240 O.2   322  PRO322     -0.2715
     23  CB         8.4770   34.5690   30.6190 C.3   322  PRO322      0.0310
     24  CG         7.0160   34.5010   30.2810 C.3   322  PRO322      0.0237
     25  CD         6.5230   33.5560   31.3150 C.3   322  PRO322      0.0939
     26  N          9.5680   35.3730   34.1060 N.am  323  LEU323     -0.1964
     27  CA        10.3570   36.3930   34.7720 C.3   323  LEU323      0.1728
     28  C         11.8190   35.9750   34.8580 C.2   323  LEU323      0.2616
     29  O         12.2160   35.1880   35.7160 O.2   323  LEU323     -0.2715
     30  CB         9.7700   36.7150   36.1570 C.3   323  LEU323      0.0311
     31  CG         8.3150   37.2010   36.0800 C.3   323  LEU323      0.0022
     32  CD1        7.8610   37.9810   37.3090 C.3   323  LEU323      0.0001
     33  CD2        8.2380   38.1000   34.8890 C.3   323  LEU323      0.0001
     34  N         12.6110   36.5080   33.9320 N.am  324  ASP324     -0.1957
     35  CA        14.0400   36.2300   33.8430 C.3   324  ASP324      0.1840
     36  C         14.3410   34.7540   33.5840 C.2   324  ASP324      0.2622
     37  O         15.4940   34.3370   33.6710 O.2   324  ASP324     -0.2715
     38  CB        14.7670   36.6990   35.1170 C.3   324  ASP324      0.1450
     39  CG        14.0750   37.8760   35.7960 C.2   324  ASP324      0.3671
     40  OD1       13.5180   38.7490   35.0950 O.co2 324  ASP324     -0.2456
     41  OD2       14.1050   37.9260   37.0460 O.co2 324  ASP324     -0.2456
     42  N         13.3090   33.9740   33.2630 N.am  325  GLY325     -0.1954
     43  CA        13.4720   32.5510   32.9830 C.3   325  GLY325      0.1869
     44  C         14.8620   32.0840   32.5770 C.2   325  GLY325      0.2309
     45  O         15.2530   30.9510   32.9550 O.2   325  GLY325     -0.2863
@<TRIPOS>BOND
     1     8     7    1
     2     8     9    1
     3     7     6    1
     4     6     5    1
     5     5     2    1
     6     2     1    1
     7     2     3    1
     8    24    23    1
     9    24    25    1
    10    23    20    1
    11     4     3    2
    12     3    10   am
    13    25    19    1
    14    22    21    2
    15    20    19    1
    16    20    21    1
    17    10    11    1
    18    19    12   am
    19    44    45    2
    20    44    43    1
    21    21    26   am
    22    43    42    1
    23    42    36   am
    24    12    11    1
    25    12    13    2
    26    11    14    1
    27    36    37    2
    28    36    35    1
    29    35    34    1
    30    35    38    1
    31    34    28   am
    32    26    27    1
    33    15    14    1
    34    15    16    1
    35    27    28    1
    36    27    30    1
    37    28    29    2
    38    33    31    1
    39    16    17    1
    40    40    39   ar
    41    38    39    1
    42    17    18    1
    43    39    41   ar
    44    31    30    1
    45    31    32    1
