@<TRIPOS>MOLECULE
1q2d_COA_A_1.pdb
 48 50 0 0 0
SMALL
GASTEIGER

@<TRIPOS>ATOM
      1  N1A       19.3260   27.7490   27.2280 N.2   401  COA401      0.0021
      2  C2A       19.7910   28.6930   26.3070 C.3   401  COA401      0.5254
      3  N3A       19.0840   29.2340   25.2830 N.2   401  COA401     -0.0055
      4  C4A       17.8130   28.7710   25.2060 C.2   401  COA401      0.3518
      5  C5A       17.1750   27.8110   26.0590 C.2   401  COA401      0.2526
      6  C6A       18.0270   27.2620   27.1670 C.2   401  COA401      0.4393
      7  N6A       17.5930   26.3880   28.0160 N.pl3 401  COA401      0.2180
      8  N7A       15.8850   27.5770   25.6900 N.2   401  COA401     -0.2095
      9  C8A       15.6880   28.3780   24.6050 C.3   401  COA401      0.3377
     10  N9A       16.8200   29.1260   24.2630 N.pl3 401  COA401     -0.1439
     11  C1B       16.9740   30.1440   23.1350 C.3   401  COA401      0.3185
     12  C2B       17.9040   29.6790   22.0380 C.3   401  COA401      0.2543
     13  O2B       19.2310   29.7740   22.5050 O.3   401  COA401     -0.2131
     14  C3B       17.5840   30.6500   20.8760 C.3   401  COA401      0.1928
     15  O3B       18.2490   31.8560   20.8870 O.3   401  COA401     -0.2673
     16  P3B       18.0840   32.6610   19.4060 P.3   401  COA401      0.5327
     17  O7A       18.7730   31.7250   18.3090 O.2   401  COA401     -0.2224
     18  O8A       18.8910   34.0410   19.4170 O.3   401  COA401     -0.1145
     19  O9A       16.5340   32.8620   19.0890 O.3   401  COA401     -0.1145
     20  C4B       16.0580   30.6930   20.9640 C.3   401  COA401      0.1795
     21  O4B       15.7180   30.3290   22.3980 O.3   401  COA401     -0.3136
     22  C5B       15.3840   29.7780   19.9610 C.3   401  COA401      0.1812
     23  O5B       14.4180   29.0050   20.6800 O.3   401  COA401     -0.3112
     24  P1A       14.1170   27.4940   20.1980 P.3   401  COA401      0.2189
     25  O1A       15.3310   26.6600   20.4640 O.3   401  COA401     -0.4371
     26  O2A       13.5230   27.4460   18.8230 O.2   401  COA401     -0.5170
     27  O3A       13.0960   27.2100   21.2690 O.3   401  COA401     -0.2703
     28  P2A       12.8400   26.0880   22.3960 P.3   401  COA401      0.2188
     29  O4A       13.9540   25.9960   23.3950 O.3   401  COA401     -0.4371
     30  O5A       12.5170   24.7040   21.8930 O.2   401  COA401     -0.5170
     31  O6A       11.4780   26.7910   23.0090 O.3   401  COA401     -0.3138
     32  CBP       10.6350   28.3140   24.7850 C.3   401  COA401      0.0645
     33  CCP       11.5130   28.1420   23.5140 C.3   401  COA401      0.1519
     34  CDP       10.4760   29.8220   25.1980 C.3   401  COA401      0.0056
     35  CEP        9.2760   27.7170   24.3470 C.3   401  COA401      0.0056
     36  CAP       11.3910   27.5300   25.9380 C.3   401  COA401      0.2312
     37  OAP       12.6470   28.2040   26.2560 O.3   401  COA401     -0.2131
     38  C9P       10.5820   27.3920   27.2220 C.2   401  COA401      0.2719
     39  O9P        9.6760   26.3910   27.3680 O.2   401  COA401     -0.2706
     40  N8P       10.8340   28.3030   28.1330 N.am  401  COA401     -0.2028
     41  C7P       10.2140   28.3700   29.4540 C.3   401  COA401      0.1248
     42  C6P        8.7470   28.7720   29.3170 C.3   401  COA401      0.1102
     43  C5P        8.6340   30.1740   28.7910 C.2   401  COA401      0.2432
     44  O5P        9.3740   31.1360   29.2290 O.2   401  COA401     -0.2733
     45  N4P        7.7140   30.3000   27.8430 N.am  401  COA401     -0.2044
     46  C3P        7.3410   31.5750   27.0790 C.3   401  COA401      0.1276
     47  C2P        6.5520   32.4630   28.0210 C.3   401  COA401      0.0920
     48  S1P        5.0210   31.6910   28.7250 S.3   401  COA401     -0.0802
@<TRIPOS>BOND
     1    17    16    2
     2    26    24    2
     3    19    16    1
     4    16    18    1
     5    16    15    1
     6    22    23    1
     7    22    20    1
     8    24    25    1
     9    24    23    1
    10    24    27    1
    11    14    15    1
    12    14    20    1
    13    14    12    1
    14    20    21    1
    15    27    28    1
    16    30    28    2
    17    12    13    1
    18    12    11    1
    19    28    31    1
    20    28    29    1
    21    21    11    1
    22    31    33    1
    23    11    10    1
    24    33    32    1
    25    10     9    1
    26    10     4    1
    27    35    32    1
    28     9     8    1
    29    32    34    1
    30    32    36    1
    31     4     3    2
    32     4     5    1
    33     3     2    1
    34     8     5    2
    35    36    37    1
    36    36    38    1
    37     5     6    1
    38     2     1    1
    39    46    45    1
    40    46    47    1
    41     6     1    2
    42     6     7    1
    43    38    39    2
    44    38    40   am
    45    45    43   am
    46    47    48    1
    47    40    41    1
    48    43    44    2
    49    43    42    1
    50    42    41    1
