@<TRIPOS>MOLECULE
1q2e_GLC_A_1.pdb
 11 11 0 0 0
SMALL
GASTEIGER

@<TRIPOS>ATOM
      1  C1        19.4630   51.9260   66.9770 C.3   903  GLC903      0.1777
      2  C2        19.3540   52.5420   65.5790 C.3   903  GLC903      0.2141
      3  C3        20.7550   52.9880   65.1440 C.3   903  GLC903      0.2173
      4  C4        21.4150   53.8880   66.2060 C.3   903  GLC903      0.2142
      5  C5        21.3370   53.2520   67.5920 C.3   903  GLC903      0.1810
      6  C6        21.8170   54.1850   68.6930 C.3   903  GLC903      0.2141
      7  O2        18.8450   51.5730   64.6610 O.3   903  GLC903     -0.2176
      8  O3        20.6860   53.6730   63.8970 O.3   903  GLC903     -0.2175
      9  O4        22.8080   54.0700   65.8810 O.3   903  GLC903     -0.2176
     10  O5        19.9650   52.9110   67.8900 O.3   903  GLC903     -0.3481
     11  O6        21.1740   55.4480   68.6020 O.3   903  GLC903     -0.2176
@<TRIPOS>BOND
     1     8     3    1
     2     7     2    1
     3     3     2    1
     4     3     4    1
     5     2     1    1
     6     9     4    1
     7     4     5    1
     8     1    10    1
     9     5    10    1
    10     5     6    1
    11    11     6    1
