@<TRIPOS>MOLECULE
1q2e_SGC_A_1.pdb
 11 11 0 0 0
SMALL
GASTEIGER

@<TRIPOS>ATOM
      1  C1        17.6140   47.9240   70.4560 C.3   902  SGC902      0.1776
      2  C2        18.5080   49.0820   70.8670 C.3   902  SGC902      0.2124
      3  O2        18.3250   49.3380   72.2520 O.3   902  SGC902     -0.2177
      4  C3        18.1820   50.3290   70.0650 C.3   902  SGC902      0.1977
      5  O3        19.0710   51.3720   70.4430 O.3   902  SGC902     -0.2193
      6  C4        18.3150   50.0330   68.5750 C.3   902  SGC902      0.1206
      7  C5        17.4040   48.8580   68.2040 C.3   902  SGC902      0.1614
      8  O5        17.7310   47.7050   69.0270 O.3   902  SGC902     -0.3498
      9  C6        17.5850   48.4990   66.7350 C.3   902  SGC902      0.2124
     10  O6        18.8400   47.8600   66.5530 O.3   902  SGC902     -0.2177
     11  S4        17.9400   51.4830   67.5660 S.3   902  SGC902     -0.0777
@<TRIPOS>BOND
     1    10     9    1
     2     9     7    1
     3    11     6    1
     4     7     6    1
     5     7     8    1
     6     6     4    1
     7     8     1    1
     8     4     5    1
     9     4     2    1
    10     1     2    1
    11     2     3    1
