@<TRIPOS>MOLECULE
1q2o_HEM_A_1.pdb
 43 50 0 0 0
SMALL
GASTEIGER

@<TRIPOS>ATOM
      1  CHA        9.3360    8.9980   35.1240 C.2   700  HEM700      0.0000
      2  CHB        4.7210    9.1980   33.5940 C.2   700  HEM700      0.0000
      3  CHC        6.1250    7.3670   29.3500 C.2   700  HEM700      0.0000
      4  CHD       10.5720    6.5740   31.0860 C.2   700  HEM700      0.0000
      5  C1A        7.9860    9.3160   35.0050 C.2   700  HEM700      0.0000
      6  C2A        7.2540   10.1730   35.9230 C.2   700  HEM700      0.0000
      7  C3A        5.9350   10.1980   35.5370 C.2   700  HEM700      0.0000
      8  C4A        5.8770    9.3650   34.3490 C.2   700  HEM700      0.0000
      9  CMA        4.7550   10.8950   36.2460 C.3   700  HEM700      0.0000
     10  CAA        7.8730   10.9880   37.0460 C.3   700  HEM700      0.0000
     11  CBA        8.4450   12.2670   36.4490 C.3   700  HEM700      0.0000
     12  CGA        9.0210   13.2180   37.4900 C.2   700  HEM700      0.0000
     13  O1A        8.4230   13.3580   38.5810 O.co2 700  HEM700      0.0000
     14  O2A       10.0670   13.8440   37.2080 O.co2 700  HEM700      0.0000
     15  C1B        4.6760    8.5980   32.3310 C.ar  700  HEM700      0.0000
     16  C2B        3.4920    8.5600   31.4910 C.ar  700  HEM700      0.0000
     17  C3B        3.8510    8.0170   30.2950 C.ar  700  HEM700      0.0000
     18  C4B        5.2840    7.7430   30.4030 C.ar  700  HEM700      0.0000
     19  CMB        2.0870    9.0240   31.8990 C.3   700  HEM700      0.0000
     20  CAB        2.9750    7.8370   29.2100 C.2   700  HEM700      0.0000
     21  CBB        3.0390    6.8920   28.2290 C.2   700  HEM700      0.0000
     22  C1C        7.4700    7.1060   29.4530 C.2   700  HEM700      0.0000
     23  C2C        8.2710    6.6290   28.3230 C.2   700  HEM700      0.0000
     24  C3C        9.4980    6.3190   28.8150 C.2   700  HEM700      0.0000
     25  C4C        9.4580    6.6510   30.2270 C.2   700  HEM700      0.0000
     26  CMC        7.7620    6.4550   26.8970 C.3   700  HEM700      0.0000
     27  CAC       10.6280    5.7920   28.1350 C.2   700  HEM700      0.0000
     28  CBC       10.6950    5.0650   26.9880 C.2   700  HEM700      0.0000
     29  C1D       10.5980    7.0850   32.3950 C.ar  700  HEM700      0.0000
     30  C2D       11.7800    7.1860   33.2080 C.ar  700  HEM700      0.0000
     31  C3D       11.4680    7.9160   34.3130 C.ar  700  HEM700      0.0000
     32  C4D       10.0660    8.2390   34.1860 C.ar  700  HEM700      0.0000
     33  CMD       13.1740    6.6160   32.8820 C.3   700  HEM700      0.0000
     34  CAD       12.4320    8.3690   35.4210 C.3   700  HEM700      0.0000
     35  CBD       12.9630    9.7540   35.0890 C.3   700  HEM700      0.0000
     36  CGD       13.8040   10.3570   36.1990 C.2   700  HEM700      0.0000
     37  O1D       14.3700    9.6020   37.0020 O.co2 700  HEM700      0.0000
     38  O2D       13.9100   11.6010   36.2460 O.co2 700  HEM700      0.0000
     39  NA         7.1430    8.8560   33.9910 N.2   700  HEM700      0.0000
     40  NB         5.7710    8.0300   31.6850 N.ar  700  HEM700      0.0000
     41  NC         8.2020    7.1280   30.6150 N.2   700  HEM700      0.0000
     42  ND         9.5230    7.7050   33.0050 N.ar  700  HEM700      0.0000
     43 FE          7.5860    7.6330   32.4710 Fe    700  HEM700      0.0000
@<TRIPOS>BOND
     1    26    23    1
     2    28    27    2
     3    27    24    1
     4    21    20    2
     5    23    24    2
     6    23    22    1
     7    24    25    1
     8    20    17    1
     9     3    22    2
    10     3    18    1
    11    22    41    1
    12    25    41    2
    13    25     4    1
    14    17    18   ar
    15    17    16   ar
    16    18    40   ar
    17    41    43    1
    18     4    29    2
    19    16    19    1
    20    16    15   ar
    21    40    15   ar
    22    40    43    1
    23    15     2    1
    24    29    42   ar
    25    29    30   ar
    26    43    42    1
    27    43    39    1
    28    33    30    1
    29    42    32   ar
    30    30    31   ar
    31     2     8    2
    32    39     8    1
    33    39     5    2
    34    32    31   ar
    35    32     1    2
    36    31    34    1
    37     8     7    1
    38     5     1    1
    39     5     6    1
    40    35    34    1
    41    35    36    1
    42     7     6    2
    43     7     9    1
    44     6    10    1
    45    36    38   ar
    46    36    37   ar
    47    11    10    1
    48    11    12    1
    49    14    12   ar
    50    12    13   ar
