@<TRIPOS>MOLECULE
1q2o_H4B_A_1.pdb
 17 18 0 0 0
SMALL
GASTEIGER

@<TRIPOS>ATOM
      1  N1         8.4990   11.8220   42.8800 N.2   760  H4B760     -0.2683
      2  C2         8.4350   12.1740   41.5750 C.1   760  H4B760      0.2608
      3  N2         7.6070   11.5990   40.7240 N.pl3 760  H4B760     -0.0220
      4  N3         9.2660   13.1610   41.1380 N.2   760  H4B760     -0.2474
      5  C4        10.2040   13.8490   41.9370 C.1   760  H4B760      0.2441
      6  O4        10.9120   14.7390   41.4150 O.2   760  H4B760     -0.2063
      7  C4A       10.2210   13.4210   43.2830 C.2   760  H4B760      0.2463
      8  C8A        9.3750   12.4160   43.7630 C.1   760  H4B760      0.1270
      9  N5        11.1840   14.0810   44.1680 N.2   760  H4B760     -0.2460
     10  N8         9.3820   12.0090   45.0370 N.2   760  H4B760     -0.2054
     11  C6        11.5500   13.2480   45.3820 C.3   760  H4B760      0.1627
     12  C7        10.3030   12.6170   46.0190 C.3   760  H4B760      0.1643
     13  C9        12.4030   14.1640   46.3060 C.3   760  H4B760      0.2063
     14  O9        11.8200   15.4180   46.6480 O.3   760  H4B760     -0.2183
     15  C10       12.8100   13.4300   47.6050 C.3   760  H4B760      0.1842
     16  C11       13.8230   14.2050   48.3910 C.3   760  H4B760      0.0383
     17  O10       13.3620   12.1900   47.1540 O.3   760  H4B760     -0.2204
@<TRIPOS>BOND
     1     3     2    1
     2     4     2    2
     3     4     5    2
     4     6     5    2
     5     2     1    2
     6     5     7    1
     7     1     8    2
     8     7     8    1
     9     7     9    2
    10     8    10    2
    11     9    11    1
    12    10    12    1
    13    11    12    1
    14    11    13    1
    15    13    14    1
    16    13    15    1
    17    17    15    1
    18    15    16    1
