@<TRIPOS>MOLECULE
1q2o_DP1_A_1.pdb
 22 21 0 0 0
SMALL
GASTEIGER

@<TRIPOS>ATOM
      1  NH2        5.6550   11.9610   31.6590 N.pl3 790  DP1790      0.1343
      2  CZ         6.9430   12.0630   31.5850 C.cat 790  DP1790      0.5245
      3  NH1        7.6150   11.5710   30.6090 N.pl3 790  DP1790      0.1075
      4  NO         7.1100   10.9630   29.4700 N.pl3 790  DP1790      0.2221
      5  O2         7.8780   10.5570   28.6240 O.2   790  DP1790     -0.0910
      6  O3         5.9130   10.8300   29.3070 O.2   790  DP1790     -0.0910
      7  NE         7.5520   12.7070   32.5720 N.pl3 790  DP1790     -0.0874
      8  CD         9.0170   12.9410   32.6860 C.3   790  DP1790      0.2204
      9  CG         9.3450   14.3100   32.0370 C.3   790  DP1790      0.0489
     10  CB         8.6980   15.5010   32.7820 C.3   790  DP1790      0.0321
     11  CA         9.1350   15.6370   34.2570 C.3   790  DP1790      0.1694
     12  N          8.0210   16.2220   35.0010 N.3   790  DP1790     -0.1231
     13  C         10.4150   16.4830   34.4130 C.2   790  DP1790      0.2592
     14  O         10.3660   17.7000   34.5640 O.2   790  DP1790     -0.2718
     15  N'        11.5610   15.8110   34.3790 N.am  790  DP1790     -0.1965
     16  CA'       12.8890   16.4310   34.5220 C.3   790  DP1790      0.1759
     17  C'        13.4610   16.9240   33.1700 C.2   790  DP1790      0.2806
     18  O'        13.4660   18.1140   32.8700 O.2   790  DP1790     -0.2698
     19  N1'       13.9540   15.9930   32.3560 N.am  790  DP1790     -0.0863
     20  CB'       13.7920   15.3810   35.2030 C.3   790  DP1790      0.0516
     21  C1        14.8320   16.0060   36.1410 C.3   790  DP1790      0.1116
     22  N1        15.6430   14.9350   36.7420 N.3   790  DP1790     -0.1313
@<TRIPOS>BOND
     1     5     4    2
     2     6     4    2
     3     4     3    1
     4     3     2    1
     5     2     1    2
     6     2     7    1
     7     9     8    1
     8     9    10    1
     9    19    17   am
    10     7     8    1
    11    10    11    1
    12    18    17    2
    13    17    16    1
    14    11    13    1
    15    11    12    1
    16    15    13   am
    17    15    16    1
    18    13    14    2
    19    16    20    1
    20    20    21    1
    21    21    22    1
