@<TRIPOS>MOLECULE
1q2p_MA4_A_1.pdb
 35 37 0 0 0
SMALL
GASTEIGER

@<TRIPOS>ATOM
      1  C1        35.6230   25.1210    2.1960 C.3   300  MA4300      0.2695
      2  C2        36.1620   24.4280    0.9110 C.3   300  MA4300      0.2406
      3  C3        35.8610   22.8930    0.8890 C.3   300  MA4300      0.2198
      4  C4        36.2540   22.2100    2.2430 C.3   300  MA4300      0.2144
      5  C5        35.8250   23.0690    3.4820 C.3   300  MA4300      0.1835
      6  C6        36.2290   22.4540    4.8550 C.3   300  MA4300      0.2142
      7  O2        35.6400   25.0590   -0.2710 O.3   300  MA4300     -0.2149
      8  O3        36.5520   22.2770   -0.2130 O.3   300  MA4300     -0.2174
      9  O5        36.2100   24.4940    3.3650 O.3   300  MA4300     -0.3256
     10  O6        37.6470   22.2730    4.9790 O.3   300  MA4300     -0.2176
     11  O1        34.1370   25.0920    2.2930 O.3   300  MA4300     -0.3257
     12  O4        35.6130   20.9280    2.3280 O.3   300  MA4300     -0.2176
     13  C10       30.9540   27.7640    2.8420 C.3   300  MA4300      0.2695
     14  C20       31.7240   28.0010    1.5050 C.3   300  MA4300      0.2404
     15  C30       32.6400   26.7680    1.2010 C.3   300  MA4300      0.2167
     16  C40       33.5270   26.4140    2.4420 C.3   300  MA4300      0.1804
     17  C50       32.6850   26.4150    3.7540 C.3   300  MA4300      0.1803
     18  C60       33.5810   26.2080    5.0160 C.3   300  MA4300      0.2141
     19  O10       30.0690   28.8730    3.2150 O.3   300  MA4300     -0.3286
     20  O20       30.8340   28.2670    0.4000 O.3   300  MA4300     -0.2149
     21  O30       33.4720   27.0610    0.0680 O.3   300  MA4300     -0.2175
     22  O50       31.8850   27.6120    3.8810 O.3   300  MA4300     -0.3257
     23  O60       34.6370   27.1830    5.0880 O.3   300  MA4300     -0.2176
     24  C11       28.6910   28.4540    3.1090 C.3   300  MA4300      0.1449
     25  C21       28.2980   27.7040    4.3560 C.3   300  MA4300      0.0322
     26  C31       26.8880   27.1520    4.2460 C.3   300  MA4300      0.0026
     27  C41       25.8580   28.2600    4.0740 C.3   300  MA4300      0.0001
     28  C51       24.5360   27.8590    4.6940 C.3   300  MA4300      0.0000
     29  C61       24.7280   27.5550    6.1660 C.3   300  MA4300      0.0000
     30  C12       23.3970   27.2710    6.8310 C.3   300  MA4300      0.0000
     31  C22       23.4050   27.9250    8.2990 C.3   300  MA4300      0.0000
     32  C32       23.1220   26.9530    9.4710 C.3   300  MA4300      0.0000
     33  C42       22.0180   25.9410    9.0810 C.3   300  MA4300      0.0000
     34  C52       22.6190   24.9740    8.0170 C.3   300  MA4300      0.0000
     35  C62       23.0450   25.7140    6.6950 C.3   300  MA4300      0.0000
@<TRIPOS>BOND
     1     7     2    1
     2     8     3    1
     3    21    15    1
     4    20    14    1
     5     3     2    1
     6     3     4    1
     7     2     1    1
     8    15    14    1
     9    15    16    1
    10    14    13    1
    11     1    11    1
    12     1     9    1
    13     4    12    1
    14     4     5    1
    15    11    16    1
    16    16    17    1
    17    13    19    1
    18    13    22    1
    19    24    19    1
    20    24    25    1
    21     9     5    1
    22     5     6    1
    23    17    22    1
    24    17    18    1
    25    27    26    1
    26    27    28    1
    27    26    25    1
    28    28    29    1
    29     6    10    1
    30    18    23    1
    31    29    30    1
    32    35    30    1
    33    35    34    1
    34    30    31    1
    35    34    33    1
    36    31    32    1
    37    33    32    1
