@<TRIPOS>MOLECULE
1q2p_WY2_A_1.pdb
 23 26 0 0 0
SMALL
GASTEIGER

@<TRIPOS>ATOM
      1  S1         5.5210   36.2010    4.1150 S.3   400  WY2400     -0.1229
      2  C2         6.1850   37.8330    3.7330 C.3   400  WY2400      0.1107
      3  C3         7.2930   38.3580    4.3150 C.2   400  WY2400      0.1492
      4  N4         8.0020   37.6600    5.3200 N.2   400  WY2400     -0.2408
      5  C5         8.3810   36.3650    5.5770 C.2   400  WY2400      0.0989
      6  C6         7.9310   35.1900    5.0370 C.2   400  WY2400      0.0552
      7  C7         8.5300   34.0050    5.6270 C.2   400  WY2400      0.2327
      8  O8         9.6240   34.0300    6.2010 O.2   400  WY2400     -0.2834
      9  C61        6.8890   35.0000    3.9780 C.3   400  WY2400      0.1244
     10  C62        7.5810   34.9110    2.6070 C.2   400  WY2400      0.1231
     11  C66        7.5690   35.7840    1.5620 C.3   400  WY2400      0.1536
     12  N65        8.4040   35.2800    0.5630 N.pl3 400  WY2400     -0.2544
     13  C64        8.8700   34.1000    1.0690 C.2   400  WY2400      0.2175
     14  N63        8.3840   33.8910    2.2570 N.2   400  WY2400     -0.3860
     15  S66        9.9200   33.5030   -0.2240 S.3   400  WY2400     -0.0432
     16  C67        9.6890   34.8660   -1.3610 C.2   400  WY2400      0.0204
     17  C68        8.8400   35.6750   -0.7170 C.2   400  WY2400      0.0339
     18  C69        8.5600   36.9000   -1.6040 C.3   400  WY2400      0.0420
     19  C70        9.1530   36.5860   -2.9960 C.3   400  WY2400      0.0113
     20  C71       10.0940   35.3920   -2.7140 C.3   400  WY2400      0.0344
     21  C31        7.8090   39.6340    3.9420 C.2   400  WY2400      0.4019
     22  O32        8.8160   40.0660    4.4830 O.co2 400  WY2400     -0.2392
     23  O33        7.2020   40.3670    2.9790 O.co2 400  WY2400     -0.2392
@<TRIPOS>BOND
     1    19    20    1
     2    19    18    1
     3    20    16    1
     4    18    17    1
     5    16    17    2
     6    16    15    1
     7    17    12    1
     8    15    13    1
     9    12    13    1
    10    12    11    1
    11    13    14    2
    12    11    10    1
    13    14    10    2
    14    10     9    1
    15    23    21   ar
    16     2     1    1
    17     2     3    1
    18    21     3    1
    19    21    22   ar
    20     9     1    1
    21     9     6    1
    22     3     4    2
    23     6     5    2
    24     6     7    1
    25     4     5    1
    26     7     8    2
