@<TRIPOS>MOLECULE
1q2q_WY2_A_1.pdb
 23 26 0 0 0
SMALL
GASTEIGER

@<TRIPOS>ATOM
      1  S1        19.7720   20.6230    5.0080 S.3   400  WY2400     -0.1229
      2  C2        19.6640   22.3270    5.4500 C.3   400  WY2400      0.1107
      3  C3        19.5990   22.9810    6.6120 C.2   400  WY2400      0.1492
      4  N4        19.5310   22.3480    7.8980 N.2   400  WY2400     -0.2408
      5  C5        19.4950   21.0430    8.2940 C.2   400  WY2400      0.0989
      6  C6        19.1690   19.9590    7.5620 C.2   400  WY2400      0.0552
      7  C7        19.1940   18.7450    8.3100 C.2   400  WY2400      0.2327
      8  O8        19.3710   18.7750    9.5180 O.2   400  WY2400     -0.2834
      9  C61       18.6280   19.8050    6.1520 C.3   400  WY2400      0.1244
     10  C62       17.2590   20.5420    6.0460 C.2   400  WY2400      0.1231
     11  C66       16.3360   20.8330    7.0030 C.3   400  WY2400      0.1536
     12  N65       15.2670   21.4450    6.3490 N.pl3 400  WY2400     -0.2544
     13  C64       15.6500   21.5250    5.0490 C.2   400  WY2400      0.2175
     14  N63       16.8240   21.0260    4.8720 N.2   400  WY2400     -0.3860
     15  S66       14.2830   22.2860    4.2220 S.3   400  WY2400     -0.0432
     16  C67       13.2420   22.3910    5.6680 C.2   400  WY2400      0.0204
     17  C68       13.9890   21.9230    6.6680 C.2   400  WY2400      0.0339
     18  C69       13.1380   21.7510    7.9200 C.3   400  WY2400      0.0420
     19  C70       11.6920   21.9440    7.4410 C.3   400  WY2400      0.0113
     20  C71       11.8630   22.7570    6.1390 C.3   400  WY2400      0.0344
     21  C31       19.5850   24.4060    6.6760 C.2   400  WY2400      0.4019
     22  O32       19.4350   24.9310    7.7810 O.co2 400  WY2400     -0.2392
     23  O33       19.7210   25.2010    5.6070 O.co2 400  WY2400     -0.2392
@<TRIPOS>BOND
     1    15    13    1
     2    15    16    1
     3    14    13    2
     4    14    10    2
     5     1     2    1
     6     1     9    1
     7    13    12    1
     8     2     3    1
     9    23    21   ar
    10    16    20    1
    11    16    17    2
    12    10     9    1
    13    10    11    1
    14    20    19    1
    15     9     6    1
    16    12    17    1
    17    12    11    1
    18     3    21    1
    19     3     4    2
    20    17    18    1
    21    21    22   ar
    22    19    18    1
    23     6     5    2
    24     6     7    1
    25     4     5    1
    26     7     8    2
