@<TRIPOS>MOLECULE
1q2r_9DG_A_1.pdb
 11 12 0 0 0
SMALL
GASTEIGER

@<TRIPOS>ATOM
      1  C9        55.5820   -9.4800   39.3970 C.2   387  9DG387      0.0561
      2  C8        55.3460   -8.4410   40.1480 C.2   387  9DG387      0.1025
      3  N7        54.0780   -8.3940   40.5360 N.2   387  9DG387     -0.2289
      4  C5        53.4990   -9.4860   39.9800 C.2   387  9DG387      0.2068
      5  C6        52.2110  -10.0000   40.0200 C.1   387  9DG387      0.2362
      6  O6        51.3300   -9.4170   40.6470 O.2   387  9DG387     -0.2069
      7  N1        51.9270  -11.1990   39.3380 N.2   387  9DG387     -0.2486
      8  C2        52.9490  -11.8600   38.6270 C.1   387  9DG387      0.2519
      9  N2        52.6950  -13.0110   38.0210 N.pl3 387  9DG387     -0.0226
     10  N3        54.1960  -11.3390   38.5930 N.2   387  9DG387     -0.3229
     11  C4        54.4840  -10.1880   39.2430 C.2   387  9DG387      0.1764
@<TRIPOS>BOND
     1     9     8    1
     2    10     8    2
     3    10    11    2
     4     8     7    2
     5    11     1    1
     6    11     4    1
     7     7     5    2
     8     1     2    2
     9     4     5    1
    10     4     3    2
    11     5     6    2
    12     2     3    1
