@<TRIPOS>MOLECULE
1q2s_9DG_C_1.pdb
 11 12 0 0 0
SMALL
GASTEIGER

@<TRIPOS>ATOM
      1  C9        42.1590   26.3170    5.4680 C.2   387  9DG387      0.0561
      2  C8        42.4960   25.2860    4.7420 C.2   387  9DG387      0.1025
      3  N7        41.4870   24.4380    4.5970 N.2   387  9DG387     -0.2289
      4  C5        40.4550   24.9970    5.2870 C.2   387  9DG387      0.2068
      5  C6        39.1310   24.6000    5.5180 C.1   387  9DG387      0.2362
      6  O6        38.6930   23.5520    5.0410 O.2   387  9DG387     -0.2069
      7  N1        38.2960   25.4240    6.2940 N.2   387  9DG387     -0.2486
      8  C2        38.8030   26.6320    6.8330 C.1   387  9DG387      0.2519
      9  N2        38.0170   27.4050    7.5740 N.pl3 387  9DG387     -0.0226
     10  N3        40.0910   26.9980    6.5960 N.2   387  9DG387     -0.3229
     11  C4        40.9090   26.2160    5.8530 C.2   387  9DG387      0.1764
@<TRIPOS>BOND
     1     3     2    1
     2     3     4    2
     3     2     1    2
     4     6     5    2
     5     4     5    1
     6     4    11    1
     7     1    11    1
     8     5     7    2
     9    11    10    2
    10     7     8    2
    11    10     8    2
    12     8     9    1
