@<TRIPOS>MOLECULE
1q33_BGC_A_1.pdb
 12 12 0 0 0
SMALL
GASTEIGER

@<TRIPOS>ATOM
      1  C2        28.2040   28.4850   37.2240 C.3   400  BGC400      0.2434
      2  C3        29.5470   28.7400   37.9140 C.3   400  BGC400      0.2199
      3  C4        29.5810   30.1810   38.4220 C.3   400  BGC400      0.2144
      4  C5        28.3990   30.4090   39.3660 C.3   400  BGC400      0.1836
      5  C6        28.3280   31.8320   39.8630 C.3   400  BGC400      0.2142
      6  C1        27.0660   28.7760   38.2160 C.3   400  BGC400      0.3024
      7  O1        25.8390   28.6140   37.5910 O.3   400  BGC400     -0.1869
      8  O2        28.1360   27.1370   36.7870 O.3   400  BGC400     -0.2148
      9  O3        30.6150   28.5220   37.0030 O.3   400  BGC400     -0.2174
     10  O4        30.8010   30.4280   39.0980 O.3   400  BGC400     -0.2176
     11  O5        27.1570   30.1350   38.6760 O.3   400  BGC400     -0.3236
     12  O6        27.9740   32.7200   38.8190 O.3   400  BGC400     -0.2176
@<TRIPOS>BOND
     1     8     1    1
     2     9     2    1
     3     1     2    1
     4     1     6    1
     5     7     6    1
     6     2     3    1
     7     6    11    1
     8     3    10    1
     9     3     4    1
    10    11     4    1
    11    12     5    1
    12     4     5    1
