@<TRIPOS>MOLECULE
1q36_SKP_A_1.pdb
 26 26 0 0 0
SMALL
GASTEIGER

@<TRIPOS>ATOM
      1  C1        56.1390   12.1250   27.8560 C.2   600  SKP600      0.0582
      2  C2        54.9640   11.3680   28.0670 C.2   600  SKP600      0.0084
      3  C3        55.0560   10.0880   28.9000 C.3   600  SKP600      0.1808
      4  C4        56.3260   10.0670   29.8260 C.3   600  SKP600      0.2109
      5  C5        57.5820   10.2660   28.9680 C.3   600  SKP600      0.1557
      6  C6        57.4600   11.7340   28.4080 C.3   600  SKP600      0.0652
      7  C7        56.0270   13.3880   27.0650 C.2   600  SKP600      0.3837
      8  O1        55.0410    8.9100   27.9840 O.3   600  SKP600     -0.2655
      9  O2        56.3600    8.8040   30.5110 O.3   600  SKP600     -0.2175
     10  O3        58.7430   10.1780   29.8050 O.3   600  SKP600     -0.3252
     11  O4        55.1880   13.4310   26.1780 O.co2 600  SKP600     -0.2409
     12  O5        56.7800   14.2710   27.3470 O.co2 600  SKP600     -0.2409
     13  P1        53.7500    7.9810   27.8000 P.3   600  SKP600      0.5329
     14  O6        52.6180    8.8310   27.1780 O.3   600  SKP600     -0.1145
     15  O7        53.3970    7.4560   29.2450 O.3   600  SKP600     -0.1145
     16  O8        54.2440    6.9060   26.8120 O.2   600  SKP600     -0.2224
     17  C8        59.7010    9.1210   29.7520 C.3   600  SKP600      0.2917
     18  C9        59.1200    7.6850   29.6030 C.3   600  SKP600      0.0741
     19  C10       60.5220    9.2090   31.0040 C.2   600  SKP600      0.4155
     20  O9        61.2920   10.2140   30.9540 O.co2 600  SKP600     -0.2402
     21  O10       60.4130    8.4420   31.9810 O.co2 600  SKP600     -0.2402
     22  P2        60.5240    9.3480   26.9310 P.3   600  SKP600      0.5348
     23  O11       61.7530    8.6870   26.2850 O.2   600  SKP600     -0.2223
     24  O12       60.4820   10.8180   26.5990 O.3   600  SKP600     -0.1145
     25  O13       59.2370    8.5950   26.4710 O.3   600  SKP600     -0.1145
     26  O14       60.6630    9.2540   28.5940 O.3   600  SKP600     -0.2386
@<TRIPOS>BOND
     1    11     7   ar
     2    23    22    2
     3    25    22    1
     4    24    22    1
     5    16    13    2
     6    22    26    1
     7     7    12   ar
     8     7     1    1
     9    14    13    1
    10    13     8    1
    11    13    15    1
    12     1     2    2
    13     1     6    1
    14     8     3    1
    15     2     3    1
    16     6     5    1
    17    26    17    1
    18     3     4    1
    19     5    10    1
    20     5     4    1
    21    18    17    1
    22    17    10    1
    23    17    19    1
    24     4     9    1
    25    20    19   ar
    26    19    21   ar
