@<TRIPOS>MOLECULE
1q3a_NGH_A_1.pdb
 21 21 0 0 0
SMALL
GASTEIGER

@<TRIPOS>ATOM
      1  C1        26.5190   -8.6220   25.1110 C.ar  480  NGH480      0.0230
      2  C2        27.0110   -7.5420   24.1130 C.ar  480  NGH480      0.0383
      3  C3        27.6960   -7.9130   22.7810 C.ar  480  NGH480      0.1388
      4  C4        27.9930   -9.4430   22.4980 C.ar  480  NGH480      0.0383
      5  C5        27.4680  -10.5430   23.5010 C.ar  480  NGH480      0.0230
      6  C6        26.8470  -10.1420   24.8390 C.ar  480  NGH480      0.1224
      7  O1        28.9360   -6.9880   22.5710 O.3   480  NGH480     -0.4714
      8  C7        29.6230   -7.2450   21.2900 C.3   480  NGH480      0.2525
      9  S1        25.7360  -11.3120   25.5330 S.O2  480  NGH480      0.0634
     10  O2        26.4700  -12.6580   25.1180 O.2   480  NGH480     -0.1528
     11  O3        25.9690  -11.3270   27.1730 O.2   480  NGH480     -0.1528
     12  N         24.2190  -11.5560   25.0550 N.3   480  NGH480     -0.1513
     13  C9        23.8410  -12.3710   23.8860 C.3   480  NGH480      0.0959
     14  C10       23.0740  -10.8090   25.8700 C.3   480  NGH480      0.1496
     15  C11       22.3340   -9.7130   24.9020 C.3   480  NGH480      0.2734
     16  N1        23.1550   -8.4890   24.9290 N.4   480  NGH480     -0.0141
     17  O4        23.5550   -7.9700   23.8310 O.3   480  NGH480     -0.0975
     18  O5        22.0890  -10.1640   23.5790 O.3   480  NGH480     -0.1994
     19  C12       23.4400  -13.8820   24.2300 C.3   480  NGH480      0.0178
     20  C13       22.2910  -14.2970   23.2970 C.3   480  NGH480      0.0015
     21  C14       23.1080  -14.2580   25.7330 C.3   480  NGH480      0.0015
@<TRIPOS>BOND
     1     8     7    1
     2     4     3   ar
     3     4     5   ar
     4     7     3    1
     5     3     2   ar
     6    20    19    1
     7     5     6   ar
     8    18    15    1
     9    17    16    1
    10    13    19    1
    11    13    12    1
    12     2     1   ar
    13    19    21    1
    14     6     1   ar
    15     6     9    1
    16    15    16    1
    17    15    14    1
    18    12     9    1
    19    12    14    1
    20    10     9    2
    21     9    11    2
