@<TRIPOS>MOLECULE
1q3d_STU_A_1.pdb
 35 42 0 0 0
SMALL
GASTEIGER

@<TRIPOS>ATOM
      1  O4        40.4260    7.2110   30.1210 O.3   451  STU451     -0.3186
      2  C25       40.7830    6.0300   30.8000 C.3   451  STU451      0.2078
      3  C24       39.9570    4.7650   30.4360 C.3   451  STU451      0.0739
      4  C23       38.5770    4.9940   29.7840 C.3   451  STU451      0.1086
      5  C22       38.0210    6.3510   30.3680 C.3   451  STU451      0.1761
      6  C21       39.0100    7.6130   30.1950 C.3   451  STU451      0.1915
      7  C26       38.8300    8.2060   28.7750 C.3   451  STU451      0.0566
      8  N2        38.8810    8.5890   31.3470 N.ar  451  STU451     -0.3054
      9  C18       39.5630    8.4540   32.5410 C.ar  451  STU451      0.0774
     10  C19       40.5000    7.4290   32.9490 C.ar  451  STU451      0.0783
     11  C6        41.0080    7.3750   34.2620 C.ar  451  STU451      0.0293
     12  C7        40.5750    8.3860   35.1900 C.ar  451  STU451      0.0822
     13  C10       39.6690    9.3810   34.7880 C.ar  451  STU451      0.0154
     14  C11       39.1580    9.4250   33.4730 C.ar  451  STU451      0.0173
     15  C12       38.1890   10.2330   32.8200 C.ar  451  STU451      0.0171
     16  C17       38.0110    9.6980   31.4950 C.ar  451  STU451      0.0617
     17  C16       37.0320   10.3000   30.6100 C.ar  451  STU451      0.0172
     18  C15       36.2810   11.4040   31.0730 C.ar  451  STU451      0.0015
     19  C14       36.4690   11.9420   32.4000 C.ar  451  STU451      0.0001
     20  C13       37.4110   11.3740   33.2760 C.ar  451  STU451      0.0015
     21  C9        39.3860   10.2770   35.9720 C.3   451  STU451      0.1650
     22  N1        40.1490    9.6710   37.0110 N.2   451  STU451     -0.1976
     23  C8        40.9550    8.6580   36.5920 C.1   451  STU451      0.1501
     24  O5        41.8680    8.0920   37.2510 O.2   451  STU451     -0.2222
     25  C5        41.8700    6.2410   34.3300 C.ar  451  STU451      0.0180
     26  C20       41.8630    5.6530   33.0380 C.ar  451  STU451      0.0618
     27  C1        42.6520    4.4930   32.6490 C.ar  451  STU451      0.0172
     28  C2        43.4490    3.9950   33.7140 C.ar  451  STU451      0.0015
     29  C3        43.4700    4.5600   35.0160 C.ar  451  STU451      0.0001
     30  C4        42.6940    5.6880   35.3840 C.ar  451  STU451      0.0015
     31  N3        41.0170    6.3890   32.2050 N.ar  451  STU451     -0.3039
     32  O6        37.9400    6.1060   31.8040 O.3   451  STU451     -0.3478
     33  C27       36.6650    6.3720   32.4410 C.3   451  STU451      0.1743
     34  N4        37.5720    3.9090   29.9630 N.3   451  STU451     -0.2152
     35  C28       36.4640    3.8880   28.9580 C.3   451  STU451      0.1075
@<TRIPOS>BOND
     1     7     6    1
     2    35    34    1
     3     4    34    1
     4     4     5    1
     5     4     3    1
     6     1     6    1
     7     1     2    1
     8     6     5    1
     9     6     8    1
    10     5    32    1
    11     3     2    1
    12    17    18   ar
    13    17    16   ar
    14     2    31    1
    15    18    19   ar
    16     8    16   ar
    17     8     9   ar
    18    16    15   ar
    19    32    33    1
    20    31    10   ar
    21    31    26   ar
    22    19    20   ar
    23     9    10   ar
    24     9    14   ar
    25    27    26   ar
    26    27    28   ar
    27    15    20   ar
    28    15    14   ar
    29    10    11   ar
    30    26    25   ar
    31    14    13   ar
    32    28    29   ar
    33    11    25   ar
    34    11    12   ar
    35    25    30   ar
    36    13    12   ar
    37    13    21    1
    38    29    30   ar
    39    12    23    1
    40    21    22    1
    41    23    22    2
    42    23    24    2
