@<TRIPOS>MOLECULE
1q3e_PCG_A_1.pdb
 23 26 0 0 0
SMALL
GASTEIGER

@<TRIPOS>ATOM
      1  PA        23.7550   33.1160   12.5190 P.3   401  PCG401      0.2141
      2  O1A       23.6160   32.1520   13.6360 O.3   401  PCG401     -0.4373
      3  O2A       24.8600   34.0990   12.5620 O.2   401  PCG401     -0.5172
      4  O5'       23.8780   32.2460   11.1380 O.3   401  PCG401     -0.3114
      5  C5'       22.7110   31.5340   10.6410 C.3   401  PCG401      0.1812
      6  C4'       21.5360   32.5180   10.5460 C.3   401  PCG401      0.1771
      7  O4'       20.2580   31.9930   10.1330 O.3   401  PCG401     -0.3327
      8  C3'       21.2230   33.0940   11.8900 C.3   401  PCG401      0.1857
      9  O3'       22.3300   33.8920   12.3000 O.3   401  PCG401     -0.3112
     10  C2'       19.9720   33.8820   11.6160 C.3   401  PCG401      0.2282
     11  O2'       20.3070   35.1440   11.0460 O.3   401  PCG401     -0.2159
     12  C1'       19.2830   33.0470   10.5060 C.3   401  PCG401      0.2292
     13  N9        17.9940   32.4400   10.9440 N.pl3 401  PCG401     -0.2354
     14  C8        16.8230   32.5540   10.2930 C.3   401  PCG401      0.2246
     15  N7        15.8790   31.8980   10.9730 N.2   401  PCG401     -0.2322
     16  C5        16.4390   31.3720   12.0540 C.2   401  PCG401      0.2182
     17  C6        15.9380   30.6150   13.1100 C.1   401  PCG401      0.2372
     18  O6        14.7470   30.3110   13.1470 O.2   401  PCG401     -0.2069
     19  N1        16.8080   30.2120   14.1390 N.2   401  PCG401     -0.2485
     20  C2        18.1690   30.5790   14.0820 C.1   401  PCG401      0.2531
     21  N2        19.0040   30.2050   15.0510 N.pl3 401  PCG401     -0.0226
     22  N3        18.6200   31.3140   13.0400 N.2   401  PCG401     -0.3074
     23  C4        17.7890   31.7120   12.0400 C.2   401  PCG401      0.2300
@<TRIPOS>BOND
     1     7    12    1
     2     7     6    1
     3    14    13    1
     4    14    15    1
     5    12    13    1
     6    12    10    1
     7     6     5    1
     8     6     8    1
     9     5     4    1
    10    13    23    1
    11    15    16    2
    12    11    10    1
    13     4     1    1
    14    10     8    1
    15     8     9    1
    16    23    16    1
    17    23    22    2
    18    16    17    1
    19     9     1    1
    20     1     3    2
    21     1     2    1
    22    22    20    2
    23    17    18    2
    24    17    19    2
    25    20    19    2
    26    20    21    1
