@<TRIPOS>MOLECULE
1q3g_UDA_A_1.pdb
 49 51 0 0 0
SMALL
GASTEIGER

@<TRIPOS>ATOM
      1  C1        28.9660   51.1660  -22.0090 C.1   1450  UDA1450     0.2182
      2  N1        28.5960   50.1520  -21.1420 N.2   1450  UDA1450    -0.2452
      3  C3        27.3490   49.6990  -20.9240 C.1   1450  UDA1450     0.2845
      4  N2        26.2530   50.2970  -21.6410 N.am  1450  UDA1450    -0.1766
      5  C5        26.5410   51.3590  -22.5640 C.2   1450  UDA1450     0.0929
      6  C6        27.8600   51.7980  -22.7620 C.2   1450  UDA1450     0.1242
      7  O1        30.1400   51.5010  -22.1220 O.2   1450  UDA1450    -0.2085
      8  O2        27.1980   48.7910  -20.1140 O.2   1450  UDA1450    -0.1918
      9  C9        23.8640   50.8620  -20.9300 C.3   1450  UDA1450     0.2319
     10  C2        24.8200   49.8370  -21.4300 C.3   1450  UDA1450     0.2401
     11  O3        24.2940   49.4180  -22.6820 O.3   1450  UDA1450    -0.3320
     12  C4        22.8850   49.6490  -22.7080 C.3   1450  UDA1450     0.1799
     13  C15       22.4890   50.2510  -21.2980 C.3   1450  UDA1450     0.2158
     14  C12       22.6890   50.5780  -23.9220 C.3   1450  UDA1450     0.1813
     15  O14       22.1060   49.3710  -20.1540 O.3   1450  UDA1450    -0.2175
     16  O11       24.1450   51.4890  -19.5750 O.3   1450  UDA1450    -0.2157
     17  O4        23.4220   51.8720  -23.8720 O.3   1450  UDA1450    -0.3112
     18  P1        23.8780   52.6100  -25.1630 P.3   1450  UDA1450     0.2189
     19  O5        23.4750   51.7700  -26.3050 O.2   1450  UDA1450    -0.5170
     20  O6        25.3280   52.8270  -25.2430 O.3   1450  UDA1450    -0.4371
     21  O7        23.0300   53.8210  -25.4360 O.3   1450  UDA1450    -0.2703
     22  P2        23.4110   55.3120  -25.2720 P.3   1450  UDA1450     0.2208
     23  O8        22.2200   56.2590  -25.7200 O.3   1450  UDA1450    -0.2864
     24  O9        24.4850   55.6170  -26.1090 O.2   1450  UDA1450    -0.5170
     25  O10       23.7530   55.6480  -23.9080 O.3   1450  UDA1450    -0.4371
     26  C10       21.5890   56.2850  -27.0430 C.3   1450  UDA1450     0.2632
     27  C18       20.4680   57.3760  -27.0560 C.3   1450  UDA1450     0.1813
     28  C13       19.3520   57.0420  -26.0060 C.3   1450  UDA1450     0.1757
     29  C20       18.7620   55.6620  -26.4950 C.3   1450  UDA1450     0.2104
     30  C16       19.8870   54.5610  -26.4960 C.3   1450  UDA1450     0.1833
     31  C17       19.3970   53.2010  -26.9910 C.3   1450  UDA1450     0.2142
     32  C7        21.9500   59.3040  -27.4680 C.2   1450  UDA1450     0.2420
     33  N3        21.0590   58.6690  -26.7300 N.am  1450  UDA1450    -0.1994
     34  O21       18.2700   58.0740  -25.9920 O.3   1450  UDA1450    -0.3236
     35  O22       17.6790   55.0880  -25.6630 O.3   1450  UDA1450    -0.2178
     36  O23       20.9640   55.0320  -27.3710 O.3   1450  UDA1450    -0.3260
     37  O24       18.8460   53.1390  -28.3830 O.3   1450  UDA1450    -0.2176
     38  O12       22.3600   58.8100  -28.5360 O.2   1450  UDA1450    -0.2733
     39  C8        22.3750   60.6350  -26.8720 C.3   1450  UDA1450     0.0964
     40  C11       17.7580   58.6830  -25.0040 C.3   1450  UDA1450     0.2918
     41  C19       17.3540   58.1880  -23.6360 C.3   1450  UDA1450     0.0741
     42  O13       18.6910   59.8450  -24.8490 O.3   1450  UDA1450    -0.2386
     43  P3        19.4930   60.3510  -23.5940 P.3   1450  UDA1450     0.5348
     44  O15       19.5380   61.6780  -24.1160 O.2   1450  UDA1450    -0.2223
     45  O16       20.8510   59.7340  -23.4720 O.3   1450  UDA1450    -0.1145
     46  O17       18.7550   60.5660  -22.3610 O.3   1450  UDA1450    -0.1145
     47  C14       16.3420   59.0800  -25.6460 C.2   1450  UDA1450     0.4155
     48  O18       16.4010   60.2600  -26.2490 O.co2 1450  UDA1450    -0.2402
     49  O19       15.3210   58.4460  -25.6350 O.co2 1450  UDA1450    -0.2402
@<TRIPOS>BOND
     1    38    32    2
     2    37    31    1
     3    32    39    1
     4    32    33   am
     5    36    26    1
     6    36    30    1
     7    27    26    1
     8    27    33    1
     9    27    28    1
    10    26    23    1
    11    31    30    1
    12    30    29    1
    13    29    28    1
    14    29    35    1
    15    19    18    2
    16    48    47   ar
    17    24    22    2
    18    28    34    1
    19    34    40    1
    20    23    22    1
    21    47    49   ar
    22    47    40    1
    23    21    22    1
    24    21    18    1
    25    22    25    1
    26    20    18    1
    27    18    17    1
    28    40    42    1
    29    40    41    1
    30    42    43    1
    31    44    43    2
    32    14    17    1
    33    14    12    1
    34    43    45    1
    35    43    46    1
    36     6     5    2
    37     6     1    1
    38    12    11    1
    39    12    13    1
    40    11    10    1
    41     5     4    1
    42     7     1    2
    43     1     2    2
    44     4    10    1
    45     4     3   am
    46    10     9    1
    47    13     9    1
    48    13    15    1
    49     2     3    2
    50     9    16    1
    51     3     8    2
