@<TRIPOS>MOLECULE
1q3h_ANP_A_1.pdb
 31 33 0 0 0
SMALL
GASTEIGER

@<TRIPOS>ATOM
      1  PG       160.3020    6.6330   29.4300 P.3   201  ANP201      0.4884
      2  O1G      160.5390    6.7010   27.8640 O.2   201  ANP201     -0.2331
      3  O2G      158.9230    5.9290   29.7900 O.3   201  ANP201     -0.1240
      4  O3G      161.4450    5.7360   30.0660 O.3   201  ANP201     -0.1240
      5  PB       159.0000    9.3140   29.8080 P.3   201  ANP201      0.4669
      6  O1B      158.9440    9.7610   28.2870 O.2   201  ANP201     -0.2351
      7  O2B      157.6070    8.7180   30.2830 O.3   201  ANP201     -0.1253
      8  N3B      160.3240    8.2300   30.0750 N.3   201  ANP201     -0.0163
      9  PA       158.9090   10.9150   32.1400 P.3   201  ANP201      0.2220
     10  O1A      158.8230    9.6560   33.0890 O.3   201  ANP201     -0.4370
     11  O2A      157.5710   11.7860   32.0730 O.2   201  ANP201     -0.5170
     12  O3A      159.3330   10.6340   30.6210 O.3   201  ANP201     -0.2360
     13  O5'      160.1080   11.8460   32.6830 O.3   201  ANP201     -0.3111
     14  C5'      160.2290   13.2920   32.2340 C.3   201  ANP201      0.1813
     15  C4'      161.3640   13.6430   32.8440 C.3   201  ANP201      0.1821
     16  O4'      161.2350   12.7450   33.9890 O.3   201  ANP201     -0.3135
     17  C3'      162.7550   13.1120   32.2930 C.3   201  ANP201      0.2184
     18  O3'      163.4060   13.6360   31.2010 O.3   201  ANP201     -0.2174
     19  C2'      163.4950   13.0090   33.6580 C.3   201  ANP201      0.2570
     20  O2'      164.1170   14.4310   33.8260 O.3   201  ANP201     -0.2130
     21  C1'      162.4350   12.7360   34.7200 C.3   201  ANP201      0.3186
     22  N9       162.5580   11.4610   35.4330 N.pl3 201  ANP201     -0.1439
     23  C8       161.6140   10.4260   35.5580 C.3   201  ANP201      0.3377
     24  N7       161.9440    9.3470   36.2520 N.2   201  ANP201     -0.2095
     25  C5       163.1940    9.6590   36.6330 C.2   201  ANP201      0.2526
     26  C6       164.0920    8.8930   37.4080 C.2   201  ANP201      0.4393
     27  N6       163.7630    7.6620   37.8840 N.pl3 201  ANP201      0.2180
     28  N1       165.3570    9.4470   37.6780 N.2   201  ANP201      0.0021
     29  C2       165.6700   10.7300   37.1620 C.3   201  ANP201      0.5254
     30  N3       164.8980   11.5510   36.4070 N.2   201  ANP201     -0.0055
     31  C4       163.6250   10.9520   36.1600 C.2   201  ANP201      0.3518
@<TRIPOS>BOND
     1     2     1    2
     2     6     5    2
     3     1     3    1
     4     1     4    1
     5     1     8    1
     6     5     8    1
     7     5     7    1
     8     5    12    1
     9    12     9    1
    10    18    17    1
    11    11     9    2
    12     9    13    1
    13     9    10    1
    14    14    13    1
    15    14    15    1
    16    17    15    1
    17    17    19    1
    18    15    16    1
    19    19    20    1
    20    19    21    1
    21    16    21    1
    22    21    22    1
    23    22    23    1
    24    22    31    1
    25    23    24    1
    26    31    30    2
    27    31    25    1
    28    24    25    2
    29    30    29    1
    30    25    26    1
    31    29    28    1
    32    26    28    2
    33    26    27    1
