@<TRIPOS>MOLECULE
1q3l_III_P_1.pdb
 48 47 0 0 0
SMALL
GASTEIGER

@<TRIPOS>ATOM
      1  N          3.3420    5.7600    1.7530 N.3     5  GLN5       -0.1231
      2  CA         1.9790    5.6820    2.4240 C.3     5  GLN5        0.1698
      3  C          1.9150    6.5960    3.6650 C.2     5  GLN5        0.2593
      4  O          1.8070    6.1480    4.8220 O.2     5  GLN5       -0.2718
      5  CB         1.6550    4.2560    2.8210 C.3     5  GLN5        0.0381
      6  CG         0.2350    4.0690    3.2410 C.3     5  GLN5        0.0905
      7  CD        -0.1630    2.6080    3.2790 C.2     5  GLN5        0.2608
      8  OE1       -0.3670    2.0260    4.3650 O.2     5  GLN5       -0.2717
      9  NE2       -0.2510    1.9980    2.1010 N.am    5  GLN5       -0.0878
     10  N          2.0140    7.8980    3.4120 N.am    6  THR6       -0.1939
     11  CA         2.0720    8.8980    4.4460 C.3     6  THR6        0.2028
     12  C          1.0990   10.0170    4.1360 C.2     6  THR6        0.2642
     13  O          0.5280   10.0980    3.0440 O.2     6  THR6       -0.2714
     14  CB         3.4710    9.5490    4.5330 C.3     6  THR6        0.1808
     15  OG1        3.8230   10.1350    3.2760 O.3     6  THR6       -0.2208
     16  CG2        4.5630    8.5290    4.7690 C.3     6  THR6        0.0379
     17  N          0.9360   10.8820    5.1230 N.am    7  ALA7       -0.1963
     18  CA         0.1660   12.1210    4.9710 C.3     7  ALA7        0.1728
     19  C          0.6910   13.1790    5.9330 C.2     7  ALA7        0.2616
     20  O          1.2080   12.8920    7.0300 O.2     7  ALA7       -0.2715
     21  CB        -1.3060   11.8720    5.2560 C.3     7  ALA7        0.0334
     22  N          0.5380   14.4320    5.5210 N.am    8  ARG8       -0.1963
     23  CA         0.6740   15.5930    6.3630 C.3     8  ARG8        0.1729
     24  C         -0.5760   15.7440    7.2360 C.2     8  ARG8        0.2616
     25  O         -1.6900   15.5110    6.7940 O.2     8  ARG8       -0.2715
     26  CB         0.8350   16.7960    5.4430 C.3     8  ARG8        0.0348
     27  CG         0.9610   18.1510    6.0740 C.3     8  ARG8        0.0492
     28  CD         1.1390   19.1800    5.0060 C.3     8  ARG8        0.2205
     29  NE         1.4120   20.4990    5.5350 N.pl3   8  ARG8       -0.0865
     30  CZ         2.6330   20.9920    5.7800 C.cat   8  ARG8        0.5346
     31  NH1        3.7360   20.2860    5.5450 N.pl3   8  ARG8        0.1354
     32  NH2        2.7380   22.2210    6.2580 N.pl3   8  ARG8        0.1354
     33  N         -0.3670   15.9280    8.5260 N.am    9  LYS9       -0.1963
     34  CA        -1.1550   16.4350    9.5410 C.3     9  LYS9        0.1728
     35  CB        -1.0250   15.5650   10.7670 C.3     9  LYS9        0.0311
     36  CG        -2.1640   15.4990   11.7470 C.3     9  LYS9        0.0038
     37  CD        -1.6470   14.8380   13.0280 C.3     9  LYS9        0.0189
     38  CE        -1.3260   13.3610   12.9000 C.3     9  LYS9        0.0888
     39  NZ        -1.2270   12.7770   14.2300 N.3     9  LYS9       -0.2165
     40  CM        -0.9580   11.3480   14.3000 C.3     9  LYS9        0.1075
     41  C         -1.6020   17.8180    9.6430 C.2     9  LYS9        0.2616
     42  O         -0.7150   18.5230   10.0480 O.2     9  LYS9       -0.2715
     43  N         -2.7360   18.2670    9.0910 N.am   10  SER10      -0.1950
     44  CA        -3.0840   19.7150    9.0620 C.3    10  SER10       0.1924
     45  C         -3.1700   20.3240   10.4630 C.2    10  SER10       0.2314
     46  O         -3.5500   19.6160   11.3780 O.2    10  SER10      -0.2863
     47  CB        -4.3910   19.9530    8.2940 C.3    10  SER10       0.2116
     48  OG        -5.4680   19.2370    8.8630 O.3    10  SER10      -0.2180
@<TRIPOS>BOND
     1     1     2    1
     2     9     7   am
     3     2     5    1
     4     2     3    1
     5     5     6    1
     6    13    12    2
     7     6     7    1
     8    15    14    1
     9     7     8    2
    10    10     3   am
    11    10    11    1
    12     3     4    2
    13    12    11    1
    14    12    17   am
    15    11    14    1
    16    14    16    1
    17    18    17    1
    18    18    21    1
    19    18    19    1
    20    28    29    1
    21    28    27    1
    22    26    27    1
    23    26    23    1
    24    22    19   am
    25    22    23    1
    26    29    30    2
    27    31    30    1
    28    30    32    1
    29    19    20    2
    30    23    24    1
    31    25    24    2
    32    24    33   am
    33    47    48    1
    34    47    44    1
    35    33    34    1
    36    44    43    1
    37    44    45    1
    38    43    41   am
    39    34    41    1
    40    34    35    1
    41    41    42    2
    42    45    46    2
    43    35    36    1
    44    36    37    1
    45    38    37    1
    46    38    39    1
    47    39    40    1
