@<TRIPOS>MOLECULE
1q3n_PEP_A_1.pdb
 10 9 0 0 0
SMALL
GASTEIGER

@<TRIPOS>ATOM
      1  C1        67.0630  103.6630   50.9960 C.2   300  PEP300      0.4216
      2  O1        66.0240  103.7990   50.2270 O.co2 300  PEP300     -0.2371
      3  O2'       68.0690  104.3650   50.8970 O.co2 300  PEP300     -0.2371
      4  C2        66.9350  102.5610   52.0210 C.2   300  PEP300      0.2283
      5  C3        65.9100  101.7200   52.2530 C.2   300  PEP300      0.0477
      6  O2        68.0320  102.4080   52.8540 O.2   300  PEP300     -0.3930
      7  P         68.2720  103.2420   54.2110 P.3   300  PEP300      0.5889
      8  O1P       66.9430  103.0470   55.0090 O.3   300  PEP300     -0.1039
      9  O2P       68.5100  104.6840   53.7160 O.2   300  PEP300     -0.2114
     10  O3P       69.3970  102.5590   54.9770 O.3   300  PEP300     -0.1039
@<TRIPOS>BOND
     1     2     1   ar
     2     3     1   ar
     3     1     4    1
     4     4     5    2
     5     4     6    1
     6     6     7    1
     7     9     7    2
     8     7    10    1
     9     7     8    1
