@<TRIPOS>MOLECULE
1q3p_III_C_1.pdb
 50 49 0 0 0
SMALL
GASTEIGER

@<TRIPOS>ATOM
      1  N         31.1530   22.1200   28.1080 N.3     1  GLU1       -0.1231
      2  CA        31.0710   22.7700   26.7660 C.3     1  GLU1        0.1699
      3  C         32.1010   23.8960   26.6130 C.2     1  GLU1        0.2592
      4  O         33.0470   24.0000   27.3990 O.2     1  GLU1       -0.2718
      5  CB        29.6580   23.3290   26.5330 C.3     1  GLU1        0.0402
      6  CG        28.5550   22.2750   26.4870 C.3     1  GLU1        0.1161
      7  CD        27.2560   22.7990   25.8810 C.2     1  GLU1        0.3649
      8  OE1       26.6970   23.7820   26.4160 O.co2   1  GLU1       -0.2457
      9  OE2       26.7970   22.2230   24.8690 O.co2   1  GLU1       -0.2457
     10  N         31.9100   24.7270   25.5910 N.am    2  ALA2       -0.1966
     11  CA        32.7970   25.8530   25.3170 C.3     2  ALA2        0.1728
     12  C         32.1870   26.7090   24.2140 C.2     2  ALA2        0.2616
     13  O         31.8120   26.1970   23.1600 O.2     2  ALA2       -0.2715
     14  CB        34.1690   25.3520   24.8910 C.3     2  ALA2        0.0334
     15  N         32.0750   28.0090   24.4630 N.am    3  GLN3       -0.1963
     16  CA        31.5090   28.9120   23.4740 C.3     3  GLN3        0.1733
     17  C         32.6150   29.6940   22.7770 C.2     3  GLN3        0.2617
     18  O         33.7580   29.7000   23.2240 O.2     3  GLN3       -0.2715
     19  CB        30.5300   29.8800   24.1330 C.3     3  GLN3        0.0408
     20  CG        31.1670   30.7960   25.1560 C.3     3  GLN3        0.0908
     21  CD        30.1950   31.8270   25.6850 C.2     3  GLN3        0.2608
     22  OE1       29.1490   31.4840   26.2440 O.2     3  GLN3       -0.2717
     23  NE2       30.5300   33.1030   25.5070 N.am    3  GLN3       -0.0878
     24  N         32.2720   30.3500   21.6760 N.am    4  THR4       -0.1937
     25  CA        33.2440   31.1240   20.9210 C.3     4  THR4        0.2028
     26  C         32.4970   32.0780   20.0050 C.2     4  THR4        0.2642
     27  O         31.5080   31.6950   19.3750 O.2     4  THR4       -0.2714
     28  CB        34.1330   30.2150   20.0480 C.3     4  THR4        0.1808
     29  OG1       34.7810   29.2400   20.8680 O.3     4  THR4       -0.2208
     30  CG2       35.1860   31.0360   19.3270 C.3     4  THR4        0.0379
     31  N         32.9690   33.3180   19.9320 N.am    5  ARG5       -0.1963
     32  CA        32.3400   34.3160   19.0800 C.3     5  ARG5        0.1729
     33  C         33.0790   34.4170   17.7470 C.2     5  ARG5        0.2617
     34  O         34.3050   34.4780   17.7070 O.2     5  ARG5       -0.2715
     35  CB        32.3220   35.6750   19.7840 C.3     5  ARG5        0.0348
     36  CG        31.8740   36.8320   18.8990 C.3     5  ARG5        0.0492
     37  CD        31.5350   38.0650   19.7250 C.3     5  ARG5        0.2205
     38  NE        30.1060   38.1520   20.0210 N.pl3   5  ARG5       -0.0865
     39  CZ        29.5930   38.2630   21.2450 C.cat   5  ARG5        0.5346
     40  NH1       30.3900   38.2960   22.3130 N.pl3   5  ARG5        0.1354
     41  NH2       28.2760   38.3600   21.4010 N.pl3   5  ARG5        0.1354
     42  N         32.3200   34.4260   16.6580 N.am    6  LEU6       -0.1942
     43  CA        32.8940   34.5110   15.3250 C.3     6  LEU6        0.1978
     44  C         32.1140   35.5060   14.4730 C.2     6  LEU6        0.3842
     45  O         32.6050   35.8440   13.3780 O.co2   6  LEU6       -0.2437
     46  CB        32.8830   33.1310   14.6610 C.3     6  LEU6        0.0333
     47  CG        33.6430   32.0170   15.3880 C.3     6  LEU6        0.0023
     48  CD1       33.3730   30.6760   14.7190 C.3     6  LEU6        0.0001
     49  CD2       35.1320   32.3290   15.3860 C.3     6  LEU6        0.0001
     50  OXT       31.0180   35.9280   14.9080 O.co2   6  LEU6       -0.2437
@<TRIPOS>BOND
     1    45    44   ar
     2    44    50   ar
     3    44    43    1
     4    46    43    1
     5    46    47    1
     6    48    47    1
     7    43    42    1
     8    49    47    1
     9    42    33   am
    10    34    33    2
    11    33    32    1
    12    36    37    1
    13    36    35    1
    14    32    35    1
    15    32    31    1
    16    30    28    1
    17    27    26    2
    18    37    38    1
    19    31    26   am
    20    26    25    1
    21    38    39    2
    22    28    29    1
    23    28    25    1
    24    25    24    1
    25    39    41    1
    26    39    40    1
    27    24    17   am
    28    17    18    2
    29    17    16    1
    30    13    12    2
    31    16    19    1
    32    16    15    1
    33    19    20    1
    34    12    15   am
    35    12    11    1
    36     9     7   ar
    37    14    11    1
    38    20    21    1
    39    11    10    1
    40    23    21   am
    41    10     3   am
    42    21    22    2
    43     7     8   ar
    44     7     6    1
    45     6     5    1
    46     5     2    1
    47     3     2    1
    48     3     4    2
    49     2     1    1
