@<TRIPOS>MOLECULE
1q3q_ANP_A_1.pdb
 31 33 0 0 0
SMALL
GASTEIGER

@<TRIPOS>ATOM
      1  PG        56.1420   14.8830   26.7350 P.3   1528  ANP1528     0.4884
      2  O1G       56.9030   13.8540   25.9700 O.2   1528  ANP1528    -0.2331
      3  O2G       56.8650   15.5910   27.8260 O.3   1528  ANP1528    -0.1240
      4  O3G       54.8890   14.2640   27.2510 O.3   1528  ANP1528    -0.1240
      5  PB        54.2450   16.5300   25.2750 P.3   1528  ANP1528     0.4669
      6  O1B       53.3070   16.4620   26.4180 O.3   1528  ANP1528    -0.1253
      7  O2B       54.3360   17.7650   24.4780 O.2   1528  ANP1528    -0.2351
      8  N3B       55.7300   16.1480   25.8040 N.3   1528  ANP1528    -0.0163
      9  PA        52.7740   14.1910   24.1290 P.3   1528  ANP1528     0.2220
     10  O1A       53.1350   13.2760   23.0400 O.2   1528  ANP1528    -0.5170
     11  O2A       52.5490   13.6190   25.4680 O.3   1528  ANP1528    -0.4370
     12  O3A       53.9040   15.3620   24.1870 O.3   1528  ANP1528    -0.2360
     13  O5'       51.4660   14.9600   23.6240 O.3   1528  ANP1528    -0.3111
     14  C5'       50.7900   15.9530   24.3900 C.3   1528  ANP1528     0.1813
     15  C4'       49.8800   16.7860   23.5060 C.3   1528  ANP1528     0.1821
     16  O4'       48.7460   15.9840   23.1020 O.3   1528  ANP1528    -0.3135
     17  C3'       49.3310   18.0000   24.2160 C.3   1528  ANP1528     0.2184
     18  O3'       49.4200   19.1030   23.2960 O.3   1528  ANP1528    -0.2174
     19  C2'       47.9210   17.5420   24.6120 C.3   1528  ANP1528     0.2570
     20  O2'       46.9970   18.6270   24.8060 O.3   1528  ANP1528    -0.2130
     21  C1'       47.5050   16.6030   23.5000 C.3   1528  ANP1528     0.3186
     22  N9        46.5530   15.5450   23.9620 N.pl3 1528  ANP1528    -0.1439
     23  C8        46.5960   14.7060   25.0680 C.3   1528  ANP1528     0.3377
     24  N7        45.5820   13.8840   25.1670 N.2   1528  ANP1528    -0.2095
     25  C5        44.7980   14.1840   24.0530 C.2   1528  ANP1528     0.2526
     26  C6        43.5500   13.6750   23.5330 C.2   1528  ANP1528     0.4393
     27  N6        42.8340   12.7020   24.1020 N.pl3 1528  ANP1528     0.2180
     28  N1        43.0570   14.2210   22.3710 N.2   1528  ANP1528     0.0021
     29  C2        43.7360   15.2040   21.7520 C.3   1528  ANP1528     0.5254
     30  N3        44.9090   15.7610   22.1420 N.2   1528  ANP1528    -0.0055
     31  C4        45.3870   15.1980   23.3110 C.2   1528  ANP1528     0.3518
@<TRIPOS>BOND
     1    29    30    1
     2    29    28    1
     3    30    31    2
     4    28    26    2
     5    10     9    2
     6    16    21    1
     7    16    15    1
     8    18    17    1
     9    31    22    1
    10    31    25    1
    11    21    22    1
    12    21    19    1
    13    15    17    1
    14    15    14    1
    15    26    25    1
    16    26    27    1
    17    13     9    1
    18    13    14    1
    19    22    23    1
    20    25    24    2
    21     9    12    1
    22     9    11    1
    23    12     5    1
    24    17    19    1
    25     7     5    2
    26    19    20    1
    27    23    24    1
    28     5     8    1
    29     5     6    1
    30     8     1    1
    31     2     1    2
    32     1     4    1
    33     1     3    1
