@<TRIPOS>MOLECULE
1q3s_ADP_A_1.pdb
 27 29 0 0 0
SMALL
GASTEIGER

@<TRIPOS>ATOM
      1  PB       120.8150   93.1690   10.9160 P.3   1528  ADP1528     0.5373
      2  O1B      121.1420   94.4870   11.5230 O.3   1528  ADP1528    -0.1143
      3  O2B      119.5240   92.6450   11.4470 O.3   1528  ADP1528    -0.1143
      4  O3B      120.7710   93.2360    9.2490 O.2   1528  ADP1528    -0.2221
      5  PA       122.9540   91.2560   10.3370 P.3   1528  ADP1528     0.2231
      6  O1A      122.2460   90.8710    9.0970 O.2   1528  ADP1528    -0.5169
      7  O2A      123.4320   90.0380   11.0720 O.3   1528  ADP1528    -0.4370
      8  O3A      121.9610   92.1270   11.2330 O.3   1528  ADP1528    -0.2261
      9  O5'      124.1630   92.2940   10.0340 O.3   1528  ADP1528    -0.3111
     10  C5'      123.9410   93.5800    9.3490 C.3   1528  ADP1528     0.1813
     11  C4'      125.1500   94.5260    9.6480 C.3   1528  ADP1528     0.1821
     12  O4'      126.3720   93.9550    9.1120 O.3   1528  ADP1528    -0.3135
     13  C3'      125.0340   95.9380    9.0110 C.3   1528  ADP1528     0.2184
     14  O3'      125.4880   96.9980    9.9060 O.3   1528  ADP1528    -0.2174
     15  C2'      125.9640   95.9170    7.8180 C.3   1528  ADP1528     0.2570
     16  O2'      126.5040   97.1840    7.4300 O.3   1528  ADP1528    -0.2130
     17  C1'      126.9960   94.8970    8.2250 C.3   1528  ADP1528     0.3186
     18  N9       127.6100   94.2370    7.0660 N.pl3 1528  ADP1528    -0.1439
     19  C8       126.9740   93.5960    6.0700 C.3   1528  ADP1528     0.3377
     20  N7       127.8810   93.1260    5.2090 N.2   1528  ADP1528    -0.2095
     21  C5       129.0770   93.4470    5.6310 C.2   1528  ADP1528     0.2526
     22  C6       130.4190   93.2490    5.1910 C.2   1528  ADP1528     0.4393
     23  N6       130.6720   92.5670    4.0520 N.pl3 1528  ADP1528     0.2180
     24  N1       131.4860   93.7580    5.9410 N.2   1528  ADP1528     0.0021
     25  C2       131.2840   94.4610    7.1130 C.3   1528  ADP1528     0.5254
     26  N3       129.9910   94.6590    7.5450 N.2   1528  ADP1528    -0.0055
     27  C4       128.8940   94.1790    6.8520 C.2   1528  ADP1528     0.3518
@<TRIPOS>BOND
     1    23    22    1
     2    22    21    1
     3    22    24    2
     4    20    21    2
     5    20    19    1
     6    21    27    1
     7    24    25    1
     8    19    18    1
     9    27    18    1
    10    27    26    2
    11    18    17    1
    12    25    26    1
    13    16    15    1
    14    15    17    1
    15    15    13    1
    16    17    12    1
    17    13    11    1
    18    13    14    1
    19     6     5    2
    20    12    11    1
    21     4     1    2
    22    10    11    1
    23    10     9    1
    24     9     5    1
    25     5     7    1
    26     5     8    1
    27     1     8    1
    28     1     3    1
    29     1     2    1
