@<TRIPOS>MOLECULE
1q3w_ATU_A_1.pdb
 22 25 0 0 0
SMALL
GASTEIGER

@<TRIPOS>ATOM
      1  N1        40.6340    5.2080   37.1280 N.2   502  ATU502     -0.3363
      2  C2        40.4870    6.5560   37.0210 C.1   502  ATU502      0.1809
      3  C3        40.2770    7.2180   35.6730 C.3   502  ATU502      0.1462
      4  O4        40.5150    7.2740   38.0100 O.2   502  ATU502     -0.2141
      5  C5        39.8940    4.0990   35.0500 C.2   502  ATU502      0.0523
      6  C6        40.5610    4.1410   36.3340 C.2   502  ATU502      0.1456
      7  C7        41.3660    3.0270   36.7450 C.2   502  ATU502      0.0288
      8  C8        41.5210    1.8700   35.9070 C.2   502  ATU502     -0.0188
      9  C9        40.8590    1.8250   34.6300 C.3   502  ATU502      0.0522
     10  C10       40.0500    2.9400   34.2090 C.2   502  ATU502     -0.0166
     11  N11       37.9300    5.1000   33.7980 N.2   502  ATU502     -0.4061
     12  C12       39.2640    6.5810   34.7350 C.3   502  ATU502      0.0945
     13  C13       39.0820    5.1480   34.5770 C.2   502  ATU502      0.1160
     14  C14       38.1980    7.3610   34.1230 C.2   502  ATU502      0.0129
     15  C15       37.2980    6.3180   33.4860 C.2   502  ATU502      0.1270
     16  C16       36.1190    6.7440   32.7810 C.2   502  ATU502      0.0295
     17  C17       35.8150    8.1340   32.6910 C.2   502  ATU502      0.0099
     18  C18       36.6850    9.1350   33.3040 C.3   502  ATU502      0.2100
     19  C19       37.8620    8.7280   34.0090 C.2   502  ATU502      0.0060
     20  N20       36.3660   10.5820   33.2070 N.pl3 502  ATU502      0.0408
     21  O21       35.3930   10.9730   32.6310 O.2   502  ATU502     -0.1304
     22  O22       37.0720   11.4110   33.7010 O.2   502  ATU502     -0.1304
@<TRIPOS>BOND
     1    21    20    2
     2    17    16    2
     3    17    18    1
     4    16    15    1
     5    20    18    1
     6    20    22    2
     7    18    19    1
     8    15    11    2
     9    15    14    1
    10    11    13    2
    11    19    14    2
    12    14    12    1
    13    10     9    1
    14    10     5    2
    15    13    12    1
    16    13     5    1
    17     9     8    1
    18    12     3    1
    19     5     6    1
    20     3     2    1
    21     8     7    2
    22     6     7    1
    23     6     1    2
    24     2     1    2
    25     2     4    2
