@<TRIPOS>MOLECULE
1q41_IXM_A_1.pdb
 21 24 0 0 0
SMALL
GASTEIGER

@<TRIPOS>ATOM
      1  C1        40.3060    3.9180   35.3810 C.2   451  IXM451      0.0492
      2  C2        39.6890    5.2740   35.2240 C.2   451  IXM451      0.1564
      3  C3        40.8210    3.8770   36.6990 C.2   451  IXM451      0.1325
      4  N4        40.5960    5.0550   37.3470 N.2   451  IXM451     -0.3995
      5  C5        41.4700    2.7350   37.2090 C.2   451  IXM451      0.0279
      6  C7        41.6140    1.6060   36.3620 C.2   451  IXM451     -0.0188
      7  C9        41.1020    1.6400   35.0270 C.3   451  IXM451      0.0522
      8  C11       40.4370    2.8060   34.5230 C.2   451  IXM451     -0.0172
      9  C13       39.9390    5.9730   36.5560 C.2   451  IXM451      0.1642
     10  C14       39.5920    7.2340   36.9340 C.2   451  IXM451      0.1282
     11  C15       40.1170    7.7360   38.2760 C.1   451  IXM451      0.2073
     12  N16       39.5880    9.0090   38.4350 N.2   451  IXM451     -0.3328
     13  C17       38.7980    9.3720   37.3550 C.ar  451  IXM451      0.1452
     14  C18       38.7520    8.3330   36.3870 C.ar  451  IXM451      0.0450
     15  C19       38.1100   10.5980   37.2150 C.ar  451  IXM451      0.0331
     16  C20       37.3330   10.7920   36.0480 C.ar  451  IXM451      0.0027
     17  C21       37.2640    9.7690   35.0520 C.ar  451  IXM451      0.0002
     18  C22       37.9780    8.5360   35.2210 C.ar  451  IXM451      0.0034
     19  O23       40.8470    7.1490   39.0760 O.2   451  IXM451     -0.2092
     20  N24       39.0400    5.8050   34.2330 N.2   451  IXM451     -0.0267
     21  O39       38.8830    5.0110   33.0960 O.2   451  IXM451     -0.1431
@<TRIPOS>BOND
     1    21    20    1
     2    20     2    2
     3     8     7    1
     4     8     1    2
     5     7     6    1
     6    17    18   ar
     7    17    16   ar
     8    18    14   ar
     9     2     1    1
    10     2     9    1
    11     1     3    1
    12    16    15   ar
    13     6     5    2
    14    14    10    2
    15    14    13   ar
    16     9    10    1
    17     9     4    2
    18     3     5    1
    19     3     4    2
    20    10    11    1
    21    15    13   ar
    22    13    12    2
    23    11    12    2
    24    11    19    2
