@<TRIPOS>MOLECULE
1q43_CMP_A_1.pdb
 22 25 0 0 0
SMALL
GASTEIGER

@<TRIPOS>ATOM
      1  P         34.6310   23.0690   -2.9230 P.3   646  CMP646      0.2141
      2  O1P       33.7800   22.8880   -4.1170 O.2   646  CMP646     -0.5172
      3  O2P       35.5970   24.1970   -2.9120 O.3   646  CMP646     -0.4373
      4  O5'       33.6780   23.1370   -1.6010 O.3   646  CMP646     -0.3114
      5  C5'       32.9570   21.9430   -1.1950 C.3   646  CMP646      0.1812
      6  C4'       33.9650   20.8060   -0.9980 C.3   646  CMP646      0.1793
      7  O4'       33.4070   19.5050   -0.7160 O.3   646  CMP646     -0.3136
      8  C3'       34.6400   20.5610   -2.3130 C.3   646  CMP646      0.1884
      9  O3'       35.4450   21.6910   -2.6690 O.3   646  CMP646     -0.3111
     10  C2'       35.4020   19.2950   -2.0690 C.3   646  CMP646      0.2541
     11  O2'       36.5720   19.6260   -1.3120 O.3   646  CMP646     -0.2131
     12  C1'       34.4240   18.5130   -1.1650 C.3   646  CMP646      0.3185
     13  N9        33.7460   17.4330   -1.9270 N.pl3 646  CMP646     -0.1439
     14  C8        32.8910   17.5890   -2.9520 C.3   646  CMP646      0.3377
     15  N7        32.5160   16.3820   -3.3940 N.2   646  CMP646     -0.2095
     16  C5        33.1290   15.4690   -2.6510 C.2   646  CMP646      0.2526
     17  C6        33.1310   14.0790   -2.6420 C.2   646  CMP646      0.4393
     18  N6        32.4100   13.4010   -3.5320 N.pl3 646  CMP646      0.2180
     19  N1        33.8820   13.4200   -1.7270 N.2   646  CMP646      0.0021
     20  C2        34.6230   14.0870   -0.8320 C.3   646  CMP646      0.5254
     21  N3        34.6370   15.4250   -0.8260 N.2   646  CMP646     -0.0055
     22  C4        33.9040   16.1310   -1.7190 C.2   646  CMP646      0.3518
@<TRIPOS>BOND
     1     2     1    2
     2    18    17    1
     3    15    14    1
     4    15    16    2
     5    14    13    1
     6     1     3    1
     7     1     9    1
     8     1     4    1
     9     9     8    1
    10    16    17    1
    11    16    22    1
    12    17    19    2
    13     8    10    1
    14     8     6    1
    15    10    11    1
    16    10    12    1
    17    13    22    1
    18    13    12    1
    19    19    20    1
    20    22    21    2
    21     4     5    1
    22     5     6    1
    23    12     7    1
    24     6     7    1
    25    20    21    1
