@<TRIPOS>MOLECULE
1q45_FMN_A_1.pdb
 31 33 0 0 0
SMALL
GASTEIGER

@<TRIPOS>ATOM
      1  N1        20.5540   13.1090   31.2340 N.2   7401  FMN7401    -0.2890
      2  C2        20.9400   13.2990   29.9530 C.1   7401  FMN7401     0.3669
      3  O2        20.9800   12.3400   29.1620 O.2   7401  FMN7401    -0.1744
      4  N3        21.3840   14.5280   29.5850 N.2   7401  FMN7401    -0.2300
      5  C4        21.3590   15.5940   30.4540 C.1   7401  FMN7401     0.2513
      6  O4        21.6890   16.7210   30.0790 O.2   7401  FMN7401    -0.2057
      7  C4A       20.8820   15.3970   31.7260 C.2   7401  FMN7401     0.2700
      8  N5        20.8100   16.4350   32.5920 N.2   7401  FMN7401    -0.3878
      9  C5A       20.6120   16.2080   33.9050 C.2   7401  FMN7401     0.1320
     10  C6        20.7440   17.2740   34.7530 C.2   7401  FMN7401     0.0250
     11  C7        20.6480   17.0640   36.1250 C.2   7401  FMN7401    -0.0238
     12  C7M       20.8630   18.2330   37.0210 C.3   7401  FMN7401     0.0308
     13  C8        20.3620   15.7910   36.6230 C.2   7401  FMN7401    -0.0280
     14  C8M       20.2250   15.5210   38.0870 C.3   7401  FMN7401     0.0304
     15  C9        20.2160   14.7310   35.7600 C.2   7401  FMN7401    -0.0041
     16  C9A       20.3390   14.9280   34.3740 C.3   7401  FMN7401     0.1497
     17  N10       20.1760   13.9130   33.4420 N.pl3 7401  FMN7401    -0.2691
     18  C10       20.5290   14.1410   32.1250 C.2   7401  FMN7401     0.2416
     19  C1'       19.8410   12.5330   33.8310 C.3   7401  FMN7401     0.1294
     20  C2'       21.1630   11.9450   34.3380 C.3   7401  FMN7401     0.2044
     21  O2'       22.0820   11.7950   33.2760 O.3   7401  FMN7401    -0.2185
     22  C3'       20.9840   10.6390   35.0950 C.3   7401  FMN7401     0.2164
     23  O3'       20.2830    9.7770   34.2060 O.3   7401  FMN7401    -0.2175
     24  C4'       20.2040   10.9320   36.3980 C.3   7401  FMN7401     0.2147
     25  O4'       20.9100   11.7910   37.2430 O.3   7401  FMN7401    -0.2176
     26  C5'       19.7380    9.7060   37.1370 C.3   7401  FMN7401     0.1892
     27  O5'       20.6250    9.0730   37.9870 O.3   7401  FMN7401    -0.2674
     28  P         20.8710    9.5390   39.5280 P.3   7401  FMN7401     0.5327
     29  O1P       19.9010    9.0140   40.4520 O.3   7401  FMN7401    -0.1145
     30  O2P       20.9680   11.0950   39.6850 O.2   7401  FMN7401    -0.2224
     31  O3P       22.2930    8.9370   39.7160 O.3   7401  FMN7401    -0.1145
@<TRIPOS>BOND
     1     3     2    2
     2     4     2    2
     3     4     5    2
     4     2     1    2
     5     6     5    2
     6     5     7    1
     7     1    18    2
     8     7    18    1
     9     7     8    2
    10    18    17    1
    11     8     9    2
    12    21    20    1
    13    17    19    1
    14    17    16    1
    15    19    20    1
    16     9    16    1
    17     9    10    1
    18    23    22    1
    19    20    22    1
    20    16    15    1
    21    10    11    2
    22    22    24    1
    23    15    13    2
    24    11    13    1
    25    11    12    1
    26    24    26    1
    27    24    25    1
    28    13    14    1
    29    26    27    1
    30    27    28    1
    31    28    30    2
    32    28    31    1
    33    28    29    1
