@<TRIPOS>MOLECULE
1q4g_BFL_A_1.pdb
 17 18 0 0 0
SMALL
GASTEIGER

@<TRIPOS>ATOM
      1  C1        25.3760   33.8900  202.1810 C.ar  701  BFL701     -0.0003
      2  C2        25.4160   36.1990  197.4490 C.ar  701  BFL701      0.0000
      3  C3        26.3980   36.7930  198.2850 C.ar  701  BFL701      0.0000
      4  C4        26.7210   36.2030  199.5460 C.ar  701  BFL701     -0.0000
      5  C5        27.2450   32.3800  205.1490 C.3   701  BFL701      0.1256
      6  C6        27.4220   30.9070  204.8170 C.2   701  BFL701      0.3683
      7  C7        28.4120   32.9980  205.9440 C.3   701  BFL701      0.0166
      8  C8        25.6490   33.2660  203.4060 C.ar  701  BFL701     -0.0037
      9  C9        26.9940   33.0860  203.7910 C.ar  701  BFL701     -0.0118
     10  C10       28.0570   33.5420  202.9330 C.ar  701  BFL701     -0.0037
     11  C11       27.7720   34.1770  201.6880 C.ar  701  BFL701     -0.0003
     12  C12       26.3870   34.3630  201.2810 C.ar  701  BFL701     -0.0000
     13  C13       26.0480   35.0120  199.9630 C.ar  701  BFL701     -0.0000
     14  C14       25.0410   34.4130  199.1000 C.ar  701  BFL701     -0.0000
     15  C15       24.7470   35.0340  197.8460 C.ar  701  BFL701      0.0000
     16  O1        28.3960   30.4450  204.2740 O.co2 701  BFL701     -0.2453
     17  O2        26.4150   30.1850  205.1770 O.co2 701  BFL701     -0.2453
@<TRIPOS>BOND
     1     2    15   ar
     2     2     3   ar
     3    15    14   ar
     4     3     4   ar
     5    14    13   ar
     6     4    13   ar
     7    13    12    1
     8    12    11   ar
     9    12     1   ar
    10    11    10   ar
    11     1     8   ar
    12    10     9   ar
    13     8     9   ar
    14     9     5    1
    15    16     6   ar
    16     6     5    1
    17     6    17   ar
    18     5     7    1
