@<TRIPOS>MOLECULE
1q4g_HEM_A_1.pdb
 43 50 0 0 0
SMALL
GASTEIGER

@<TRIPOS>ATOM
      1  CHA       22.8180   44.2950  184.9940 C.2   801  HEM801      0.0000
      2  CHB       20.0030   47.7060  185.4650 C.2   801  HEM801      0.0000
      3  CHC       19.9040   47.1630  189.9630 C.2   801  HEM801      0.0000
      4  CHD       22.8190   43.7270  189.4510 C.2   801  HEM801      0.0000
      5  C1A       22.0380   45.2530  184.3870 C.ar  801  HEM801      0.0000
      6  C2A       21.7590   45.7890  183.0640 C.ar  801  HEM801      0.0000
      7  C3A       20.9910   46.8910  183.1940 C.ar  801  HEM801      0.0000
      8  C4A       20.7340   46.9170  184.6260 C.ar  801  HEM801      0.0000
      9  CMA       20.3510   47.8950  182.2440 C.3   801  HEM801      0.0000
     10  CAA       22.4540   45.1950  181.8340 C.3   801  HEM801      0.0000
     11  CBA       21.5120   44.3280  180.9980 C.3   801  HEM801      0.0000
     12  CGA       21.9250   43.9140  179.5800 C.2   801  HEM801      0.0000
     13  O1A       23.0610   43.9390  179.0390 O.co2 801  HEM801      0.0000
     14  O2A       20.9880   43.3610  178.9480 O.co2 801  HEM801      0.0000
     15  C1B       19.5440   48.1460  186.6920 C.2   801  HEM801      0.0000
     16  C2B       18.6870   49.2360  187.0910 C.2   801  HEM801      0.0000
     17  C3B       18.7420   49.0410  188.4590 C.2   801  HEM801      0.0000
     18  C4B       19.4910   47.8460  188.8360 C.2   801  HEM801      0.0000
     19  CMB       18.1950   50.2650  186.0480 C.3   801  HEM801      0.0000
     20  CAB       17.8730   49.8500  189.4280 C.3   801  HEM801      0.0000
     21  CBB       17.5740   51.2800  189.8830 C.3   801  HEM801      0.0000
     22  C1C       20.6810   46.1790  190.5320 C.ar  801  HEM801      0.0000
     23  C2C       20.9190   45.6530  191.8630 C.ar  801  HEM801      0.0000
     24  C3C       21.7860   44.6500  191.7110 C.ar  801  HEM801      0.0000
     25  C4C       22.0890   44.5320  190.3010 C.ar  801  HEM801      0.0000
     26  CMC       20.2770   46.1900  193.1420 C.3   801  HEM801      0.0000
     27  CAC       22.2340   43.6770  192.7850 C.3   801  HEM801      0.0000
     28  CBC       23.6240   43.5470  193.3560 C.3   801  HEM801      0.0000
     29  C1D       23.2300   43.3040  188.2130 C.2   801  HEM801      0.0000
     30  C2D       24.2570   42.3700  187.7700 C.2   801  HEM801      0.0000
     31  C3D       24.2500   42.6220  186.4350 C.2   801  HEM801      0.0000
     32  C4D       23.3400   43.6860  186.1200 C.2   801  HEM801      0.0000
     33  CMD       25.0680   41.3770  188.6050 C.3   801  HEM801      0.0000
     34  CAD       25.1270   41.9320  185.3950 C.3   801  HEM801      0.0000
     35  CBD       26.3790   42.7160  185.0340 C.3   801  HEM801      0.0000
     36  CGD       27.1790   42.1770  183.8680 C.2   801  HEM801      0.0000
     37  O1D       27.1730   40.9800  183.5250 O.co2 801  HEM801      0.0000
     38  O2D       27.8790   43.0660  183.3230 O.co2 801  HEM801      0.0000
     39  NA        21.3220   45.9140  185.3570 N.ar  801  HEM801      0.0000
     40  NB        20.0130   47.2800  187.6830 N.2   801  HEM801      0.0000
     41  NC        21.3790   45.4650  189.5860 N.ar  801  HEM801      0.0000
     42  ND        22.6900   44.1200  187.2400 N.2   801  HEM801      0.0000
     43 FE         21.1630   45.5880  187.4810 Fe    801  HEM801      0.0000
@<TRIPOS>BOND
     1    14    12   ar
     2    13    12   ar
     3    12    11    1
     4    11    10    1
     5    10     6    1
     6     9     7    1
     7     6     7   ar
     8     6     5   ar
     9     7     8   ar
    10    38    36   ar
    11    37    36   ar
    12    36    35    1
    13     5     1    2
    14     5    39   ar
    15     8    39   ar
    16     8     2    2
    17     1    32    1
    18    35    34    1
    19    39    43    1
    20    34    31    1
    21     2    15    1
    22    19    16    1
    23    32    31    1
    24    32    42    2
    25    31    30    2
    26    15    16    1
    27    15    40    2
    28    16    17    2
    29    42    43    1
    30    42    29    1
    31    43    40    1
    32    43    41    1
    33    40    18    1
    34    30    29    1
    35    30    33    1
    36    29     4    2
    37    17    18    1
    38    17    20    1
    39    18     3    2
    40    20    21    1
    41     4    25    1
    42    41    25   ar
    43    41    22   ar
    44     3    22    1
    45    25    24   ar
    46    22    23   ar
    47    24    23   ar
    48    24    27    1
    49    23    26    1
    50    27    28    1
