@<TRIPOS>MOLECULE
1q4g_BMA_B_1.pdb
 11 11 0 0 0
SMALL
GASTEIGER

@<TRIPOS>ATOM
      1  C1        46.5430   63.4000  178.6040 C.3   1675  BMA1675     0.1777
      2  C2        47.1810   63.7530  177.2470 C.3   1675  BMA1675     0.2141
      3  C3        46.3600   63.1880  176.0790 C.3   1675  BMA1675     0.2173
      4  C4        45.1190   62.4460  176.5850 C.3   1675  BMA1675     0.2142
      5  C5        44.3290   63.3320  177.5650 C.3   1675  BMA1675     0.1810
      6  C6        43.1850   62.5920  178.2320 C.3   1675  BMA1675     0.2141
      7  O2        48.5080   63.2490  177.1830 O.3   1675  BMA1675    -0.2176
      8  O3        47.1650   62.3010  175.3170 O.3   1675  BMA1675    -0.2175
      9  O4        44.2960   62.0800  175.4880 O.3   1675  BMA1675    -0.2176
     10  O5        45.1830   63.8440  178.6290 O.3   1675  BMA1675    -0.3481
     11  O6        42.5200   61.7340  177.3160 O.3   1675  BMA1675    -0.2176
@<TRIPOS>BOND
     1     8     3    1
     2     9     4    1
     3     3     4    1
     4     3     2    1
     5     4     5    1
     6     7     2    1
     7     2     1    1
     8    11     6    1
     9     5     6    1
    10     5    10    1
    11     1    10    1
