@<TRIPOS>MOLECULE
1q4g_MAN_A_1.pdb
 11 11 0 0 0
SMALL
GASTEIGER

@<TRIPOS>ATOM
      1  C1        44.1980   36.0750  157.9070 C.3   675  MAN675      0.1777
      2  C2        45.1830   37.2140  157.6410 C.3   675  MAN675      0.2141
      3  C3        46.5500   36.6350  157.2590 C.3   675  MAN675      0.2173
      4  C4        46.4040   35.2600  156.5890 C.3   675  MAN675      0.2142
      5  C5        45.0790   35.1690  155.8160 C.3   675  MAN675      0.1810
      6  C6        44.8970   33.8370  155.1190 C.3   675  MAN675      0.2141
      7  O2        45.3070   38.0240  158.8010 O.3   675  MAN675     -0.2176
      8  O3        47.3550   36.5090  158.4220 O.3   675  MAN675     -0.2175
      9  O4        47.4890   35.0500  155.6980 O.3   675  MAN675     -0.2176
     10  O5        43.9410   35.3430  156.7020 O.3   675  MAN675     -0.3481
     11  O6        44.3680   34.0140  153.8120 O.3   675  MAN675     -0.2176
@<TRIPOS>BOND
     1    11     6    1
     2     6     5    1
     3     9     4    1
     4     5     4    1
     5     5    10    1
     6     4     3    1
     7    10     1    1
     8     3     2    1
     9     3     8    1
    10     2     1    1
    11     2     7    1
