@<TRIPOS>MOLECULE
1q4j_GTX_A_1.pdb
 26 25 0 0 0
SMALL
GASTEIGER

@<TRIPOS>ATOM
      1  N1        -0.5650    6.5750   -5.6570 N.3   212  GTX212     -0.1208
      2  CA1        0.0580    7.8880   -5.5950 C.3   212  GTX212      0.1948
      3  C1         1.2680    7.9280   -6.4830 C.2   212  GTX212      0.3819
      4  O11        2.0210    6.8650   -6.5580 O.co2 212  GTX212     -0.2441
      5  O12        1.5600    8.9920   -7.1940 O.co2 212  GTX212     -0.2441
      6  CB1        0.3640    8.2490   -4.1420 C.3   212  GTX212      0.0402
      7  CG1        0.8090    9.6990   -4.0290 C.3   212  GTX212      0.0889
      8  CD1        0.9940   10.1190   -2.5920 C.2   212  GTX212      0.2418
      9  OE1        0.7650    9.2420   -1.5560 O.2   212  GTX212     -0.2733
     10  N2         1.4330   11.3710   -2.3920 N.am  212  GTX212     -0.1969
     11  CA2        1.9750   11.8810   -1.1520 C.3   212  GTX212      0.1834
     12  C2         1.4990   13.2980   -1.0090 C.2   212  GTX212      0.2626
     13  O2         1.1900   14.0380   -2.1360 O.2   212  GTX212     -0.2714
     14  CB2        3.5070   11.8560   -1.1160 C.3   212  GTX212      0.0886
     15  SG2        4.2480   10.2190   -1.4500 S.3   212  GTX212     -0.1379
     16  C1S        3.6720    9.3650    0.0480 C.3   212  GTX212      0.0576
     17  C2S        4.1080    7.9030    0.0870 C.3   212  GTX212      0.0116
     18  C3S        5.5570    7.8010    0.4960 C.3   212  GTX212      0.0009
     19  C4S        6.2800    6.6520   -0.1890 C.3   212  GTX212      0.0000
     20  C5S        7.7880    6.8910   -0.2780 C.3   212  GTX212      0.0000
     21  C6S        8.5610    6.0120    0.6940 C.3   212  GTX212      0.0000
     22  N3         1.3800   13.7640    0.2190 N.am  212  GTX212     -0.1917
     23  CA3        0.9380   15.1120    0.5200 C.3   212  GTX212      0.2285
     24  C3        -0.4250   15.1730    1.1410 C.2   212  GTX212      0.3865
     25  O31       -0.8270   16.3320    1.5360 O.co2 212  GTX212     -0.2437
     26  O32       -1.2220   14.1290    1.3280 O.co2 212  GTX212     -0.2437
@<TRIPOS>BOND
     1     5     3   ar
     2     4     3   ar
     3     3     2    1
     4     1     2    1
     5     2     6    1
     6     6     7    1
     7     7     8    1
     8     8    10   am
     9     8     9    2
    10    10    11    1
    11    13    12    2
    12    15    14    1
    13    15    16    1
    14    11    14    1
    15    11    12    1
    16    12    22   am
    17    20    19    1
    18    20    21    1
    19    19    18    1
    20    16    17    1
    21    17    18    1
    22    22    23    1
    23    23    24    1
    24    24    26   ar
    25    24    25   ar
