@<TRIPOS>MOLECULE
1q4k_III_D_1.pdb
 49 49 0 0 0
SMALL
GASTEIGER

@<TRIPOS>ATOM
      1  N         34.9380    3.8680  -44.4760 N.3     1  MET1       -0.1230
      2  CA        33.6010    4.3520  -43.9920 C.3     1  MET1        0.1702
      3  C         33.7660    5.3340  -42.8300 C.2     1  MET1        0.2592
      4  O         34.7060    5.2240  -42.0540 O.2     1  MET1       -0.2718
      5  CB        32.7790    3.1720  -43.5030 C.3     1  MET1        0.0401
      6  CG        32.0110    2.4230  -44.5500 C.3     1  MET1        0.0596
      7  SD        30.6480    1.5520  -43.7340 S.3     1  MET1       -0.1393
      8  CE        29.4550    2.9190  -43.5180 C.3     1  MET1        0.0692
      9  N         32.8350    6.2740  -42.7130 N.am    2  GLN2       -0.1966
     10  CA        32.8920    7.3390  -41.7090 C.3     2  GLN2        0.1733
     11  C         31.4920    7.6260  -41.1630 C.2     2  GLN2        0.2617
     12  O         30.4950    7.3220  -41.8110 O.2     2  GLN2       -0.2715
     13  CB        33.4500    8.6190  -42.3210 C.3     2  GLN2        0.0408
     14  CG        32.6060    9.1390  -43.4760 C.3     2  GLN2        0.0908
     15  CD        33.0380   10.5000  -44.0040 C.2     2  GLN2        0.2608
     16  OE1       32.2870   11.1290  -44.7530 O.2     2  GLN2       -0.2717
     17  NE2       34.2480   10.9470  -43.6400 N.am    2  GLN2       -0.0878
     18  N         31.4250    8.2440  -39.9890 N.am    3  SER3       -0.1936
     19  CA        30.1500    8.5250  -39.3730 C.3     3  SER3        0.2055
     20  C         29.5570    9.6860  -40.1900 C.2     3  SER3        0.2644
     21  O         30.1870   10.1280  -41.1470 O.2     3  SER3       -0.2714
     22  CB        30.3000    8.8220  -37.8670 C.3     3  SER3        0.2130
     23  OG        30.9920   10.0340  -37.6120 O.3     3  SER3       -0.2179
     24  N         28.3640   10.1550  -39.8270 N.am    4  THR4       -0.1938
     25  CA        27.5940   11.1180  -40.6030 C.3     4  THR4        0.1987
     26  CB        26.2880   11.2140  -39.8170 C.3     4  THR4        0.1550
     27  CG2       25.2910   12.1370  -40.4970 C.3     4  THR4        0.0350
     28  OG1       25.7770    9.8780  -39.6770 O.3     4  THR4       -0.2705
     29  P         25.1750    9.2320  -38.3170 P.3     4  THR4        0.5326
     30  O1P       24.4760   10.5580  -37.5410 O.3     4  THR4       -0.1145
     31  O2P       26.8050    8.9130  -38.0280 O.3     4  THR4       -0.1145
     32  O3P       24.2450    8.0580  -39.0800 O.2     4  THR4       -0.2224
     33  C         28.2950   12.4730  -40.7990 C.2     4  THR4        0.2483
     34  O         28.7130   13.0820  -39.5910 O.2     4  THR4       -0.2729
     35  N         28.4680   13.0070  -42.0230 N.am    5  PRO5       -0.2715
     36  CA        29.1750   14.2930  -42.2390 C.3     5  PRO5        0.1536
     37  C         28.3920   15.5490  -41.8470 C.2     5  PRO5        0.2598
     38  O         27.1740   15.5010  -41.6770 O.2     5  PRO5       -0.2715
     39  CB        29.4380   14.2940  -43.7480 C.3     5  PRO5        0.0310
     40  CG        28.3020   13.5050  -44.3210 C.3     5  PRO5        0.0237
     41  CD        28.0300   12.4210  -43.3070 C.3     5  PRO5        0.0939
     42  N         29.1110   16.6590  -41.6930 N.am    6  LEU6       -0.1978
     43  CA        28.5220   17.9430  -41.3190 C.3     6  LEU6        0.1596
     44  C         27.6190   18.5090  -42.4280 C.2     6  LEU6        0.2287
     45  O         27.0550   17.7660  -43.2360 O.2     6  LEU6       -0.2864
     46  CB        29.6240   18.9670  -40.9920 C.3     6  LEU6        0.0297
     47  CG        30.4160   18.7420  -39.7030 C.3     6  LEU6        0.0022
     48  CD1       31.7540   19.4620  -39.7570 C.3     6  LEU6        0.0001
     49  CD2       29.6390   19.1750  -38.4620 C.3     6  LEU6        0.0001
@<TRIPOS>BOND
     1    16    15    2
     2     6     7    1
     3     6     5    1
     4     1     2    1
     5    40    39    1
     6    40    41    1
     7    15    17   am
     8    15    14    1
     9     2     5    1
    10     2     3    1
    11    39    36    1
    12     7     8    1
    13    14    13    1
    14    41    35    1
    15    45    44    2
    16     3     9   am
    17     3     4    2
    18     9    10    1
    19    44    43    1
    20    13    10    1
    21    36    35    1
    22    36    37    1
    23    35    33   am
    24    37    42   am
    25    37    38    2
    26    12    11    2
    27    10    11    1
    28    42    43    1
    29    43    46    1
    30    11    18   am
    31    21    20    2
    32    46    47    1
    33    33    25    1
    34    33    34    2
    35    25    24    1
    36    25    26    1
    37    27    26    1
    38    20    24   am
    39    20    19    1
    40    18    19    1
    41    26    28    1
    42    48    47    1
    43    47    49    1
    44    28    29    1
    45    19    22    1
    46    32    29    2
    47    29    31    1
    48    29    30    1
    49    22    23    1
