@<TRIPOS>MOLECULE
1q4l_679_A_1.pdb
 25 27 0 0 0
SMALL
GASTEIGER

@<TRIPOS>ATOM
      1  C1        37.6640    7.0740   34.3670 C.ar  451  679451      0.0009
      2  C2        36.7560    7.0460   33.2770 C.ar  451  679451      0.0009
      3  C3        36.4670    8.2300   32.5630 C.ar  451  679451      0.0114
      4  C4        37.0960    9.4460   32.9440 C.ar  451  679451      0.0577
      5  C5        38.0110    9.4790   34.0280 C.ar  451  679451      0.0122
      6  C6        38.3100    8.2890   34.7600 C.ar  451  679451      0.0148
      7 CL7        36.7440   10.8860   32.1020 Cl    451  679451     -0.0822
      8  C8        39.2250    8.3150   35.8560 C.2   451  679451      0.1228
      9  C9        40.2520    7.3860   36.2380 C.2   451  679451      0.1774
     10  C10       40.7900    7.8610   37.4300 C.1   451  679451      0.2312
     11  C11       39.2740    9.3230   36.8620 C.1   451  679451      0.2171
     12  O12       38.5340   10.3170   36.9200 O.2   451  679451     -0.2085
     13  O13       41.6590    7.2730   38.0830 O.2   451  679451     -0.2072
     14  N14       40.2260    9.0380   37.7500 N.2   451  679451     -0.2562
     15  N15       40.7360    6.2130   35.6170 N.pl3 451  679451     -0.1994
     16  C16       40.6680    5.6890   34.3220 C.ar  451  679451      0.0716
     17  C17       40.7840    6.5320   33.1640 C.ar  451  679451      0.0174
     18  C18       40.6860    5.9830   31.8780 C.ar  451  679451      0.0129
     19  C19       40.4780    4.5910   31.7210 C.ar  451  679451      0.0641
     20  C20       40.3630    3.6900   32.8480 C.ar  451  679451      0.0916
     21  C21       40.4620    4.2850   34.1570 C.ar  451  679451      0.0240
     22 CL2        40.3780    4.1460   30.1030 Cl    451  679451     -0.0820
     23  C23       40.1700    2.3380   32.7420 C.2   451  679451      0.3886
     24  O24       41.1170    1.6090   33.1310 O.co2 451  679451     -0.2405
     25  O25       39.1290    1.8280   32.2410 O.co2 451  679451     -0.2405
@<TRIPOS>BOND
     1    22    19    1
     2    19    18   ar
     3    19    20   ar
     4    18    17   ar
     5     7     4    1
     6    25    23   ar
     7     3     4   ar
     8     3     2   ar
     9    23    20    1
    10    23    24   ar
    11    20    21   ar
    12     4     5   ar
    13    17    16   ar
    14     2     1   ar
    15     5     6   ar
    16    21    16   ar
    17    16    15    1
    18     1     6   ar
    19     6     8    1
    20    15     9    1
    21     8     9    2
    22     8    11    1
    23     9    10    1
    24    11    12    2
    25    11    14    2
    26    10    14    2
    27    10    13    2
