@<TRIPOS>MOLECULE
1q4n_TAM_X_1.pdb
 11 10 0 0 0
SMALL
GASTEIGER

@<TRIPOS>ATOM
      1  C          6.3780   45.3200   19.2330 C.3   900  TAM900      0.1036
      2  C1         7.4020   45.3740   18.0330 C.2   900  TAM900      0.0363
      3  C2         7.0400   45.2200   20.6380 C.3   900  TAM900      0.0575
      4  C3         5.3950   44.1810   19.2860 C.3   900  TAM900      0.0575
      5  C4         8.8720   45.1080   18.3860 C.2   900  TAM900      0.2311
      6  C5         6.1330   45.0200   21.8730 C.3   900  TAM900      0.1839
      7  C6         4.9110   43.7900   17.9140 C.3   900  TAM900      0.1839
      8  N          5.5430   46.5190   19.0230 N.3   900  TAM900     -0.1296
      9  O4         9.7680   44.7560   17.3070 O.2   900  TAM900     -0.2835
     10  O5         6.7760   45.4960   23.0990 O.3   900  TAM900     -0.2204
     11  O6         4.1500   44.8020   17.3130 O.3   900  TAM900     -0.2204
@<TRIPOS>BOND
     1     9     5    1
     2    11     7    1
     3     7     4    1
     4     2     5    2
     5     2     1    1
     6     8     1    1
     7     1     4    1
     8     1     3    1
     9     3     6    1
    10     6    10    1
