@<TRIPOS>MOLECULE
1q4s_COA_A_1.pdb
 48 50 0 0 0
SMALL
GASTEIGER

@<TRIPOS>ATOM
      1  N1A       87.8710   21.1390   20.0020 N.2   270  COA270      0.0021
      2  C2A       86.7030   21.4230   20.6720 C.3   270  COA270      0.5254
      3  N3A       86.5020   22.2120   21.6990 N.2   270  COA270     -0.0055
      4  C4A       87.6630   22.7830   22.1130 C.2   270  COA270      0.3518
      5  C5A       88.9210   22.5950   21.5510 C.2   270  COA270      0.2526
      6  C6A       89.0330   21.7210   20.4380 C.2   270  COA270      0.4393
      7  N6A       90.1920   21.4630   19.8210 N.pl3 270  COA270      0.2180
      8  N7A       89.8860   23.3400   22.2210 N.2   270  COA270     -0.2095
      9  C8A       89.1880   23.9660   23.1910 C.3   270  COA270      0.3377
     10  N9A       87.8510   23.6720   23.1720 N.pl3 270  COA270     -0.1439
     11  C1B       86.8040   24.1630   24.0680 C.3   270  COA270      0.3185
     12  C2B       86.5150   23.1510   25.1630 C.3   270  COA270      0.2543
     13  O2B       85.1210   22.9410   25.4910 O.3   270  COA270     -0.2131
     14  C3B       87.3710   23.6490   26.3160 C.3   270  COA270      0.1928
     15  O3B       87.0350   23.1690   27.6220 O.3   270  COA270     -0.2673
     16  P3B       87.5470   21.7350   28.1130 P.3   270  COA270      0.5327
     17  O7A       86.3290   20.8080   28.3150 O.3   270  COA270     -0.1145
     18  O8A       88.4470   21.1600   27.0900 O.2   270  COA270     -0.2224
     19  O9A       88.3390   21.9260   29.4070 O.3   270  COA270     -0.1145
     20  C4B       87.2250   25.1580   26.1300 C.3   270  COA270      0.1795
     21  O4B       87.3070   25.2950   24.6880 O.3   270  COA270     -0.3136
     22  C5B       88.3210   26.0180   26.7320 C.3   270  COA270      0.1812
     23  O5B       89.5830   25.3520   26.5220 O.3   270  COA270     -0.3112
     24  P1A       90.9270   26.2110   26.4640 P.3   270  COA270      0.2189
     25  O1A       91.7880   25.7320   25.3320 O.2   270  COA270     -0.5170
     26  O2A       91.6330   26.0430   27.7460 O.3   270  COA270     -0.4371
     27  O3A       90.6880   27.6990   26.1980 O.3   270  COA270     -0.2703
     28  P2A       91.4560   28.5510   25.0250 P.3   270  COA270      0.2188
     29  O4A       91.2450   29.9920   25.2800 O.3   270  COA270     -0.4371
     30  O5A       92.9040   28.2960   25.1010 O.2   270  COA270     -0.5170
     31  O6A       90.9630   28.0360   23.5840 O.3   270  COA270     -0.3138
     32  CBP       89.0360   28.7140   22.2500 C.3   270  COA270      0.0645
     33  CCP       90.4220   29.0980   22.7920 C.3   270  COA270      0.1519
     34  CDP       89.1210   27.3860   21.5070 C.3   270  COA270      0.0056
     35  CEP       88.5360   29.8610   21.3510 C.3   270  COA270      0.0056
     36  CAP       88.0470   28.4720   23.3990 C.3   270  COA270      0.2312
     37  OAP       88.1350   29.6210   24.2530 O.3   270  COA270     -0.2131
     38  C9P       86.5800   28.2860   22.8810 C.2   270  COA270      0.2719
     39  O9P       86.1690   27.2250   22.3420 O.2   270  COA270     -0.2706
     40  N8P       85.6350   29.4030   23.0710 N.am  270  COA270     -0.2028
     41  C7P       84.3010   29.0640   22.5570 C.3   270  COA270      0.1248
     42  C6P       84.1820   29.5580   21.1070 C.3   270  COA270      0.1102
     43  C5P       82.6920   29.6950   20.7780 C.2   270  COA270      0.2432
     44  O5P       81.8550   29.1710   21.5180 O.2   270  COA270     -0.2733
     45  N4P       82.3130   30.5190   19.6010 N.am  270  COA270     -0.2044
     46  C3P       80.8720   30.2990   19.2720 C.3   270  COA270      0.1276
     47  C2P       80.6020   28.8280   18.8230 C.3   270  COA270      0.0920
     48  S1P       81.5000   28.4750   17.2850 S.3   270  COA270     -0.0802
@<TRIPOS>BOND
     1    48    47    1
     2    47    46    1
     3    46    45    1
     4    45    43   am
     5     7     6    1
     6     1     6    2
     7     1     2    1
     8     6     5    1
     9     2     3    1
    10    43    42    1
    11    43    44    2
    12    42    41    1
    13    35    32    1
    14    34    32    1
    15     5     4    1
    16     5     8    2
    17     3     4    2
    18     4    10    1
    19     8     9    1
    20    32    33    1
    21    32    36    1
    22    39    38    2
    23    41    40    1
    24    33    31    1
    25    38    40   am
    26    38    36    1
    27    10     9    1
    28    10    11    1
    29    36    37    1
    30    31    28    1
    31    11    21    1
    32    11    12    1
    33    21    20    1
    34    28    30    2
    35    28    29    1
    36    28    27    1
    37    12    13    1
    38    12    14    1
    39    25    24    2
    40    20    14    1
    41    20    22    1
    42    27    24    1
    43    14    15    1
    44    24    23    1
    45    24    26    1
    46    23    22    1
    47    18    16    2
    48    15    16    1
    49    16    17    1
    50    16    19    1
