@<TRIPOS>MOLECULE
1q4s_PHB_A_1.pdb
 10 10 0 0 0
SMALL
GASTEIGER

@<TRIPOS>ATOM
      1  C1'       80.3260   30.5580   15.0770 C.2   272  PHB272      0.3878
      2  O1'       79.5490   31.1900   15.8530 O.co2 272  PHB272     -0.2406
      3  O2'       81.6010   30.5770   15.2840 O.co2 272  PHB272     -0.2406
      4  C1        79.7520   29.8080   13.9030 C.ar  272  PHB272      0.0800
      5  C2        78.5250   30.2800   13.4080 C.ar  272  PHB272      0.0099
      6  C3        77.8730   29.6330   12.3520 C.ar  272  PHB272      0.0422
      7  C4        78.4730   28.5060   11.7730 C.ar  272  PHB272      0.1958
      8  C5        79.7210   28.0290   12.2410 C.ar  272  PHB272      0.0422
      9  C6        80.3630   28.6750   13.3180 C.ar  272  PHB272      0.0099
     10  O4        77.8300   27.8690   10.7450 O.3   272  PHB272     -0.2866
@<TRIPOS>BOND
     1    10     7    1
     2     7     8   ar
     3     7     6   ar
     4     8     9   ar
     5     6     5   ar
     6     9     4   ar
     7     5     4   ar
     8     4     1    1
     9     1     3   ar
    10     1     2   ar
