@<TRIPOS>MOLECULE
1q4w_DQU_A_1.pdb
 13 14 0 0 0
SMALL
GASTEIGER

@<TRIPOS>ATOM
      1  C6        18.6410   17.3940   19.0900 C.2   900  DQU900      0.0864
      2  N4        19.6860   17.6400   18.0540 N.pl3 900  DQU900     -0.1284
      3  C1        17.3550   16.9100   18.7030 C.2   900  DQU900      0.0201
      4  C2        16.3530   16.6710   19.6710 C.2   900  DQU900      0.0314
      5  C3        16.6130   16.9090   21.0600 C.2   900  DQU900      0.1432
      6  N3        15.6060   16.6680   21.9970 N.2   900  DQU900     -0.3283
      7  C8        15.8180   16.8800   23.2760 C.1   900  DQU900      0.2512
      8  N2        14.8440   16.6520   24.2460 N.pl3 900  DQU900     -0.0226
      9  N1        17.0830   17.3690   23.7750 N.2   900  DQU900     -0.2537
     10  C7        18.1780   17.6440   22.8740 C.1   900  DQU900      0.2018
     11  O1        19.2450   18.0620   23.3400 O.2   900  DQU900     -0.2127
     12  C4        17.9170   17.4020   21.4480 C.3   900  DQU900      0.1951
     13  C5        18.9190   17.6360   20.4540 C.2   900  DQU900      0.0163
@<TRIPOS>BOND
     1     2     1    1
     2     3     1    1
     3     3     4    2
     4     1    13    2
     5     4     5    1
     6    13    12    1
     7     5    12    1
     8     5     6    2
     9    12    10    1
    10     6     7    2
    11    10    11    2
    12    10     9    2
    13     7     9    2
    14     7     8    1
