@<TRIPOS>MOLECULE
1q4x_G24_A_1.pdb
 28 30 0 0 0
SMALL
GASTEIGER

@<TRIPOS>ATOM
      1  CAF       12.2610   25.0350   41.9740 C.ar  462  G24462     -0.0039
      2  CAB       11.8490   23.9260   41.2090 C.ar  462  G24462     -0.0003
      3  CAC       10.4950   23.5450   41.1850 C.ar  462  G24462     -0.0000
      4  CAD        9.5510   24.2760   41.9330 C.ar  462  G24462     -0.0003
      5  CAH        9.9600   25.3880   42.7010 C.ar  462  G24462     -0.0039
      6  CAG       11.3220   25.7660   42.7210 C.ar  462  G24462     -0.0177
      7  CAQ       11.7900   26.9620   43.5630 C.3   462  G24462      0.0558
      8  CAP       12.0580   26.4560   44.9790 C.ar  462  G24462      0.0208
      9  CAO       13.3650   26.0290   45.2950 C.ar  462  G24462     -0.0047
     10  CBA       11.0620   26.3660   45.9430 C.ar  462  G24462      0.1920
     11  OBC        9.8160   26.8060   45.6220 O.3   462  G24462     -0.2869
     12  CAZ       11.3450   25.8400   47.2250 C.ar  462  G24462      0.0414
     13  CAY       12.6590   25.4070   47.5420 C.ar  462  G24462     -0.0007
     14  CAN       13.6730   25.5050   46.5700 C.ar  462  G24462     -0.0179
     15  CAM       15.1510   25.1080   46.8520 C.3   462  G24462      0.0520
     16  CAL       15.3310   23.8170   47.6910 C.ar  462  G24462     -0.0255
     17  CAX       15.6600   23.8770   49.0750 C.ar  462  G24462     -0.0228
     18  CBB       15.8330   25.2290   49.7750 C.3   462  G24462      0.0308
     19  CAW       15.8420   22.7100   49.8270 C.ar  462  G24462      0.0323
     20  CAK       15.1950   22.5220   47.1100 C.ar  462  G24462     -0.0228
     21  CAE       14.8310   22.3710   45.6230 C.3   462  G24462      0.0308
     22  CAJ       15.3830   21.3550   47.8790 C.ar  462  G24462      0.0323
     23  CAV       15.7040   21.4410   49.2330 C.ar  462  G24462      0.1387
     24  OAU       15.8690   20.2840   49.9540 O.3   462  G24462     -0.4637
     25  CAT       16.8550   20.4300   51.0060 C.3   462  G24462      0.3186
     26  CAS       16.8960   19.1740   51.8690 C.2   462  G24462      0.4084
     27  OAR       15.8770   18.8900   52.5430 O.co2 462  G24462     -0.2415
     28  OAI       17.9490   18.4970   51.8570 O.co2 462  G24462     -0.2415
@<TRIPOS>BOND
     1     3     2   ar
     2     3     4   ar
     3     2     1   ar
     4     4     5   ar
     5     1     6   ar
     6     5     6   ar
     7     6     7    1
     8     7     8    1
     9     8     9   ar
    10     8    10   ar
    11     9    14   ar
    12    11    10    1
    13    21    20    1
    14    10    12   ar
    15    14    15    1
    16    14    13   ar
    17    15    16    1
    18    20    16   ar
    19    20    22   ar
    20    12    13   ar
    21    16    17   ar
    22    22    23   ar
    23    17    18    1
    24    17    19   ar
    25    23    19   ar
    26    23    24    1
    27    24    25    1
    28    25    26    1
    29    28    26   ar
    30    26    27   ar
