@<TRIPOS>MOLECULE
1q54_BHI_A_1.pdb
 16 15 0 0 0
SMALL
GASTEIGER

@<TRIPOS>ATOM
      1  O1         9.3570   10.2090   13.0290 O.3   301  BHI301     -0.2247
      2  O2        11.8560    2.8650   10.9670 O.3   301  BHI301     -0.1143
      3  O3         9.8540    1.6410   10.8650 O.2   301  BHI301     -0.2221
      4  O4        10.9590    2.0290   12.9380 O.3   301  BHI301     -0.1143
      5  P5        10.6890    2.6520   11.6000 P.3   301  BHI301      0.5373
      6  O6         9.9440    3.9800   11.7780 O.3   301  BHI301     -0.2261
      7  O7        11.0340    6.1220   11.5380 O.2   301  BHI301     -0.5169
      8  O8        11.7170    4.5940   13.2600 O.3   301  BHI301     -0.4370
      9  P9        10.6270    5.2160   12.4240 P.3   301  BHI301      0.2230
     10  C10       10.3350    9.4300   15.3610 C.3   301  BHI301      0.0980
     11  C11       11.0890    8.2680   13.3380 C.3   301  BHI301      0.0339
     12  C12        8.8750    6.8560   13.0410 C.3   301  BHI301      0.1517
     13  C13        8.7600    7.8970   14.1700 C.3   301  BHI301      0.0638
     14  C14        9.8540    8.9860   13.9510 C.3   301  BHI301      0.1396
     15  O15        9.6200    5.7080   13.4550 O.3   301  BHI301     -0.3137
     16 BR          8.7290    9.3740   16.2740 Br    301  BHI301     -0.0781
@<TRIPOS>BOND
     1     3     5    2
     2     2     5    1
     3     7     9    2
     4     5     6    1
     5     5     4    1
     6     6     9    1
     7     9     8    1
     8     9    15    1
     9     1    14    1
    10    12    15    1
    11    12    13    1
    12    11    14    1
    13    14    13    1
    14    14    10    1
    15    10    16    1
