@<TRIPOS>MOLECULE
1q5d_EPB_A_1.pdb
 35 37 0 0 0
SMALL
GASTEIGER

@<TRIPOS>ATOM
      1  O16        5.6940   36.7040   14.4020 O.2   450  EPB450     -0.2500
      2  C51        9.5650   39.1750   15.8580 C.3   450  EPB450      0.0321
      3  O41        8.6170   38.5170   18.2830 O.3   450  EPB450     -0.3561
      4  C5         8.6570   39.1930   17.0330 C.3   450  EPB450      0.1177
      5  C4         7.4930   38.1520   17.4730 C.3   450  EPB450      0.1437
      6  C16        5.3080   37.8120   14.4630 C.2   450  EPB450      0.3198
      7  O1         4.9930   38.5030   15.6230 O.3   450  EPB450     -0.4479
      8  C2         5.0660   37.8590   17.0260 C.3   450  EPB450      0.1898
      9  C3         6.1860   38.6140   17.8460 C.3   450  EPB450      0.0799
     10  C20        3.6080   38.1250   17.5810 C.2   450  EPB450     -0.0023
     11  C21        2.5790   37.2570   16.8730 C.3   450  EPB450      0.0301
     12  C22        3.3380   39.0130   18.5810 C.2   450  EPB450      0.0234
     13  C23        2.0900   39.4430   19.2130 C.2   450  EPB450      0.1200
     14  N26        0.9430   39.5270   18.4430 N.2   450  EPB450     -0.4035
     15  C25       -0.1120   39.9620   19.1790 C.2   450  EPB450      0.1348
     16  C27       -1.4350   40.0930   18.5310 C.3   450  EPB450      0.0735
     17  C24        1.9220   39.8390   20.4860 C.3   450  EPB450      0.1230
     18  S1         0.2960   40.2960   20.7660 S.3   450  EPB450     -0.0791
     19  C15        5.1050   38.6460   13.1720 C.3   450  EPB450      0.1427
     20  C14        3.7640   39.5070   13.1110 C.3   450  EPB450      0.1694
     21  O14        2.7530   38.5530   13.3900 O.3   450  EPB450     -0.2221
     22  C13        3.5290   40.3910   11.7640 C.3   450  EPB450      0.0802
     23  C29        3.4150   39.4100   10.5450 C.3   450  EPB450      0.0099
     24  C30        2.1790   41.1000   11.8390 C.3   450  EPB450      0.0099
     25  C12        4.7720   41.4070   11.4750 C.2   450  EPB450      0.1543
     26  O12        5.4510   41.3180   10.4030 O.2   450  EPB450     -0.2959
     27  C11        5.2510   42.5520   12.4510 C.3   450  EPB450      0.0880
     28  C28        5.3570   43.8100   11.5550 C.3   450  EPB450      0.0104
     29  C10        6.3050   41.9700   13.3450 C.3   450  EPB450      0.1587
     30  O10        7.5420   41.7630   12.5940 O.3   450  EPB450     -0.2227
     31  C9         6.5080   42.9630   14.4720 C.3   450  EPB450      0.0309
     32  C91        5.2810   43.0640   15.2480 C.3   450  EPB450      0.0026
     33  C8         7.4690   42.5420   15.5290 C.3   450  EPB450      0.0026
     34  C7         8.0530   41.0760   15.3970 C.3   450  EPB450      0.0026
     35  C6         7.6140   40.4900   16.8430 C.3   450  EPB450      0.0296
@<TRIPOS>BOND
     1    26    25    2
     2    23    22    1
     3    25    22    1
     4    25    27    1
     5    28    27    1
     6    22    24    1
     7    22    20    1
     8    27    29    1
     9    30    29    1
    10    20    19    1
    11    20    21    1
    12    19     6    1
    13    29    31    1
    14     1     6    2
    15     6     7    1
    16    31    32    1
    17    31    33    1
    18    34    33    1
    19    34    35    1
    20     7     8    1
    21     2     4    1
    22    35     4    1
    23    11    10    1
    24     8    10    1
    25     8     9    1
    26     4     5    1
    27     4     3    1
    28     5     9    1
    29     5     3    1
    30    10    12    2
    31    14    15    2
    32    14    13    2
    33    16    15    1
    34    12    13    1
    35    15    18    1
    36    13    17    1
    37    17    18    1
