@<TRIPOS>MOLECULE
1q5d_HEM_A_1.pdb
 43 50 0 0 0
SMALL
GASTEIGER

@<TRIPOS>ATOM
      1 FE          9.2170   37.9340   21.9360 Fe    440  HEM440      0.0000
      2  CHA        7.4920   40.8900   22.0720 C.2   440  HEM440      0.0000
      3  CHB       11.5090   39.4060   19.8610 C.2   440  HEM440      0.0000
      4  CHC       10.9360   34.9840   21.7990 C.2   440  HEM440      0.0000
      5  CHD        6.6430   36.3140   23.5020 C.2   440  HEM440      0.0000
      6  NA         9.4310   39.7760   21.0970 N.ar  440  HEM440      0.0000
      7  C1A        8.6750   40.8920   21.3820 C.ar  440  HEM440      0.0000
      8  C2A        9.3090   42.0480   20.7920 C.ar  440  HEM440      0.0000
      9  C3A       10.4100   41.6370   20.1630 C.ar  440  HEM440      0.0000
     10  C4A       10.5130   40.2080   20.3450 C.ar  440  HEM440      0.0000
     11  CMA       11.4100   42.5380   19.3870 C.3   440  HEM440      0.0000
     12  CAA        8.7800   43.4990   20.8850 C.3   440  HEM440      0.0000
     13  CBA        8.0090   43.8750   19.6160 C.3   440  HEM440      0.0000
     14  CGA        7.5930   45.3340   19.6980 C.2   440  HEM440      0.0000
     15  O1A        6.8300   45.8100   18.8010 O.co2 440  HEM440      0.0000
     16  O2A        8.0050   46.0260   20.6730 O.co2 440  HEM440      0.0000
     17  NB        10.8250   37.3280   21.0120 N.2   440  HEM440      0.0000
     18  C1B       11.6710   38.0970   20.2110 C.2   440  HEM440      0.0000
     19  C2B       12.7900   37.2930   19.7850 C.2   440  HEM440      0.0000
     20  C3B       12.6320   36.0820   20.2940 C.2   440  HEM440      0.0000
     21  C4B       11.4120   36.0590   21.0740 C.2   440  HEM440      0.0000
     22  CMB       13.9620   37.7270   18.8630 C.3   440  HEM440      0.0000
     23  CAB       13.6570   34.9610   20.0510 C.2   440  HEM440      0.0000
     24  CBB       13.3450   33.6780   20.2050 C.2   440  HEM440      0.0000
     25  NC         8.8400   35.9810   22.4890 N.ar  440  HEM440      0.0000
     26  C1C        9.7490   34.9540   22.4670 C.ar  440  HEM440      0.0000
     27  C2C        9.2250   33.8500   23.2410 C.ar  440  HEM440      0.0000
     28  C3C        8.0320   34.2330   23.7050 C.ar  440  HEM440      0.0000
     29  C4C        7.7830   35.5880   23.2500 C.ar  440  HEM440      0.0000
     30  CMC        9.9720   32.5050   23.4470 C.3   440  HEM440      0.0000
     31  CAC        7.0120   33.4800   24.5780 C.2   440  HEM440      0.0000
     32  CBC        7.3500   32.3620   25.2150 C.2   440  HEM440      0.0000
     33  ND         7.3790   38.5110   22.6560 N.2   440  HEM440      0.0000
     34  C1D        6.4560   37.6420   23.2130 C.2   440  HEM440      0.0000
     35  C2D        5.2300   38.3390   23.4690 C.2   440  HEM440      0.0000
     36  C3D        5.4850   39.7630   23.0340 C.2   440  HEM440      0.0000
     37  C4D        6.8340   39.7770   22.5380 C.2   440  HEM440      0.0000
     38  CMD        3.9450   37.7580   24.0810 C.3   440  HEM440      0.0000
     39  CAD        4.5140   40.9530   23.1230 C.3   440  HEM440      0.0000
     40  CBD        5.0050   41.7880   24.3120 C.3   440  HEM440      0.0000
     41  CGD        4.1490   43.0170   24.4900 C.2   440  HEM440      0.0000
     42  O1D        3.6640   43.5510   23.4600 O.co2 440  HEM440      0.0000
     43  O2D        3.9370   43.4620   25.6580 O.co2 440  HEM440      0.0000
@<TRIPOS>BOND
     1    15    14   ar
     2    22    19    1
     3    11     9    1
     4    13    14    1
     5    13    12    1
     6    14    16   ar
     7    19    18    1
     8    19    20    2
     9     3    18    1
    10     3    10    2
    11    23    24    2
    12    23    20    1
    13     9    10   ar
    14     9     8   ar
    15    18    17    2
    16    20    21    1
    17    10     6   ar
    18     8    12    1
    19     8     7   ar
    20    17    21    1
    21    17     1    1
    22    21     4    2
    23     6     7   ar
    24     6     1    1
    25     7     2    2
    26     4    26    1
    27     1    25    1
    28     1    33    1
    29     2    37    1
    30    26    25   ar
    31    26    27   ar
    32    25    29   ar
    33    37    33    2
    34    37    36    1
    35    33    34    1
    36    36    39    1
    37    36    35    2
    38    39    40    1
    39    34    35    1
    40    34     5    2
    41    27    30    1
    42    27    28   ar
    43    29     5    1
    44    29    28   ar
    45    42    41   ar
    46    35    38    1
    47    28    31    1
    48    40    41    1
    49    41    43   ar
    50    31    32    2
