@<TRIPOS>MOLECULE
1q5e_HEM_A_1.pdb
 43 50 0 0 0
SMALL
GASTEIGER

@<TRIPOS>ATOM
      1 FE         10.5390   38.9920   22.3590 Fe    440  HEM440      0.0000
      2  CHA        8.8990   41.9580   22.3690 C.2   440  HEM440      0.0000
      3  CHB       12.8790   40.2800   20.2010 C.2   440  HEM440      0.0000
      4  CHC       12.0620   35.9910   22.2930 C.2   440  HEM440      0.0000
      5  CHD        7.8650   37.5170   23.8770 C.2   440  HEM440      0.0000
      6  NA        10.8660   40.7470   21.4300 N.ar  440  HEM440      0.0000
      7  C1A       10.1100   41.9000   21.6940 C.ar  440  HEM440      0.0000
      8  C2A       10.7650   43.0590   21.1170 C.ar  440  HEM440      0.0000
      9  C3A       11.8620   42.6110   20.5090 C.ar  440  HEM440      0.0000
     10  C4A       11.9420   41.1630   20.7030 C.ar  440  HEM440      0.0000
     11  CMA       12.8570   43.4990   19.7550 C.3   440  HEM440      0.0000
     12  CAA       10.2520   44.5260   21.2350 C.3   440  HEM440      0.0000
     13  CBA        9.5880   45.1020   19.9800 C.3   440  HEM440      0.0000
     14  CGA        9.1480   46.5290   20.2460 C.2   440  HEM440      0.0000
     15  O1A        7.9770   46.7970   20.6100 O.co2 440  HEM440      0.0000
     16  O2A        9.9710   47.4630   20.0980 O.co2 440  HEM440      0.0000
     17  NB        12.0880   38.2870   21.3980 N.2   440  HEM440      0.0000
     18  C1B       12.9670   38.9540   20.5710 C.2   440  HEM440      0.0000
     19  C2B       14.0510   38.0510   20.2000 C.2   440  HEM440      0.0000
     20  C3B       13.8050   36.8720   20.7790 C.2   440  HEM440      0.0000
     21  C4B       12.5880   37.0080   21.5360 C.2   440  HEM440      0.0000
     22  CMB       15.2430   38.4010   19.2670 C.3   440  HEM440      0.0000
     23  CAB       14.6270   35.5890   20.7210 C.2   440  HEM440      0.0000
     24  CBB       15.8470   35.5120   20.1750 C.2   440  HEM440      0.0000
     25  NC        10.0610   37.1170   22.9680 N.ar  440  HEM440      0.0000
     26  C1C       10.8780   36.0150   22.9670 C.ar  440  HEM440      0.0000
     27  C2C       10.2680   34.9170   23.7350 C.ar  440  HEM440      0.0000
     28  C3C        9.0890   35.3770   24.1680 C.ar  440  HEM440      0.0000
     29  C4C        8.9490   36.7370   23.6900 C.ar  440  HEM440      0.0000
     30  CMC       10.8940   33.5330   23.9660 C.3   440  HEM440      0.0000
     31  CAC        8.0310   34.7100   24.9980 C.2   440  HEM440      0.0000
     32  CBC        8.2180   33.5040   25.5610 C.2   440  HEM440      0.0000
     33  ND         8.7230   39.6920   23.0090 N.2   440  HEM440      0.0000
     34  C1D        7.7530   38.8400   23.5470 C.2   440  HEM440      0.0000
     35  C2D        6.5300   39.5410   23.7920 C.2   440  HEM440      0.0000
     36  C3D        6.7800   40.9710   23.3510 C.2   440  HEM440      0.0000
     37  C4D        8.1670   40.9310   22.8510 C.2   440  HEM440      0.0000
     38  CMD        5.2710   38.9080   24.3970 C.3   440  HEM440      0.0000
     39  CAD        5.7000   42.1050   23.4490 C.3   440  HEM440      0.0000
     40  CBD        6.1510   43.2110   24.4170 C.3   440  HEM440      0.0000
     41  CGD        5.0000   44.0470   24.9590 C.2   440  HEM440      0.0000
     42  O1D        4.4460   43.6900   26.0450 O.co2 440  HEM440      0.0000
     43  O2D        4.5920   45.0590   24.3280 O.co2 440  HEM440      0.0000
@<TRIPOS>BOND
     1    22    19    1
     2    11     9    1
     3    13    14    1
     4    13    12    1
     5    16    14   ar
     6    24    23    2
     7    19    18    1
     8    19    20    2
     9     3    18    1
    10     3    10    2
    11    14    15   ar
    12     9    10   ar
    13     9     8   ar
    14    18    17    2
    15    10     6   ar
    16    23    20    1
    17    20    21    1
    18     8    12    1
    19     8     7   ar
    20    17    21    1
    21    17     1    1
    22     6     7   ar
    23     6     1    1
    24    21     4    2
    25     7     2    2
    26     4    26    1
    27     1    25    1
    28     1    33    1
    29     2    37    1
    30    37    33    2
    31    37    36    1
    32    26    25   ar
    33    26    27   ar
    34    25    29   ar
    35    33    34    1
    36    36    39    1
    37    36    35    2
    38    39    40    1
    39    34    35    1
    40    34     5    2
    41    29     5    1
    42    29    28   ar
    43    27    30    1
    44    27    28   ar
    45    35    38    1
    46    28    31    1
    47    43    41   ar
    48    40    41    1
    49    41    42   ar
    50    31    32    2
