@<TRIPOS>MOLECULE
1q5h_DUD_A_1.pdb
 24 25 0 0 0
SMALL
GASTEIGER

@<TRIPOS>ATOM
      1  N1         7.0790   44.9300    8.8140 N.am  779  DUD779     -0.1790
      2  C2         7.1130   44.0420    7.7100 C.1   779  DUD779      0.2844
      3  N3         7.9810   43.0060    7.7070 N.2   779  DUD779     -0.2452
      4  C4         8.8220   42.8070    8.7470 C.1   779  DUD779      0.2182
      5  C5         8.8100   43.6660    9.8460 C.2   779  DUD779      0.1242
      6  C6         7.9170   44.7310    9.8510 C.2   779  DUD779      0.0928
      7  O2         6.3310   44.2150    6.7440 O.2   779  DUD779     -0.1918
      8  O4         9.6260   41.8470    8.7380 O.2   779  DUD779     -0.2085
      9  C1'        6.1100   46.0370    8.8320 C.3   779  DUD779      0.2090
     10  C2'        4.9630   45.6000    9.7470 C.3   779  DUD779      0.0874
     11  C3'        5.2060   46.3630   11.0380 C.3   779  DUD779      0.1857
     12  C4'        5.8920   47.6200   10.5430 C.3   779  DUD779      0.1773
     13  O4'        6.6470   47.2450    9.3820 O.3   779  DUD779     -0.3339
     14  O3'        4.0100   46.6470   11.7570 O.3   779  DUD779     -0.2203
     15  C5'        6.8240   48.1850   11.5950 C.3   779  DUD779      0.1812
     16  O5'        7.2440   49.4540   11.1190 O.3   779  DUD779     -0.3111
     17  PA         7.8820   50.5170   12.1390 P.3   779  DUD779      0.2231
     18  O1A        7.0900   50.4970   13.5110 O.3   779  DUD779     -0.4370
     19  O2A        7.8880   51.9470   11.4440 O.2   779  DUD779     -0.5169
     20  O3A        9.3520   49.8760   12.2530 O.3   779  DUD779     -0.2261
     21  PB        10.4810   50.2050   13.3490 P.3   779  DUD779      0.5373
     22  O1B       10.7010   48.9270   14.2650 O.3   779  DUD779     -0.1143
     23  O2B       10.0820   51.4360   14.2680 O.3   779  DUD779     -0.1143
     24  O3B       11.8020   50.4920   12.5130 O.2   779  DUD779     -0.2221
@<TRIPOS>BOND
     1     7     2    2
     2     3     2    2
     3     3     4    2
     4     2     1   am
     5     8     4    2
     6     4     5    1
     7     1     9    1
     8     1     6    1
     9     9    13    1
    10     9    10    1
    11    13    12    1
    12    10    11    1
    13     5     6    2
    14    12    11    1
    15    12    15    1
    16    11    14    1
    17    16    15    1
    18    16    17    1
    19    19    17    2
    20    17    20    1
    21    17    18    1
    22    20    21    1
    23    24    21    2
    24    21    22    1
    25    21    23    1
