@<TRIPOS>MOLECULE
1q5i_RET_A_1.pdb
 20 20 0 0 0
SMALL
GASTEIGER

@<TRIPOS>ATOM
      1  C1        40.6220   54.8620    2.2450 C.3   301  RET301      0.0183
      2  C2        41.4460   56.0640    1.7000 C.3   301  RET301      0.0044
      3  C3        41.9120   56.0170    0.2900 C.3   301  RET301      0.0047
      4  C4        42.4460   54.6540   -0.1790 C.3   301  RET301      0.0217
      5  C5        41.6610   53.3940    0.3100 C.2   301  RET301     -0.0479
      6  C6        40.8070   53.4860    1.4350 C.2   301  RET301     -0.0307
      7  C7        40.1090   52.2060    1.7710 C.2   301  RET301     -0.0052
      8  C8        39.2050   51.8660    2.7470 C.2   301  RET301     -0.0049
      9  C9        38.5810   50.5710    2.9750 C.2   301  RET301     -0.0258
     10  C10       37.7170   50.6050    4.0270 C.2   301  RET301     -0.0257
     11  C11       36.9580   49.4120    4.4360 C.3   301  RET301      0.0510
     12  C12       36.1560   49.6750    5.4980 C.2   301  RET301     -0.0299
     13  C13       35.2840   48.7030    6.1480 C.2   301  RET301     -0.0478
     14  C14       34.6190   49.3190    7.1870 C.3   301  RET301      0.0217
     15  C15       33.6750   48.6870    8.0580 C.3   301  RET301      0.0047
     16  C16       41.0630   54.6980    3.7480 C.3   301  RET301      0.0043
     17  C17       39.1470   55.4340    2.1800 C.3   301  RET301      0.0043
     18  C18       42.0000   52.2390   -0.6030 C.3   301  RET301      0.0260
     19  C19       38.8740   49.3540    2.1150 C.3   301  RET301      0.0307
     20  C20       35.1650   47.2640    5.7090 C.3   301  RET301      0.0260
@<TRIPOS>BOND
     1    18     5    1
     2     4     3    1
     3     4     5    1
     4     3     2    1
     5     5     6    2
     6     6     7    1
     7     6     1    1
     8     2     1    1
     9     7     8    2
    10    19     9    1
    11    17     1    1
    12     1    16    1
    13     8     9    1
    14     9    10    2
    15    10    11    1
    16    11    12    1
    17    12    13    2
    18    20    13    1
    19    13    14    1
    20    14    15    1
