@<TRIPOS>MOLECULE
1q5j_RET_A_1.pdb
 20 20 0 0 0
SMALL
GASTEIGER

@<TRIPOS>ATOM
      1  C1        40.5520   54.8240    2.1630 C.3   301  RET301      0.0183
      2  C2        41.3560   56.0590    1.6890 C.3   301  RET301      0.0044
      3  C3        41.9700   56.0410    0.3420 C.3   301  RET301      0.0047
      4  C4        42.5110   54.6890   -0.1550 C.3   301  RET301      0.0217
      5  C5        41.7330   53.4150    0.2690 C.2   301  RET301     -0.0479
      6  C6        40.8210   53.4720    1.3420 C.2   301  RET301     -0.0307
      7  C7        40.1410   52.1700    1.6310 C.2   301  RET301     -0.0052
      8  C8        39.2120   51.8220    2.5710 C.2   301  RET301     -0.0049
      9  C9        38.5720   50.5430    2.7830 C.2   301  RET301     -0.0258
     10  C10       37.7050   50.6020    3.8300 C.2   301  RET301     -0.0257
     11  C11       36.9260   49.4380    4.2470 C.3   301  RET301      0.0510
     12  C12       36.1400   49.7290    5.3140 C.2   301  RET301     -0.0299
     13  C13       35.2600   48.7720    5.9600 C.2   301  RET301     -0.0478
     14  C14       34.6140   49.3900    7.0040 C.3   301  RET301      0.0217
     15  C15       33.6670   48.7670    7.8790 C.3   301  RET301      0.0047
     16  C16       40.9340   54.6510    3.6810 C.3   301  RET301      0.0043
     17  C17       39.0640   55.3440    2.0440 C.3   301  RET301      0.0043
     18  C18       42.1510   52.2760   -0.6310 C.3   301  RET301      0.0260
     19  C19       38.8560   49.3330    1.9290 C.3   301  RET301      0.0307
     20  C20       35.1200   47.3400    5.5130 C.3   301  RET301      0.0260
@<TRIPOS>BOND
     1    18     5    1
     2     4     5    1
     3     4     3    1
     4     5     6    2
     5     3     2    1
     6     6     7    1
     7     6     1    1
     8     7     8    2
     9     2     1    1
    10    19     9    1
    11    17     1    1
    12     1    16    1
    13     8     9    1
    14     9    10    2
    15    10    11    1
    16    11    12    1
    17    12    13    2
    18    20    13    1
    19    13    14    1
    20    14    15    1
