@<TRIPOS>MOLECULE
1q5k_TMU_A_1.pdb
 21 22 0 0 0
SMALL
GASTEIGER

@<TRIPOS>ATOM
      1  C1        22.4890   23.5710    6.7560 C.ar  901  TMU901      0.1888
      2  S2        21.5370   24.4340    7.9290 S.2   901  TMU901     -0.0257
      3  N3        21.6340   23.3800    5.7730 N.ar  901  TMU901     -0.2191
      4  N4        23.8170   23.1860    6.8220 N.am  901  TMU901     -0.1358
      5  C5        20.0340   24.4850    6.9870 C.ar  901  TMU901      0.1940
      6  C6        20.4050   23.8240    5.8600 C.ar  901  TMU901      0.1317
      7  C7        24.6410   23.5450    7.8400 C.2   901  TMU901      0.3456
      8  N8        18.7490   25.0910    7.3530 N.pl3 901  TMU901      0.0655
      9  N9        25.9330   23.1230    7.7830 N.am  901  TMU901     -0.1820
     10  O10       24.2360   24.2330    8.7800 O.2   901  TMU901     -0.2487
     11  O11       17.9620   25.4350    6.4810 O.2   901  TMU901     -0.1255
     12  O12       18.4810   25.2650    8.5270 O.2   901  TMU901     -0.1255
     13  C13       26.9180   23.4530    8.8270 C.3   901  TMU901      0.1432
     14  C14       26.9360   22.3610    9.8650 C.ar  901  TMU901     -0.0003
     15  C15       26.8230   21.0020    9.4750 C.ar  901  TMU901      0.0006
     16  C16       27.0620   22.7010   11.2270 C.ar  901  TMU901      0.0006
     17  C17       26.8360   19.9850   10.4500 C.ar  901  TMU901      0.0366
     18  C18       27.0760   21.6910   12.2070 C.ar  901  TMU901      0.0366
     19  C19       26.9640   20.3240   11.8250 C.ar  901  TMU901      0.1387
     20  O20       26.9710   19.3380   12.7790 O.3   901  TMU901     -0.4714
     21  C21       28.3340   18.9430   13.0220 C.3   901  TMU901      0.2525
@<TRIPOS>BOND
     1     3     6   ar
     2     3     1   ar
     3     6     5   ar
     4    11     8    2
     5     1     4    1
     6     1     2   ar
     7     4     7   am
     8     5     8    1
     9     5     2   ar
    10     8    12    2
    11     9     7   am
    12     9    13    1
    13     7    10    2
    14    13    14    1
    15    15    14   ar
    16    15    17   ar
    17    14    16   ar
    18    17    19   ar
    19    16    18   ar
    20    19    18   ar
    21    19    20    1
    22    20    21    1
