@<TRIPOS>MOLECULE
1q5m_NAP_A_1.pdb
 48 52 0 0 0
SMALL
GASTEIGER

@<TRIPOS>ATOM
      1  PA        17.3910   -9.7770   31.9330 P.3   1003  NAP1003     0.2189
      2  O1A       17.4570   -9.8060   33.3850 O.3   1003  NAP1003    -0.4371
      3  O2A       16.2600   -9.2780   31.2870 O.2   1003  NAP1003    -0.5170
      4  O5B       17.7660  -11.2460   31.4720 O.3   1003  NAP1003    -0.3112
      5  C5B       18.1860  -11.5760   30.1400 C.3   1003  NAP1003     0.1813
      6  C4B       18.5630  -13.0510   30.1430 C.3   1003  NAP1003     0.1820
      7  O4B       17.3990  -13.8530   30.4610 O.3   1003  NAP1003    -0.3136
      8  C3B       19.1490  -13.4200   28.7800 C.3   1003  NAP1003     0.2157
      9  O3B       20.1690  -14.3980   29.0130 O.3   1003  NAP1003    -0.2175
     10  C2B       17.9240  -14.0810   28.1510 C.3   1003  NAP1003     0.2314
     11  O2B       18.2920  -15.0900   27.2200 O.3   1003  NAP1003    -0.2630
     12  C1B       17.2250  -14.7350   29.3130 C.3   1003  NAP1003     0.3158
     13  N9A       15.7880  -14.9100   29.2530 N.pl3 1003  NAP1003    -0.1439
     14  C8A       14.8860  -13.9670   28.7450 C.3   1003  NAP1003     0.3377
     15  N7A       13.6100  -14.3870   28.8360 N.2   1003  NAP1003    -0.2095
     16  C5A       13.7050  -15.6840   29.3210 C.2   1003  NAP1003     0.2526
     17  C6A       12.6630  -16.6410   29.5520 C.2   1003  NAP1003     0.4393
     18  N6A       11.3950  -16.4190   29.3680 N.pl3 1003  NAP1003     0.2180
     19  N1A       13.1330  -17.8340   30.0400 N.2   1003  NAP1003     0.0021
     20  C2A       14.3990  -18.0530   30.2170 C.3   1003  NAP1003     0.5254
     21  N3A       15.4150  -17.1430   30.0190 N.2   1003  NAP1003    -0.0055
     22  C4A       15.0020  -15.9600   29.5460 C.2   1003  NAP1003     0.3518
     23  O3        18.6580   -9.0150   31.3240 O.3   1003  NAP1003    -0.2703
     24  PN        19.3240   -7.5990   31.3190 P.3   1003  NAP1003     0.2189
     25  O1N       20.1790   -7.5850   32.3890 O.3   1003  NAP1003    -0.4371
     26  O2N       19.7830   -7.3640   29.9180 O.2   1003  NAP1003    -0.5170
     27  O5D       18.2070   -6.5460   31.6910 O.3   1003  NAP1003    -0.3112
     28  C5D       17.1840   -6.1880   30.8160 C.3   1003  NAP1003     0.1813
     29  C4D       17.4140   -4.8970   30.0790 C.3   1003  NAP1003     0.1799
     30  O4D       17.4630   -3.8390   31.0920 O.3   1003  NAP1003    -0.3327
     31  C3D       18.6310   -4.7240   29.2900 C.3   1003  NAP1003     0.2158
     32  O3D       18.5950   -5.4100   28.0480 O.3   1003  NAP1003    -0.2175
     33  C2D       18.6500   -3.2200   29.1710 C.3   1003  NAP1003     0.2309
     34  O2D       17.7080   -2.8180   28.1960 O.3   1003  NAP1003    -0.2158
     35  C1D       18.2400   -2.7760   30.5720 C.3   1003  NAP1003     0.2263
     36  N1N       19.3920   -2.5680   31.5100 N.pl3 1003  NAP1003    -0.2787
     37  C2N       19.6770   -1.3130   31.9910 C.3   1003  NAP1003     0.1244
     38  C3N       20.7420   -1.0610   32.8540 C.2   1003  NAP1003     0.0544
     39  C7N       20.9300    0.3600   33.3720 C.2   1003  NAP1003     0.2818
     40  O7N       22.0250    0.5670   33.8770 O.2   1003  NAP1003    -0.2670
     41  N7N       19.9680    1.2000   33.2420 N.am  1003  NAP1003    -0.0839
     42  C4N       21.5440   -2.1160   33.2680 C.2   1003  NAP1003     0.0033
     43  C5N       21.1710   -3.4190   32.9160 C.2   1003  NAP1003     0.0157
     44  C6N       20.1360   -3.6460   32.1230 C.2   1003  NAP1003     0.0633
     45  P2B       18.1100  -14.9440   25.6270 P.3   1003  NAP1003     0.5328
     46  O1X       18.1750  -13.4890   25.2590 O.3   1003  NAP1003    -0.1145
     47  O2X       19.2830  -15.7510   25.1180 O.2   1003  NAP1003    -0.2224
     48  O3X       16.7660  -15.5840   25.3040 O.3   1003  NAP1003    -0.1145
@<TRIPOS>BOND
     1    47    45    2
     2    46    45    1
     3    48    45    1
     4    45    11    1
     5    11    10    1
     6    32    31    1
     7    10     8    1
     8    10    12    1
     9    34    33    1
    10    14    15    1
    11    14    13    1
    12     8     9    1
    13     8     6    1
    14    15    16    2
    15    33    31    1
    16    33    35    1
    17    13    12    1
    18    13    22    1
    19    31    29    1
    20    12     7    1
    21    16    22    1
    22    16    17    1
    23    18    17    1
    24    22    21    2
    25    17    19    2
    26    26    24    2
    27    21    20    1
    28    19    20    1
    29    29    28    1
    30    29    30    1
    31     5     6    1
    32     5     4    1
    33     6     7    1
    34    35    30    1
    35    35    36    1
    36    28    27    1
    37     3     1    2
    38    24    23    1
    39    24    27    1
    40    24    25    1
    41    23     1    1
    42     4     1    1
    43    36    37    1
    44    36    44    1
    45     1     2    1
    46    37    38    1
    47    44    43    2
    48    38    42    2
    49    38    39    1
    50    43    42    1
    51    41    39   am
    52    39    40    2
