@<TRIPOS>MOLECULE
1q5o_CMP_A_1.pdb
 22 25 0 0 0
SMALL
GASTEIGER

@<TRIPOS>ATOM
      1  P         25.1510   41.2560    6.8510 P.3   201  CMP201      0.2141
      2  O1P       25.3240   40.5930    5.5390 O.2   201  CMP201     -0.5172
      3  O2P       23.8550   41.9020    7.1580 O.3   201  CMP201     -0.4373
      4  O5'       25.5290   40.2020    8.0110 O.3   201  CMP201     -0.3114
      5  C5'       26.8910   39.7850    8.1590 C.3   201  CMP201      0.1812
      6  C4'       27.7680   41.0190    8.3770 C.3   201  CMP201      0.1793
      7  O4'       29.1810   40.7810    8.3620 O.3   201  CMP201     -0.3136
      8  C3'       27.6350   41.8800    7.1260 C.3   201  CMP201      0.1884
      9  O3'       26.2990   42.3740    7.0170 O.3   201  CMP201     -0.3111
     10  C2'       28.6690   42.9480    7.4770 C.3   201  CMP201      0.2541
     11  O2'       28.1160   43.7800    8.5010 O.3   201  CMP201     -0.2131
     12  C1'       29.7710   42.0640    8.0720 C.3   201  CMP201      0.3185
     13  N9        30.8770   41.8590    7.1070 N.pl3 201  CMP201     -0.1439
     14  C8        30.8140   41.2050    5.9490 C.3   201  CMP201      0.3377
     15  N7        32.0050   41.2310    5.3550 N.2   201  CMP201     -0.2095
     16  C5        32.8360   41.9070    6.1420 C.2   201  CMP201      0.2526
     17  C6        34.1780   42.2640    6.0670 C.2   201  CMP201      0.4393
     18  N6        34.9160   41.9120    5.0180 N.pl3 201  CMP201      0.2180
     19  N1        34.7180   42.9730    7.0690 N.2   201  CMP201      0.0021
     20  C2        34.0050   43.3380    8.1220 C.3   201  CMP201      0.5254
     21  N3        32.7270   43.0150    8.2240 N.2   201  CMP201     -0.0055
     22  C4        32.1190   42.3080    7.2600 C.2   201  CMP201      0.3518
@<TRIPOS>BOND
     1    18    17    1
     2    15    14    1
     3    15    16    2
     4     2     1    2
     5    14    13    1
     6    17    16    1
     7    17    19    2
     8    16    22    1
     9     1     9    1
    10     1     3    1
    11     1     4    1
    12     9     8    1
    13    19    20    1
    14    13    22    1
    15    13    12    1
    16     8    10    1
    17     8     6    1
    18    22    21    2
    19    10    12    1
    20    10    11    1
    21     4     5    1
    22    12     7    1
    23    20    21    1
    24     5     6    1
    25     7     6    1
