@<TRIPOS>MOLECULE
1q63_AIQ_A_1.pdb
 20 22 0 0 0
SMALL
GASTEIGER

@<TRIPOS>ATOM
      1  C1        17.1200   16.9780   18.7150 C.2   900  AIQ900      0.0167
      2  C2        16.1100   16.7320   19.6880 C.2   900  AIQ900      0.0189
      3  C9        14.6830   16.2780   19.3100 C.3   900  AIQ900      0.1010
      4  C3        16.4330   16.9180   21.0770 C.2   900  AIQ900      0.1401
      5  N3        15.5010   16.7080   22.0600 N.2   900  AIQ900     -0.3286
      6  C8        15.7260   16.8550   23.3340 C.1   900  AIQ900      0.2512
      7  N2        14.7460   16.6260   24.1880 N.pl3 900  AIQ900     -0.0226
      8  N1        16.9230   17.2350   23.7910 N.2   900  AIQ900     -0.2537
      9  C7        17.9550   17.4860   22.9740 C.1   900  AIQ900      0.2018
     10  O1        19.0470   17.8380   23.3850 O.2   900  AIQ900     -0.2127
     11  C4        17.7530   17.3350   21.4630 C.3   900  AIQ900      0.1948
     12  C5        18.7550   17.5760   20.4740 C.2   900  AIQ900      0.0163
     13  C6        18.4340   17.4000   19.1020 C.2   900  AIQ900      0.0861
     14  N4        19.3640   17.6370   18.1490 N.pl3 900  AIQ900     -0.1284
     15  S1        14.6000   14.6760   18.4390 S.3   900  AIQ900     -0.0376
     16  C10       14.2310   15.2820   16.7880 C.1   900  AIQ900      0.0645
     17  N5        15.0760   16.0320   16.0590 N.2   900  AIQ900     -0.1853
     18  N6        13.1890   15.1010   16.1020 N.2   900  AIQ900     -0.1853
     19  C11       14.4480   16.2820   14.8890 C.2   900  AIQ900      0.1315
     20  C12       13.2320   15.7310   14.8140 C.2   900  AIQ900      0.1315
@<TRIPOS>BOND
     1    20    19    2
     2    20    18    1
     3    19    17    1
     4    17    16    2
     5    18    16    2
     6    16    15    1
     7    14    13    1
     8    15     3    1
     9     1    13    1
    10     1     2    2
    11    13    12    2
    12     3     2    1
    13     2     4    1
    14    12    11    1
    15     4    11    1
    16     4     5    2
    17    11     9    1
    18     5     6    2
    19     9    10    2
    20     9     8    2
    21     6     8    2
    22     6     7    1
