@<TRIPOS>MOLECULE
1q65_BHB_A_1.pdb
 20 21 0 0 0
SMALL
GASTEIGER

@<TRIPOS>ATOM
      1  N4        19.2610   17.9060   18.1000 N.pl3 900  BHB900     -0.1284
      2  C6        18.2250   17.6020   19.1760 C.2   900  BHB900      0.0861
      3  C1        16.9120   17.2020   18.7910 C.2   900  BHB900     -0.0004
      4  C2        15.9230   16.9120   19.7760 C.3   900  BHB900      0.0882
      5  C3        16.2580   17.0290   21.1630 C.2   900  BHB900      0.1391
      6  N3        15.3450   16.7670   22.1520 N.2   900  BHB900     -0.3286
      7  C8        15.6070   16.8610   23.4160 C.1   900  BHB900      0.2515
      8  N2        14.7070   16.6060   24.3190 N.pl3 900  BHB900     -0.0226
      9  N1        16.8110   17.2230   23.8670 N.2   900  BHB900     -0.2501
     10  C7        17.8300   17.5180   23.0530 C.1   900  BHB900      0.2180
     11  O1        18.9310   17.8490   23.4760 O.2   900  BHB900     -0.2085
     12  C41       17.5880   17.4310   21.5430 C.2   900  BHB900      0.1233
     13  C5        18.5710   17.7180   20.5530 C.2   900  BHB900      0.0327
     14  C9        14.5240   16.4780   19.3280 C.3   900  BHB900      0.0691
     15  S1        13.4120   17.9120   19.4250 S.3   900  BHB900     -0.1380
     16  C16       12.6820   17.6940   17.7760 C.3   900  BHB900      0.0749
     17  C17       13.6850   18.0380   16.6640 C.3   900  BHB900      0.0839
     18  N18       13.1250   17.7380   15.3250 N.3   900  BHB900     -0.2695
     19  C20       14.2110   17.6560   14.3270 C.3   900  BHB900      0.0897
     20  C19       12.1320   18.7530   14.9060 C.3   900  BHB900      0.0897
@<TRIPOS>BOND
     1    19    18    1
     2    20    18    1
     3    18    17    1
     4    17    16    1
     5    16    15    1
     6     1     2    1
     7     3     2    2
     8     3     4    1
     9     2    13    1
    10    14    15    1
    11    14     4    1
    12     4     5    1
    13    13    12    2
    14     5    12    1
    15     5     6    2
    16    12    10    1
    17     6     7    2
    18    10    11    2
    19    10     9    2
    20     7     9    2
    21     7     8    1
