@<TRIPOS>MOLECULE
1q66_KMB_A_1.pdb
 22 24 0 0 0
SMALL
GASTEIGER

@<TRIPOS>ATOM
      1  C4        19.2550   17.8470   17.4810 C.3   900  KMB900      0.1180
      2  N4        19.0780   19.4040   17.2740 N.3   900  KMB900     -0.1307
      3  C6        18.3020   17.5100   18.6160 C.3   900  KMB900      0.0636
      4  C1        16.9980   17.0170   18.3200 C.2   900  KMB900     -0.0214
      5  C2        16.0950   16.7000   19.3720 C.2   900  KMB900      0.0164
      6  C3        16.4940   16.8800   20.7290 C.2   900  KMB900      0.1532
      7  N3        15.6510   16.5910   21.7690 N.2   900  KMB900     -0.3248
      8  C8        15.9740   16.7410   23.0140 C.1   900  KMB900      0.2518
      9  N2        15.1410   16.4560   23.9720 N.pl3 900  KMB900     -0.0226
     10  N1        17.1700   17.1930   23.3860 N.2   900  KMB900     -0.2501
     11  C7        18.1220   17.5250   22.5120 C.1   900  KMB900      0.2179
     12  O1        19.2130   17.9370   22.8710 O.2   900  KMB900     -0.2085
     13  C41       17.8090   17.3760   21.0200 C.2   900  KMB900      0.1217
     14  C5        18.7170   17.6910   19.9680 C.2   900  KMB900     -0.0053
     15  C9        14.7080   16.1680   19.0400 C.3   900  KMB900      0.0907
     16  S1        13.5890   17.5870   18.7890 S.3   900  KMB900     -0.1088
     17  C10       12.0330   16.7370   18.5970 C.ar  900  KMB900      0.0255
     18  C11       11.9860   15.4150   18.0460 C.ar  900  KMB900      0.0062
     19  C12       10.7420   14.7420   17.8980 C.ar  900  KMB900      0.0005
     20  C13        9.5400   15.3860   18.2950 C.ar  900  KMB900      0.0000
     21  C14        9.5790   16.7020   18.8410 C.ar  900  KMB900      0.0005
     22  C15       10.8240   17.3750   18.9920 C.ar  900  KMB900      0.0062
@<TRIPOS>BOND
     1     2     1    1
     2     1     3    1
     3    19    18   ar
     4    19    20   ar
     5    18    17   ar
     6    20    21   ar
     7     4     3    1
     8     4     5    2
     9    17    16    1
    10    17    22   ar
    11     3    14    1
    12    16    15    1
    13    21    22   ar
    14    15     5    1
    15     5     6    1
    16    14    13    2
    17     6    13    1
    18     6     7    2
    19    13    11    1
    20     7     8    2
    21    11    12    2
    22    11    10    2
    23     8    10    2
    24     8     9    1
