@<TRIPOS>MOLECULE
1q6c_GLC_A_1.pdb
 11 11 0 0 0
SMALL
GASTEIGER

@<TRIPOS>ATOM
      1  C1         1.0890   29.4870   21.9800 C.3   496  GLC496      0.1777
      2  C2         1.8720   28.2030   21.6940 C.3   496  GLC496      0.2141
      3  C3         3.2640   28.5750   21.1090 C.3   496  GLC496      0.2173
      4  C4         3.1230   29.4830   19.8330 C.3   496  GLC496      0.2142
      5  C5         2.2410   30.7150   20.1290 C.3   496  GLC496      0.1810
      6  C6         1.8680   31.4970   18.8690 C.3   496  GLC496      0.2141
      7  O2         2.0100   27.4720   22.8930 O.3   496  GLC496     -0.2176
      8  O3         3.9520   27.3990   20.7890 O.3   496  GLC496     -0.2175
      9  O4         4.4070   29.9320   19.4250 O.3   496  GLC496     -0.2176
     10  O5         1.0050   30.3000   20.7590 O.3   496  GLC496     -0.3481
     11  O6         1.1870   30.6730   17.9450 O.3   496  GLC496     -0.2176
@<TRIPOS>BOND
     1    11     6    1
     2     6     5    1
     3     9     4    1
     4     4     5    1
     5     4     3    1
     6     5    10    1
     7    10     1    1
     8     8     3    1
     9     3     2    1
    10     2     1    1
    11     2     7    1
