@<TRIPOS>MOLECULE
1q6d_GLC_A_1.pdb
 11 11 0 0 0
SMALL
GASTEIGER

@<TRIPOS>ATOM
      1  C1         1.2160   29.5930   22.2490 C.3   496  GLC496      0.1777
      2  C2         1.9790   28.2990   21.9650 C.3   496  GLC496      0.2141
      3  C3         3.3680   28.6330   21.3970 C.3   496  GLC496      0.2173
      4  C4         3.2150   29.4900   20.1330 C.3   496  GLC496      0.2142
      5  C5         2.3830   30.7370   20.4390 C.3   496  GLC496      0.1810
      6  C6         2.0680   31.5250   19.1830 C.3   496  GLC496      0.2141
      7  O2         2.1110   27.5520   23.1640 O.3   496  GLC496     -0.2176
      8  O3         4.0630   27.4330   21.0910 O.3   496  GLC496     -0.2175
      9  O4         4.4940   29.8830   19.6470 O.3   496  GLC496     -0.2176
     10  O5         1.1170   30.3730   21.0480 O.3   496  GLC496     -0.3481
     11  O6         1.2940   30.7590   18.2690 O.3   496  GLC496     -0.2176
@<TRIPOS>BOND
     1    11     6    1
     2     6     5    1
     3     9     4    1
     4     4     5    1
     5     4     3    1
     6     5    10    1
     7    10     1    1
     8     8     3    1
     9     3     2    1
    10     2     1    1
    11     2     7    1
