@<TRIPOS>MOLECULE
1q6d_BGC_A_1.pdb
 12 12 0 0 0
SMALL
GASTEIGER

@<TRIPOS>ATOM
      1  C2        -3.3780   31.0260   33.6790 C.3   499  BGC499      0.2434
      2  C3        -2.5500   31.7020   32.5830 C.3   499  BGC499      0.2199
      3  C4        -1.2910   30.8850   32.2850 C.3   499  BGC499      0.2144
      4  C5        -1.6820   29.4350   31.9610 C.3   499  BGC499      0.1836
      5  C6        -0.4820   28.5340   31.7420 C.3   499  BGC499      0.2142
      6  C1        -3.6710   29.5750   33.2910 C.3   499  BGC499      0.3024
      7  O1        -4.3360   28.9420   34.3280 O.3   499  BGC499     -0.1869
      8  O2        -4.6000   31.7260   33.8560 O.3   499  BGC499     -0.2148
      9  O3        -2.1860   33.0110   32.9940 O.3   499  BGC499     -0.2174
     10  O4        -0.5920   31.4670   31.1660 O.3   499  BGC499     -0.2176
     11  O5        -2.4450   28.8700   33.0510 O.3   499  BGC499     -0.3236
     12  O6        -0.8860   27.2040   31.4470 O.3   499  BGC499     -0.2176
@<TRIPOS>BOND
     1    10     3    1
     2    12     5    1
     3     5     4    1
     4     4     3    1
     5     4    11    1
     6     3     2    1
     7     2     9    1
     8     2     1    1
     9    11     6    1
    10     6     1    1
    11     6     7    1
    12     1     8    1
