@<TRIPOS>MOLECULE
1q6e_GLC_A_1.pdb
 11 11 0 0 0
SMALL
GASTEIGER

@<TRIPOS>ATOM
      1  C1         1.1810   29.6250   22.0700 C.3   496  GLC496      0.1777
      2  C2         1.9370   28.3340   21.7420 C.3   496  GLC496      0.2141
      3  C3         3.3140   28.6960   21.1890 C.3   496  GLC496      0.2173
      4  C4         3.1440   29.5620   19.9390 C.3   496  GLC496      0.2142
      5  C5         2.3180   30.8070   20.2760 C.3   496  GLC496      0.1810
      6  C6         1.9890   31.6350   19.0430 C.3   496  GLC496      0.2141
      7  O2         2.0800   27.5400   22.9110 O.3   496  GLC496     -0.2176
      8  O3         4.0330   27.5160   20.8660 O.3   496  GLC496     -0.2175
      9  O4         4.4220   29.9480   19.4490 O.3   496  GLC496     -0.2176
     10  O5         1.0600   30.4300   20.8940 O.3   496  GLC496     -0.3481
     11  O6         1.2480   30.8840   18.0880 O.3   496  GLC496     -0.2176
@<TRIPOS>BOND
     1    11     6    1
     2     6     5    1
     3     9     4    1
     4     4     5    1
     5     4     3    1
     6     5    10    1
     7     8     3    1
     8    10     1    1
     9     3     2    1
    10     2     1    1
    11     2     7    1
