@<TRIPOS>MOLECULE
1q6f_GLC_A_1.pdb
 12 12 0 0 0
SMALL
GASTEIGER

@<TRIPOS>ATOM
      1  C1         0.7500   33.2310   26.1530 C.3   1497  GLC1497     0.3024
      2  C2        -0.3600   32.2890   25.6730 C.3   1497  GLC1497     0.2434
      3  C3         0.2350   31.1360   24.8630 C.3   1497  GLC1497     0.2199
      4  C4         1.1440   31.6650   23.7430 C.3   1497  GLC1497     0.2144
      5  C5         2.1780   32.6360   24.3280 C.3   1497  GLC1497     0.1836
      6  C6         3.0630   33.2750   23.2720 C.3   1497  GLC1497     0.2142
      7  O1         1.6070   32.5510   27.0030 O.3   1497  GLC1497    -0.1869
      8  O2        -1.0600   31.7660   26.7930 O.3   1497  GLC1497    -0.2148
      9  O3        -0.8110   30.3550   24.3020 O.3   1497  GLC1497    -0.2174
     10  O4         1.8350   30.5620   23.1260 O.3   1497  GLC1497    -0.2176
     11  O5         1.5150   33.7060   25.0360 O.3   1497  GLC1497    -0.3236
     12  O6         2.2920   33.9600   22.2960 O.3   1497  GLC1497    -0.2176
@<TRIPOS>BOND
     1    12     6    1
     2    10     4    1
     3     6     5    1
     4     4     5    1
     5     4     3    1
     6     9     3    1
     7     5    11    1
     8     3     2    1
     9    11     1    1
    10     2     1    1
    11     2     8    1
    12     1     7    1
