@<TRIPOS>MOLECULE
1q6f_BGC_A_1.pdb
 11 11 0 0 0
SMALL
GASTEIGER

@<TRIPOS>ATOM
      1  C2         1.9720   28.6130   21.7720 C.3   496  BGC496      0.2141
      2  C3         3.3250   29.0090   21.1690 C.3   496  BGC496      0.2173
      3  C4         3.1190   29.9120   19.9430 C.3   496  BGC496      0.2142
      4  C5         2.2340   31.1100   20.3040 C.3   496  BGC496      0.1810
      5  C6         1.8520   31.9620   19.1020 C.3   496  BGC496      0.2141
      6  C1         1.1710   29.8730   22.1010 C.3   496  BGC496      0.1777
      7  O2         2.1730   27.8570   22.9560 O.3   496  BGC496     -0.2176
      8  O3         4.0440   27.8430   20.7980 O.3   496  BGC496     -0.2175
      9  O4         4.3780   30.3830   19.4820 O.3   496  BGC496     -0.2176
     10  O5         1.0050   30.6670   20.9220 O.3   496  BGC496     -0.3481
     11  O6         1.3030   31.1740   18.0530 O.3   496  BGC496     -0.2176
@<TRIPOS>BOND
     1    11     5    1
     2     5     4    1
     3     9     3    1
     4     3     4    1
     5     3     2    1
     6     4    10    1
     7     8     2    1
     8    10     6    1
     9     2     1    1
    10     1     6    1
    11     1     7    1
