@<TRIPOS>MOLECULE
1q6g_BGC_A_1.pdb
 12 12 0 0 0
SMALL
GASTEIGER

@<TRIPOS>ATOM
      1  C2        -7.6200   28.2800   34.3300 C.3   499  BGC499      0.2434
      2  C3        -6.5330   29.2270   33.8080 C.3   499  BGC499      0.2199
      3  C4        -5.1900   28.4960   33.7080 C.3   499  BGC499      0.2144
      4  C5        -5.3390   27.2000   32.9040 C.3   499  BGC499      0.1836
      5  C6        -4.0590   26.3840   32.8760 C.3   499  BGC499      0.2142
      6  C1        -7.6530   26.9960   33.4870 C.3   499  BGC499      0.3024
      7  O1        -8.5670   26.1020   34.0240 O.3   499  BGC499     -0.1869
      8  O2        -8.8850   28.9280   34.2710 O.3   499  BGC499     -0.2148
      9  O3        -6.4070   30.3400   34.6840 O.3   499  BGC499     -0.2174
     10  O4        -4.2230   29.3490   33.0720 O.3   499  BGC499     -0.2176
     11  O5        -6.3620   26.3680   33.4930 O.3   499  BGC499     -0.3236
     12  O6        -3.7920   25.8940   31.5720 O.3   499  BGC499     -0.2176
@<TRIPOS>BOND
     1    12     5    1
     2     5     4    1
     3     4    11    1
     4     4     3    1
     5    10     3    1
     6     6    11    1
     7     6     7    1
     8     6     1    1
     9     3     2    1
    10     2     1    1
    11     2     9    1
    12     8     1    1
