@<TRIPOS>MOLECULE
1q6g_GLC_A_1.pdb
 11 11 0 0 0
SMALL
GASTEIGER

@<TRIPOS>ATOM
      1  C1         1.1870   29.7750   22.1500 C.3   496  GLC496      0.1777
      2  C2         1.9250   28.4720   21.8370 C.3   496  GLC496      0.2141
      3  C3         3.3150   28.8160   21.2980 C.3   496  GLC496      0.2173
      4  C4         3.1750   29.6730   20.0350 C.3   496  GLC496      0.2142
      5  C5         2.3450   30.9280   20.3450 C.3   496  GLC496      0.1810
      6  C6         2.0200   31.7400   19.1030 C.3   496  GLC496      0.2141
      7  O2         2.0370   27.6810   23.0130 O.3   496  GLC496     -0.2176
      8  O3         4.0400   27.6270   21.0110 O.3   496  GLC496     -0.2175
      9  O4         4.4660   30.0550   19.5680 O.3   496  GLC496     -0.2176
     10  O5         1.0830   30.5740   20.9640 O.3   496  GLC496     -0.3481
     11  O6         1.2280   30.9970   18.1870 O.3   496  GLC496     -0.2176
@<TRIPOS>BOND
     1    11     6    1
     2     6     5    1
     3     9     4    1
     4     4     5    1
     5     4     3    1
     6     5    10    1
     7    10     1    1
     8     8     3    1
     9     3     2    1
    10     2     1    1
    11     2     7    1
