@<TRIPOS>MOLECULE
1q6j_335_A_1.pdb
 44 48 0 0 0
SMALL
GASTEIGER

@<TRIPOS>ATOM
      1  C32        0.4820   71.4830   69.2300 C.3   301  335301      0.0473
      2  C33        1.3310   72.4560   68.3620 C.ar  301  335301     -0.0205
      3  C4A        0.6810   73.2000   67.3600 C.ar  301  335301     -0.0043
      4  C4B        2.7520   72.6320   68.5170 C.ar  301  335301     -0.0043
      5  C5A        1.3640   74.0790   66.5340 C.ar  301  335301      0.0011
      6  C5B        3.4480   73.5260   67.6790 C.ar  301  335301      0.0011
      7  C36        2.7590   74.2570   66.6840 C.ar  301  335301      0.0444
      8  C37        3.4560   75.2230   65.7700 C.3   301  335301      0.3249
      9  F38        4.5250   75.6610   66.4490 F     301  335301     -0.1920
     10  F39        2.6210   76.2410   65.5850 F     301  335301     -0.1920
     11  P40        3.9410   74.6300   64.2370 P.3   301  335301      0.1831
     12  O41        2.7150   74.1080   63.4420 O.3   301  335301     -0.3533
     13  O42        4.8420   73.5320   64.4310 O.3   301  335301     -0.3533
     14  O43        4.5860   75.7480   63.4380 O.2   301  335301     -0.4543
     15  C1        -0.0220   72.0300   70.6650 C.3   301  335301      0.0928
     16  C12       -0.8750   73.3690   70.5080 C.3   301  335301      0.0473
     17  C13       -2.0620   73.3090   69.5600 C.ar  301  335301     -0.0205
     18  C1A       -2.2070   74.3620   68.5890 C.ar  301  335301     -0.0043
     19  C1B       -3.0570   72.2710   69.5830 C.ar  301  335301     -0.0043
     20  C2A       -3.2710   74.3890   67.6930 C.ar  301  335301      0.0011
     21  C2B       -4.1520   72.2930   68.6580 C.ar  301  335301      0.0011
     22  C16       -4.2600   73.3680   67.7000 C.ar  301  335301      0.0444
     23  C17       -5.4340   73.4420   66.7040 C.3   301  335301      0.3249
     24  F18       -6.1310   72.3100   66.7870 F     301  335301     -0.1920
     25  F19       -4.9840   73.5090   65.4310 F     301  335301     -0.1920
     26  P20       -6.4920   74.7070   67.0300 P.3   301  335301      0.1831
     27  O21       -5.8660   76.0850   66.6980 O.3   301  335301     -0.3533
     28  O22       -6.8410   74.6890   68.4930 O.3   301  335301     -0.3533
     29  O23       -7.7320   74.5580   66.1800 O.2   301  335301     -0.4543
     30  C51        1.2510   72.3320   71.6180 C.ar  301  335301     -0.0070
     31  C6A        2.1790   71.2970   71.9600 C.ar  301  335301     -0.0030
     32  C6B        1.4730   73.6660   72.1620 C.ar  301  335301     -0.0030
     33  C55        3.4780   72.9190   73.3360 C.ar  301  335301     -0.0000
     34  C53        3.2830   71.5720   72.8050 C.ar  301  335301     -0.0003
     35  C54        2.5660   73.9590   73.0050 C.ar  301  335301     -0.0003
     36  N61       -0.8100   70.8030   71.1680 N.3   301  335301     -0.1589
     37  N62       -1.2360   69.6580   70.5090 N.pl3 301  335301     -0.0623
     38  N63       -1.8440   68.9850   71.4840 N.2   301  335301     -0.1493
     39  C7A       -1.8960   69.5190   72.7480 C.2   301  335301      0.0996
     40  C7B       -1.1940   70.8120   72.6240 C.3   301  335301      0.1427
     41  C8A       -2.4300   69.1020   73.9920 C.2   301  335301      0.0181
     42  C8B       -1.0610   71.6540   73.8130 C.2   301  335301     -0.0027
     43  C9A       -2.2860   69.9510   75.1510 C.2   301  335301      0.0010
     44  C9B       -1.5980   71.2350   75.0590 C.2   301  335301     -0.0028
@<TRIPOS>BOND
     1    14    11    2
     2    12    11    1
     3    11    13    1
     4    11     8    1
     5    25    23    1
     6    10     8    1
     7     8     9    1
     8     8     7    1
     9    29    26    2
    10     5     7   ar
    11     5     3   ar
    12     7     6   ar
    13    27    26    1
    14    23    24    1
    15    23    26    1
    16    23    22    1
    17    26    28    1
    18     3     2   ar
    19     6     4   ar
    20    20    22   ar
    21    20    18   ar
    22    22    21   ar
    23     2     4   ar
    24     2     1    1
    25    18    17   ar
    26    21    19   ar
    27     1    15    1
    28    17    19   ar
    29    17    16    1
    30    16    15    1
    31    37    36    1
    32    37    38    1
    33    15    36    1
    34    15    30    1
    35    36    40    1
    36    38    39    2
    37    30    31   ar
    38    30    32   ar
    39    31    34   ar
    40    32    35   ar
    41    40    39    1
    42    40    42    1
    43    39    41    1
    44    34    33   ar
    45    35    33   ar
    46    42    44    2
    47    41    43    2
    48    44    43    1
