@<TRIPOS>MOLECULE
1q6k_TCO_A_1.pdb
 21 21 0 0 0
SMALL
GASTEIGER

@<TRIPOS>ATOM
      1  N         74.0060   -9.5770  134.8660 N.am    0  TCO0       -0.2715
      2  CA        74.6420  -10.5640  133.9230 C.3     0  TCO0        0.0854
      3  C         76.0590  -10.0470  133.4990 C.2     0  TCO0        0.1408
      4  O         77.1530  -10.6140  133.6790 O.2     0  TCO0       -0.2991
      5  CG2       73.4450  -12.1480  132.2310 C.3     0  TCO0       -0.0023
      6  CD2       72.9940  -12.4000  130.7750 C.3     0  TCO0       -0.0003
      7  CE        72.2040  -11.2040  130.2010 C.3     0  TCO0       -0.0000
      8  CD1       73.0620   -9.9340  130.1850 C.3     0  TCO0       -0.0003
      9  CG1       73.9480   -9.7260  131.4440 C.3     0  TCO0       -0.0023
     10  CB        73.6970  -10.6950  132.6510 C.3     0  TCO0       -0.0012
     11  C1        73.2600   -9.8590  135.9960 C.2     0  TCO0        0.4014
     12  O1        73.2230  -10.9600  136.5700 O.2     0  TCO0       -0.2264
     13  O2        72.5150   -8.7540  136.4410 O.3     0  TCO0       -0.4419
     14  C4        71.2700   -7.1310  137.6900 C.3     0  TCO0        0.0437
     15  C3        71.8710   -8.5670  137.7430 C.3     0  TCO0        0.1378
     16  C6        72.9250   -8.5410  138.8700 C.3     0  TCO0        0.0437
     17  C5        70.7390   -9.6040  137.9350 C.3     0  TCO0        0.0437
     18  HN        73.7780   -8.6330  134.5210 H       0  TCO0        0.1527
     19  HA        74.7620  -11.5330  134.4510 H       0  TCO0        0.0578
     20  HC        76.1060   -9.0600  133.0070 H       0  TCO0        0.1046
     21  HB        72.6760  -10.3830  132.9650 H       0  TCO0        0.0335
@<TRIPOS>BOND
     1     8     7    1
     2     8     9    1
     3     7     6    1
     4     6     5    1
     5     9    10    1
     6     5    10    1
     7    10    21    1
     8    10     2    1
     9    20     3    1
    10     3     4    2
    11     3     2    1
    12     2    19    1
    13     2     1    1
    14    18     1    1
    15     1    11   am
    16    11    13    1
    17    11    12    2
    18    13    15    1
    19    14    15    1
    20    15    17    1
    21    15    16    1
