@<TRIPOS>MOLECULE
1q6l_TX4_A_1.pdb
 14 13 0 0 0
SMALL
GASTEIGER

@<TRIPOS>ATOM
      1  O7        63.9530   23.5270   24.9150 O.3   5301  TX45301    -0.1145
      2  P         65.2280   23.2800   24.1210 P.3   5301  TX45301     0.5327
      3  O5        65.3550   24.2820   23.0080 O.2   5301  TX45301    -0.2224
      4  O6        66.4450   23.0510   25.0100 O.3   5301  TX45301    -0.1145
      5  O4        64.9270   21.9190   23.2790 O.3   5301  TX45301    -0.2674
      6  C4        64.8240   20.6850   23.9640 C.3   5301  TX45301     0.1895
      7  C3        63.3450   20.3180   24.0240 C.3   5301  TX45301     0.2182
      8  O3        63.2440   19.0330   24.6920 O.3   5301  TX45301    -0.2172
      9  C2        62.7070   20.3450   22.6180 C.3   5301  TX45301     0.2291
     10  O2        63.3110   19.4270   21.6920 O.3   5301  TX45301    -0.2134
     11  C1        61.2680   19.9640   22.7170 C.2   5301  TX45301     0.1201
     12  O1        60.9450   18.6930   22.5290 O.2   5301  TX45301    -0.5373
     13  N         60.3980   20.8320   22.9180 N.am  5301  TX45301    -0.2003
     14  ON        59.0860   20.3070   22.9850 O.3   5301  TX45301    -0.4026
@<TRIPOS>BOND
     1    10     9    1
     2    12    11    2
     3     9    11    1
     4     9     7    1
     5    11    13   am
     6    13    14    1
     7     3     2    2
     8     5     6    1
     9     5     2    1
    10     6     7    1
    11     7     8    1
    12     2     1    1
    13     2     4    1
