@<TRIPOS>MOLECULE
1q6m_P27_A_1.pdb
 46 50 0 0 0
SMALL
GASTEIGER

@<TRIPOS>ATOM
      1  C32        0.3450   71.4690   69.2010 C.3   301  P27301      0.0473
      2  C33        1.1890   72.4930   68.3710 C.ar  301  P27301     -0.0205
      3  C4A        0.5840   73.2230   67.3330 C.ar  301  P27301     -0.0043
      4  C4B        2.6040   72.6640   68.5580 C.ar  301  P27301     -0.0043
      5  C5A        1.3100   74.0850   66.5000 C.ar  301  P27301      0.0011
      6  C5B        3.3530   73.5340   67.7150 C.ar  301  P27301      0.0011
      7  C36        2.7110   74.2470   66.6740 C.ar  301  P27301      0.0444
      8  C37        3.4640   75.1940   65.7870 C.3   301  P27301      0.3249
      9  F38        4.5420   75.6280   66.4430 F     301  P27301     -0.1920
     10  F39        2.6770   76.2610   65.6180 F     301  P27301     -0.1920
     11  P40        3.9210   74.6910   64.2910 P.3   301  P27301      0.1831
     12  O41        2.6940   74.1580   63.4880 O.2   301  P27301     -0.4543
     13  O42        4.9390   73.5830   64.3840 O.3   301  P27301     -0.3533
     14  O43        4.4690   75.9120   63.5730 O.3   301  P27301     -0.3533
     15  C1        -0.1280   72.0310   70.6560 C.3   301  P27301      0.0929
     16  C12       -0.9730   73.3880   70.5750 C.3   301  P27301      0.0473
     17  C13       -2.1400   73.3220   69.5640 C.ar  301  P27301     -0.0205
     18  C1A       -2.2780   74.3750   68.6090 C.ar  301  P27301     -0.0043
     19  C1B       -3.1460   72.3060   69.5650 C.ar  301  P27301     -0.0043
     20  C2A       -3.3500   74.4380   67.6960 C.ar  301  P27301      0.0011
     21  C2B       -4.2410   72.3650   68.6320 C.ar  301  P27301      0.0011
     22  C16       -4.3400   73.4560   67.6890 C.ar  301  P27301      0.0444
     23  C17       -5.5170   73.5620   66.7090 C.3   301  P27301      0.3249
     24  F18       -6.2100   72.4160   66.6900 F     301  P27301     -0.1920
     25  F19       -5.0490   73.7150   65.4950 F     301  P27301     -0.1920
     26  P20       -6.5570   74.7640   67.0440 P.3   301  P27301      0.1831
     27  O21       -5.9560   76.1320   66.6610 O.3   301  P27301     -0.3533
     28  O22       -6.8260   74.7660   68.5370 O.3   301  P27301     -0.3533
     29  O23       -7.8300   74.5380   66.2740 O.2   301  P27301     -0.4543
     30  C51        1.1500   72.3360   71.5740 C.ar  301  P27301     -0.0047
     31  C6A        2.0460   71.3100   71.9610 C.ar  301  P27301      0.0290
     32  C6B        1.4120   73.6580   72.0280 C.ar  301  P27301     -0.0005
     33  C55        3.4070   72.9260   73.1980 C.ar  301  P27301      0.1674
     34  C53        3.1630   71.6020   72.7640 C.ar  301  P27301      0.1671
     35  C54        2.5430   73.9620   72.8410 C.ar  301  P27301      0.0317
     36  F56        3.9900   70.6220   73.1120 F     301  P27301     -0.2018
     37  F57        4.4640   73.2140   73.9500 F     301  P27301     -0.2018
     38  N61       -0.9550   70.8680   71.1870 N.3   301  P27301     -0.1589
     39  N62       -1.5100   69.7660   70.5690 N.pl3 301  P27301     -0.0623
     40  N63       -2.0880   69.1620   71.5900 N.2   301  P27301     -0.1493
     41  C7A       -1.9990   69.7030   72.8310 C.2   301  P27301      0.0996
     42  C7B       -1.2130   70.9110   72.6310 C.3   301  P27301      0.1427
     43  C8A       -2.4570   69.3530   74.0780 C.2   301  P27301      0.0181
     44  C8B       -0.9300   71.7240   73.7510 C.2   301  P27301     -0.0027
     45  C9A       -2.1650   70.1700   75.1860 C.2   301  P27301      0.0010
     46  C9B       -1.4010   71.3530   75.0260 C.2   301  P27301     -0.0028
@<TRIPOS>BOND
     1    12    11    2
     2    14    11    1
     3    11    13    1
     4    11     8    1
     5    25    23    1
     6    10     8    1
     7     8     9    1
     8     8     7    1
     9    29    26    2
    10     5     7   ar
    11     5     3   ar
    12    27    26    1
    13     7     6   ar
    14    24    23    1
    15    23    26    1
    16    23    22    1
    17    26    28    1
    18     3     2   ar
    19    22    20   ar
    20    22    21   ar
    21    20    18   ar
    22     6     4   ar
    23     2     4   ar
    24     2     1    1
    25    18    17   ar
    26    21    19   ar
    27     1    15    1
    28    17    19   ar
    29    17    16    1
    30    39    38    1
    31    39    40    1
    32    16    15    1
    33    15    38    1
    34    15    30    1
    35    38    42    1
    36    30    31   ar
    37    30    32   ar
    38    40    41    2
    39    31    34   ar
    40    32    35   ar
    41    42    41    1
    42    42    44    1
    43    34    36    1
    44    34    33   ar
    45    41    43    1
    46    35    33   ar
    47    33    37    1
    48    44    46    2
    49    43    45    2
    50    46    45    1
