@<TRIPOS>MOLECULE
1q6n_P90_A_1.pdb
 42 47 0 0 0
SMALL
GASTEIGER

@<TRIPOS>ATOM
      1  C1         7.0290   42.3610   17.0280 C.3   801  P90801      0.1388
      2  C32        6.4790   43.0430   18.4250 C.3   801  P90801      0.0540
      3  C33        7.4780   43.7760   19.3290 C.ar  801  P90801     -0.0201
      4  C4A        8.1790   43.0220   20.3570 C.ar  801  P90801     -0.0043
      5  C4B        7.7540   45.1900   19.1850 C.ar  801  P90801     -0.0043
      6  C5A        9.1270   43.6360   21.2070 C.ar  801  P90801      0.0011
      7  C5B        8.7160   45.8130   20.0540 C.ar  801  P90801      0.0011
      8  C36        9.4010   45.0430   21.0580 C.ar  801  P90801      0.0444
      9  C37       10.4320   45.6690   21.9330 C.3   801  P90801      0.3249
     10  F38       11.0020   46.7030   21.1860 F     801  P90801     -0.1920
     11  F39       11.4320   44.7330   22.2100 F     801  P90801     -0.1920
     12  P40        9.8290   46.3250   23.5680 P.3   801  P90801      0.1831
     13  O41        9.2160   45.1630   24.3080 O.3   801  P90801     -0.3533
     14  O42        8.8020   47.3810   23.3690 O.2   801  P90801     -0.4543
     15  O43       11.0560   46.8380   24.2700 O.3   801  P90801     -0.3533
     16  N61        5.8580   41.6430   16.3090 N.pl3 801  P90801     -0.1976
     17  N62        4.7000   41.3340   17.0700 N.pl3 801  P90801     -0.0441
     18  N63        3.8850   40.7130   16.1270 N.2   801  P90801     -0.1422
     19  C7A        4.3820   40.5920   14.8760 C.2   801  P90801      0.1161
     20  C7B        5.6540   41.2050   15.0190 C.2   801  P90801      0.0840
     21  C8A        3.9560   40.0600   13.6310 C.2   801  P90801      0.0178
     22  C8B        6.5620   41.2970   13.8590 C.2   801  P90801     -0.0037
     23  C9A        4.8400   40.1410   12.4800 C.2   801  P90801     -0.0197
     24  C9B        6.1410   40.7600   12.5900 C.3   801  P90801      0.0534
     25  C51        7.5730   43.5070   16.2000 C.2   801  P90801      0.1568
     26  S52        9.3040   43.7480   15.8590 S.3   801  P90801     -0.0559
     27  N53        6.8080   44.4460   15.6350 N.2   801  P90801     -0.3976
     28  C54        7.4640   45.4000   14.9090 C.2   801  P90801      0.1371
     29  C55        8.8950   45.1760   14.8990 C.2   801  P90801      0.0572
     30  C56        9.7590   46.0570   14.1800 C.2   801  P90801     -0.0123
     31  C57        9.2280   47.1870   13.4540 C.3   801  P90801      0.0527
     32  C58        7.8060   47.4220   13.4740 C.2   801  P90801     -0.0188
     33  C59        6.9290   46.5240   14.1960 C.2   801  P90801      0.0283
     34  C12        8.2220   41.3590   17.3700 C.3   801  P90801      0.0537
     35  C13        7.7800   40.3390   18.4120 C.2   801  P90801     -0.0240
     36  C14        8.6090   39.4800   18.9190 C.2   801  P90801     -0.0045
     37  C15        8.2150   38.4480   19.9210 C.ar  801  P90801     -0.0003
     38  C1A        9.2080   37.9510   20.8020 C.ar  801  P90801     -0.0000
     39  C1B        6.8700   37.9500   19.9880 C.ar  801  P90801     -0.0000
     40  C2A        8.8680   36.9440   21.7620 C.ar  801  P90801     -0.0000
     41  C2B        6.5280   36.9380   20.9540 C.ar  801  P90801     -0.0000
     42  C16        7.5290   36.4260   21.8450 C.ar  801  P90801     -0.0000
@<TRIPOS>BOND
     1    23    24    1
     2    23    21    2
     3    24    22    1
     4    31    32    1
     5    31    30    1
     6    32    33    2
     7    21    19    1
     8    22    20    2
     9    30    29    2
    10    33    28    1
    11    19    20    1
    12    19    18    2
    13    29    28    1
    14    29    26    1
    15    28    27    2
    16    20    16    1
    17    27    25    2
    18    26    25    1
    19    18    17    1
    20    25     1    1
    21    16     1    1
    22    16    17    1
    23     1    34    1
    24     1     2    1
    25    34    35    1
    26    35    36    2
    27     2     3    1
    28    36    37    1
    29     5     3   ar
    30     5     7   ar
    31     3     4   ar
    32    37    39   ar
    33    37    38   ar
    34    39    41   ar
    35     7     8   ar
    36     4     6   ar
    37    38    40   ar
    38    41    42   ar
    39     8     6   ar
    40     8     9    1
    41    10     9    1
    42    40    42   ar
    43     9    11    1
    44     9    12    1
    45    14    12    2
    46    12    15    1
    47    12    13    1
