@<TRIPOS>MOLECULE
1q6o_LG6_A_1.pdb
 17 16 0 0 0
SMALL
GASTEIGER

@<TRIPOS>ATOM
      1  C1        60.4850   20.5790   21.7760 C.3   7301  LG67301     0.2865
      2  O2A       58.3230   19.8810   22.3710 O.co2 7301  LG67301    -0.2427
      3  C2        59.2210   19.8170   21.5010 C.2   7301  LG67301     0.3973
      4  O2B       59.1410   19.1390   20.4520 O.co2 7301  LG67301    -0.2427
      5  O1        60.1850   21.8640   22.3300 O.3   7301  LG67301    -0.2080
      6  C3        61.3310   19.8060   22.7990 C.3   7301  LG67301     0.2260
      7  O3        61.1680   18.4000   22.6330 O.3   7301  LG67301    -0.2169
      8  C4        62.8020   20.2000   22.6690 C.3   7301  LG67301     0.2179
      9  C5        63.5510   20.1810   24.0190 C.3   7301  LG67301     0.2147
     10  O4        63.4350   19.3270   21.7340 O.3   7301  LG67301    -0.2175
     11  C6        65.0070   20.6060   23.8890 C.3   7301  LG67301     0.1892
     12  O5        63.4710   18.9130   24.6610 O.3   7301  LG67301    -0.2176
     13  P         65.3890   23.1970   24.0750 P.3   7301  LG67301     0.5327
     14  O6        65.1480   21.8480   23.2170 O.3   7301  LG67301    -0.2674
     15  O1P       64.1810   23.4570   24.9360 O.3   7301  LG67301    -0.1145
     16  O2P       65.6030   24.2310   22.9960 O.2   7301  LG67301    -0.2224
     17  O3P       66.6400   22.9740   24.9210 O.3   7301  LG67301    -0.1145
@<TRIPOS>BOND
     1     4     3   ar
     2     3     1    1
     3     3     2   ar
     4    10     8    1
     5     1     5    1
     6     1     6    1
     7     7     6    1
     8     8     6    1
     9     8     9    1
    10    16    13    2
    11    14    11    1
    12    14    13    1
    13    11     9    1
    14     9    12    1
    15    13    17    1
    16    13    15    1
