@<TRIPOS>MOLECULE
1q6p_213_A_1.pdb
 47 52 0 0 0
SMALL
GASTEIGER

@<TRIPOS>ATOM
      1  C1        37.4060   50.4060   55.8290 C.ar  801  213801     -0.0000
      2  C2        38.7260   50.1500   55.4080 C.ar  801  213801     -0.0003
      3  C3        39.0160   48.9640   54.6800 C.ar  801  213801     -0.0027
      4  C4        37.9810   48.0280   54.3760 C.ar  801  213801     -0.0038
      5  C5        36.6550   48.3200   54.8300 C.ar  801  213801     -0.0027
      6  C6        36.3660   49.4930   55.5420 C.ar  801  213801     -0.0003
      7  C10       36.8940   47.2430   50.2410 C.ar  801  213801     -0.0043
      8  C11       37.6780   47.8780   51.1530 C.ar  801  213801     -0.0202
      9  C12       37.4300   49.4520   51.3520 C.ar  801  213801     -0.0043
     10  C13       36.4610   50.0490   50.5990 C.ar  801  213801      0.0011
     11  C14       35.6790   49.3390   49.6630 C.ar  801  213801      0.0444
     12  C15       35.9030   47.9350   49.4930 C.ar  801  213801      0.0011
     13  C20       38.0700   43.5870   52.6790 C.ar  801  213801     -0.0042
     14  C21       37.0200   44.4470   52.5880 C.ar  801  213801     -0.0202
     15  C22       35.9070   44.1890   51.7500 C.ar  801  213801     -0.0042
     16  C23       35.9220   42.9790   50.9950 C.ar  801  213801     -0.0003
     17  C24       36.9920   42.0680   51.0670 C.ar  801  213801     -0.0000
     18  C25       38.0550   42.3920   51.9180 C.ar  801  213801     -0.0003
     19  C30       38.3550   46.6760   53.5210 C.3   801  213801      0.1057
     20  N31       39.5090   45.9670   54.1900 N.pl3 801  213801     -0.2007
     21  C32       37.0120   45.8140   53.4150 C.3   801  213801      0.0509
     22  C35       38.8370   47.1500   52.0620 C.3   801  213801      0.0509
     23  C40       40.6250   44.6940   58.0490 C.2   801  213801     -0.0197
     24  C41       41.3860   44.5120   56.8590 C.2   801  213801      0.0178
     25  C42       40.9040   44.9820   55.6630 C.2   801  213801      0.1161
     26  C43       39.6180   45.6530   55.5750 C.2   801  213801      0.0839
     27  C44       38.8710   45.8350   56.7580 C.2   801  213801     -0.0037
     28  C45       39.3660   45.3530   57.9980 C.3   801  213801      0.0534
     29  N46       41.3480   44.9830   54.3780 N.2   801  213801     -0.1422
     30  N47       40.5790   45.5490   53.4430 N.pl3 801  213801     -0.0442
     31  C52       34.6600   49.9300   48.8660 C.3   801  213801      0.3249
     32  F53       34.0550   50.9200   49.4420 F     801  213801     -0.1920
     33  F54       33.6700   48.9710   48.6000 F     801  213801     -0.1920
     34  P55       35.0940   50.4810   47.1570 P.3   801  213801      0.1831
     35  O56       36.1070   51.5540   47.2720 O.3   801  213801     -0.3533
     36  O57       33.8580   51.0280   46.5320 O.3   801  213801     -0.3533
     37  O58       35.5520   49.1990   46.4150 O.2   801  213801     -0.4543
     38  C61       36.8620   40.7680   50.1810 C.ar  801  213801      0.0001
     39  C62       37.1780   39.5420   50.8470 C.ar  801  213801      0.0027
     40  C63       37.0850   38.2910   50.1580 C.ar  801  213801      0.0288
     41  C64       36.6770   38.2640   48.8110 C.ar  801  213801      0.0027
     42  C65       36.3630   39.4720   48.1480 C.ar  801  213801      0.0001
     43  C66       36.4590   40.6970   48.8330 C.ar  801  213801      0.0000
     44  P71       37.4680   36.6880   50.9560 P.3   801  213801      0.1395
     45  O72       38.4650   35.9520   50.0670 O.2   801  213801     -0.4557
     46  O73       36.2460   35.8890   51.0900 O.3   801  213801     -0.3542
     47  O74       38.1670   36.9430   52.2970 O.3   801  213801     -0.3542
@<TRIPOS>BOND
     1    37    34    2
     2    36    34    1
     3    34    35    1
     4    34    31    1
     5    42    41   ar
     6    42    43   ar
     7    33    31    1
     8    41    40   ar
     9    43    38   ar
    10    31    32    1
    11    31    11    1
    12    12    11   ar
    13    12     7   ar
    14    11    10   ar
    15    45    44    2
    16    40    39   ar
    17    40    44    1
    18    38    39   ar
    19    38    17    1
    20     7     8   ar
    21    10     9   ar
    22    44    46    1
    23    44    47    1
    24    16    17   ar
    25    16    15   ar
    26    17    18   ar
    27     8     9   ar
    28     8    22    1
    29    15    14   ar
    30    18    13   ar
    31    22    19    1
    32    14    13   ar
    33    14    21    1
    34    21    19    1
    35    30    20    1
    36    30    29    1
    37    19    20    1
    38    19     4    1
    39    20    26    1
    40     4     3   ar
    41     4     5   ar
    42    29    25    2
    43     3     2   ar
    44     5     6   ar
    45     2     1   ar
    46     6     1   ar
    47    26    25    1
    48    26    27    2
    49    25    24    1
    50    27    28    1
    51    24    23    2
    52    28    23    1
