@<TRIPOS>MOLECULE
1q6q_LXP_A_1.pdb
 14 13 0 0 0
SMALL
GASTEIGER

@<TRIPOS>ATOM
      1  O8        64.1990   23.4200   24.8720 O.3   7301  LXP7301    -0.1145
      2  P         65.4450   23.1360   24.0670 P.3   7301  LXP7301     0.5327
      3  O6        65.5410   24.1250   22.9420 O.2   7301  LXP7301    -0.2224
      4  O7        66.6690   22.8550   24.9020 O.3   7301  LXP7301    -0.1145
      5  O5        65.1450   21.7300   23.2700 O.3   7301  LXP7301    -0.2674
      6  C5        64.9640   20.5000   23.9450 C.3   7301  LXP7301     0.1892
      7  C4        63.5000   20.2190   24.0980 C.3   7301  LXP7301     0.2147
      8  O4        63.4650   18.9530   24.7500 O.3   7301  LXP7301    -0.2176
      9  C3        62.7780   20.1790   22.7580 C.3   7301  LXP7301     0.2174
     10  O3        63.3720   19.2230   21.8880 O.3   7301  LXP7301    -0.2175
     11  C2        61.2780   19.7930   22.9720 C.3   7301  LXP7301     0.2175
     12  O2        61.1050   18.3430   22.9140 O.3   7301  LXP7301    -0.2175
     13  C1        60.3780   20.5720   22.0150 C.3   7301  LXP7301     0.2175
     14  O1        59.0210   20.0450   22.0070 O.3   7301  LXP7301    -0.2175
@<TRIPOS>BOND
     1    10     9    1
     2    14    13    1
     3    13    11    1
     4     9    11    1
     5     9     7    1
     6    12    11    1
     7     3     2    2
     8     5     6    1
     9     5     2    1
    10     6     7    1
    11     2     1    1
    12     2     4    1
    13     7     8    1
