@<TRIPOS>MOLECULE
1q6r_LX1_A_1.pdb
 13 12 0 0 0
SMALL
GASTEIGER

@<TRIPOS>ATOM
      1  O8        64.7340   23.7830   25.2560 O.3   7301  LX17301    -0.1145
      2  P         65.9350   23.3890   24.2870 P.3   7301  LX17301     0.5327
      3  O6        66.2570   24.4990   23.1070 O.2   7301  LX17301    -0.2224
      4  O7        67.2840   23.0430   25.1030 O.3   7301  LX17301    -0.1145
      5  O5        65.8350   21.8330   23.4340 O.3   7301  LX17301    -0.2674
      6  C5        65.5650   20.6470   24.1600 C.3   7301  LX17301     0.1896
      7  C4        64.1060   20.3300   24.1190 C.3   7301  LX17301     0.2193
      8  O4        64.1260   19.0480   24.7240 O.3   7301  LX17301    -0.2172
      9  C3        63.4410   20.2600   22.7470 C.3   7301  LX17301     0.2412
     10  O3        64.1310   19.3860   21.8750 O.3   7301  LX17301    -0.2123
     11  C2        62.0200   19.7730   22.9610 C.2   7301  LX17301     0.1838
     12  O2        61.6420   18.6300   22.6760 O.2   7301  LX17301    -0.2933
     13  C1        61.1270   20.7480   23.5160 C.3   7301  LX17301     0.0751
@<TRIPOS>BOND
     1    10     9    1
     2    12    11    2
     3     9    11    1
     4     9     7    1
     5    11    13    1
     6     3     2    2
     7     5     6    1
     8     5     2    1
     9     7     6    1
    10     7     8    1
    11     2     4    1
    12     2     1    1
