@<TRIPOS>MOLECULE
1q6y_COA_A_1.pdb
 48 50 0 0 0
SMALL
GASTEIGER

@<TRIPOS>ATOM
      1  N1A       42.9530    3.1500   28.3410 N.2   500  COA500      0.0021
      2  C2A       41.9450    2.3790   28.9150 C.3   500  COA500      0.5254
      3  N3A       41.2660    1.3780   28.2200 N.2   500  COA500     -0.0055
      4  C4A       41.6450    1.1860   26.9330 C.2   500  COA500      0.3518
      5  C5A       42.6430    1.9530   26.3150 C.2   500  COA500      0.2526
      6  C6A       43.3020    2.9830   27.0270 C.2   500  COA500      0.4393
      7  N6A       44.2120    3.8020   26.4810 N.pl3 500  COA500      0.2180
      8  N7A       42.6970    1.5200   25.0310 N.2   500  COA500     -0.2095
      9  C8A       41.8040    0.5270   24.8430 C.3   500  COA500      0.3377
     10  N9A       41.1460    0.3080   26.0090 N.pl3 500  COA500     -0.1439
     11  C1B       40.1580   -0.7470   26.3610 C.3   500  COA500      0.3185
     12  C2B       38.9330   -0.8600   25.4760 C.3   500  COA500      0.2543
     13  O2B       37.9160    0.0660   25.6360 O.3   500  COA500     -0.2131
     14  C3B       38.4320   -2.1730   25.9920 C.3   500  COA500      0.1928
     15  O3B       37.6610   -1.8690   27.1120 O.3   500  COA500     -0.2673
     16  P3B       36.1020   -2.3010   27.2340 P.3   500  COA500      0.5327
     17  O7A       35.3340   -1.5680   26.2240 O.2   500  COA500     -0.2224
     18  O8A       35.7210   -2.0800   28.6940 O.3   500  COA500     -0.1145
     19  O9A       35.9920   -3.8140   27.0500 O.3   500  COA500     -0.1145
     20  C4B       39.6780   -2.9740   26.3410 C.3   500  COA500      0.1795
     21  O4B       40.7380   -2.0310   26.2650 O.3   500  COA500     -0.3136
     22  C5B       39.9410   -4.0720   25.3540 C.3   500  COA500      0.1812
     23  O5B       39.6390   -3.6260   24.0250 O.3   500  COA500     -0.3112
     24  P1A       40.1980   -4.5140   22.7870 P.3   500  COA500      0.2189
     25  O1A       41.6880   -4.5710   22.7420 O.3   500  COA500     -0.4371
     26  O2A       39.6290   -3.8440   21.5470 O.2   500  COA500     -0.5170
     27  O3A       39.4030   -5.9000   23.0720 O.3   500  COA500     -0.2703
     28  P2A       39.8020   -7.3290   22.5810 P.3   500  COA500      0.2188
     29  O4A       41.2420   -7.6150   22.9140 O.2   500  COA500     -0.5170
     30  O5A       38.7330   -8.2890   23.1940 O.3   500  COA500     -0.4371
     31  O6A       39.5200   -7.2830   20.9610 O.3   500  COA500     -0.3138
     32  CBP       40.0680   -7.0750   18.6750 C.3   500  COA500      0.0645
     33  CCP       40.5910   -7.2870   20.0710 C.3   500  COA500      0.1519
     34  CDP       41.3050   -7.0040   17.8200 C.3   500  COA500      0.0056
     35  CEP       39.1390   -8.2730   18.3210 C.3   500  COA500      0.0056
     36  CAP       39.2840   -5.7410   18.6330 C.3   500  COA500      0.2312
     37  OAP       40.0900   -4.6220   19.0870 O.3   500  COA500     -0.2131
     38  C9P       38.6500   -5.5690   17.2690 C.2   500  COA500      0.2719
     39  O9P       37.7000   -6.5170   16.7450 O.2   500  COA500     -0.2706
     40  N8P       39.0360   -4.4590   16.6070 N.am  500  COA500     -0.2028
     41  C7P       38.3590   -4.0770   15.4080 C.3   500  COA500      0.1248
     42  C6P       38.8170   -4.9000   14.2640 C.3   500  COA500      0.1102
     43  C5P       40.3040   -4.9530   14.1090 C.2   500  COA500      0.2432
     44  O5P       40.9440   -3.9580   13.7690 O.2   500  COA500     -0.2733
     45  N4P       40.8720   -6.1640   14.2990 N.am  500  COA500     -0.2044
     46  C3P       42.3030   -6.4040   14.5650 C.3   500  COA500      0.1276
     47  C2P       43.0140   -6.8870   13.3310 C.3   500  COA500      0.0920
     48  S1P       44.8510   -6.8270   13.4960 S.3   500  COA500     -0.0802
@<TRIPOS>BOND
     1    47    48    1
     2    47    46    1
     3    44    43    2
     4    43    42    1
     5    43    45   am
     6    42    41    1
     7    45    46    1
     8    41    40    1
     9    40    38   am
    10    39    38    2
    11    38    36    1
    12    34    32    1
    13    35    32    1
    14    36    32    1
    15    36    37    1
    16    32    33    1
    17    33    31    1
    18    31    28    1
    19    26    24    2
    20    28    29    2
    21    28    27    1
    22    28    30    1
    23    25    24    1
    24    24    27    1
    25    24    23    1
    26    23    22    1
    27     9     8    1
    28     9    10    1
    29     8     5    2
    30    22    20    1
    31    12    13    1
    32    12    14    1
    33    12    11    1
    34    14    20    1
    35    14    15    1
    36    10    11    1
    37    10     4    1
    38    17    16    2
    39    21    20    1
    40    21    11    1
    41     5     4    1
    42     5     6    1
    43     7     6    1
    44     4     3    2
    45     6     1    2
    46    19    16    1
    47    15    16    1
    48    16    18    1
    49     3     2    1
    50     1     2    1
