@<TRIPOS>MOLECULE
1q6z_TZD_A_1.pdb
 27 28 0 0 0
SMALL
GASTEIGER

@<TRIPOS>ATOM
      1  N1'       91.5170   45.6250  158.9310 N.2   530  TZD530     -0.1861
      2  C2'       90.8430   44.5050  158.5520 C.1   530  TZD530      0.0663
      3  C2A       89.3720   44.6160  158.4000 C.3   530  TZD530      0.1291
      4  N3'       91.4530   43.3590  158.3470 N.2   530  TZD530     -0.3368
      5  C4'       92.7860   43.2580  158.4640 C.2   530  TZD530      0.2294
      6  N4'       93.3500   42.1330  158.0920 N.pl3 530  TZD530     -0.0924
      7  C5'       93.5590   44.3930  158.9660 C.2   530  TZD530      0.0683
      8  C6'       92.8500   45.5560  159.1620 C.2   530  TZD530      0.1117
      9  C35       95.0250   44.3230  159.1700 C.3   530  TZD530      0.1415
     10  N3        95.4690   43.4490  160.2550 N.ar  530  TZD530     -0.2894
     11  C2        96.0170   42.1720  159.9900 C.ar  530  TZD530      0.2920
     12  OC2       96.0570   41.7040  158.8330 O.2   530  TZD530     -0.2594
     13  S1        96.5440   41.4230  161.4230 S.2   530  TZD530     -0.0306
     14  C5        96.0770   42.8130  162.3680 C.ar  530  TZD530      0.0259
     15  C4        95.5510   43.8000  161.6050 C.ar  530  TZD530      0.0432
     16  C4A       94.9830   45.0950  162.0780 C.3   530  TZD530      0.0503
     17  C5A       96.3290   42.7860  163.8660 C.3   530  TZD530      0.0667
     18  C5B       95.2490   42.0600  164.6430 C.3   530  TZD530      0.1544
     19  O5G       95.6040   42.1640  166.0240 O.3   530  TZD530     -0.3134
     20  P1        95.0490   41.1770  167.1190 P.3   530  TZD530      0.2230
     21  O11       95.9750   39.8870  167.0420 O.3   530  TZD530     -0.2261
     22  O12       95.2460   41.8680  168.4260 O.3   530  TZD530     -0.4370
     23  O13       93.6790   40.7140  166.7900 O.2   530  TZD530     -0.5169
     24  P2        97.5900   39.8040  167.2750 P.3   530  TZD530      0.5373
     25  O21       97.9270   40.7520  168.4150 O.3   530  TZD530     -0.1143
     26  O22       97.8190   38.3460  167.6100 O.3   530  TZD530     -0.1143
     27  O23       98.1990   40.1690  165.9400 O.2   530  TZD530     -0.2221
@<TRIPOS>BOND
     1     6     5    1
     2     4     5    2
     3     4     2    2
     4     3     2    1
     5     5     7    1
     6     2     1    2
     7    12    11    2
     8     1     8    1
     9     7     8    2
    10     7     9    1
    11     9    10    1
    12    11    10   ar
    13    11    13   ar
    14    10    15   ar
    15    13    14   ar
    16    15    16    1
    17    15    14   ar
    18    14    17    1
    19    17    18    1
    20    18    19    1
    21    27    24    2
    22    19    20    1
    23    23    20    2
    24    21    20    1
    25    21    24    1
    26    20    22    1
    27    24    26    1
    28    24    25    1
