@<TRIPOS>MOLECULE
1q72_COC_H_1.pdb
 22 24 0 0 0
SMALL
GASTEIGER

@<TRIPOS>ATOM
      1  C1        26.3810   -4.0800   26.7430 C.3   401  COC401      0.2556
      2  O5        25.5390   -2.9110   26.5920 O.3   401  COC401     -0.4443
      3  C6        24.2900   -3.0860   26.1160 C.2   401  COC401      0.3215
      4  O7        23.6110   -4.0370   26.3700 O.2   401  COC401     -0.2499
      5  C8        23.9380   -1.8880   25.2240 C.3   401  COC401      0.1535
      6  C10       22.5220   -1.3510   25.6380 C.3   401  COC401      0.0716
      7  N12       21.5380   -2.4100   25.3550 N.3   401  COC401     -0.2733
      8  C14       20.2770   -2.2520   26.1220 C.3   401  COC401      0.0896
      9  C18       22.0760   -0.0980   24.8530 C.3   401  COC401      0.0180
     10  C21       21.2930   -0.6930   23.6530 C.3   401  COC401      0.0175
     11  C24       21.3600   -2.2180   23.9070 C.3   401  COC401      0.0612
     12  C26       22.5960   -2.8680   23.2080 C.3   401  COC401      0.0602
     13  C29       23.9070   -2.2180   23.6970 C.3   401  COC401      0.1823
     14  O1        25.0570   -3.0600   23.3510 O.3   401  COC401     -0.4485
     15  C2        26.2790   -2.4850   23.2340 C.2   401  COC401      0.3411
     16  O3        26.4940   -1.3160   23.4500 O.2   401  COC401     -0.2449
     17  C4        27.3340   -3.4750   22.7920 C.ar  401  COC401      0.0756
     18  C5        28.6940   -3.1000   22.9020 C.ar  401  COC401      0.0064
     19  C7        29.6990   -4.0100   22.4880 C.ar  401  COC401      0.0002
     20  C9        29.3650   -5.2450   21.9850 C.ar  401  COC401      0.0000
     21  C11       28.0320   -5.6150   21.8770 C.ar  401  COC401      0.0002
     22  C13       27.0100   -4.7280   22.2830 C.ar  401  COC401      0.0064
@<TRIPOS>BOND
     1    21    20   ar
     2    21    22   ar
     3    20    19   ar
     4    22    17   ar
     5    19    18   ar
     6    17    18   ar
     7    17    15    1
     8    12    13    1
     9    12    11    1
    10    15    14    1
    11    15    16    2
    12    14    13    1
    13    10    11    1
    14    10     9    1
    15    13     5    1
    16    11     7    1
    17     9     6    1
    18     5     6    1
    19     5     3    1
    20     7     6    1
    21     7     8    1
    22     3     4    2
    23     3     2    1
    24     2     1    1
