@<TRIPOS>MOLECULE
1q78_3AT_A_1.pdb
 30 32 0 0 0
SMALL
GASTEIGER

@<TRIPOS>ATOM
      1  PG        31.0120   40.6800  -18.2140 P.3   1000  3AT1000     0.5373
      2  O1G       30.7000   39.8070  -19.3760 O.2   1000  3AT1000    -0.2221
      3  O2G       29.9260   41.0710  -17.2890 O.3   1000  3AT1000    -0.1143
      4  O3G       32.0900   39.9890  -17.3930 O.3   1000  3AT1000    -0.1143
      5  PB        30.9580   43.3770  -19.1700 P.3   1000  3AT1000     0.2277
      6  O1B       31.9110   44.4620  -18.8260 O.2   1000  3AT1000    -0.5168
      7  O2B       29.5890   43.4030  -18.5990 O.3   1000  3AT1000    -0.4368
      8  O3B       31.6460   42.0120  -18.7590 O.3   1000  3AT1000    -0.2258
      9  PA        31.8670   42.7290  -21.8260 P.3   1000  3AT1000     0.2189
     10  O1A       32.2730   41.3670  -21.3980 O.3   1000  3AT1000    -0.4371
     11  O2A       31.2760   42.9170  -23.1690 O.2   1000  3AT1000    -0.5170
     12  O3A       30.8360   43.2990  -20.7560 O.3   1000  3AT1000    -0.2700
     13  O5'       33.1700   43.6370  -21.7540 O.3   1000  3AT1000    -0.3113
     14  C5'       33.3400   44.7310  -22.6420 C.3   1000  3AT1000     0.1787
     15  C4'       33.0420   46.0210  -21.9250 C.3   1000  3AT1000     0.1520
     16  O4'       33.1270   47.1070  -22.8830 O.3   1000  3AT1000    -0.3163
     17  C3'       31.6300   46.0920  -21.3580 C.3   1000  3AT1000     0.0722
     18  C2'       31.3190   47.5780  -21.4330 C.3   1000  3AT1000     0.2270
     19  O2'       31.8780   48.2940  -20.3580 O.3   1000  3AT1000    -0.2158
     20  C1'       32.0030   47.9580  -22.7460 C.3   1000  3AT1000     0.3159
     21  N9        31.1240   47.7220  -23.8870 N.pl3 1000  3AT1000    -0.1439
     22  C8        31.0250   46.5820  -24.6470 C.3   1000  3AT1000     0.3377
     23  N7        30.1050   46.6450  -25.5780 N.2   1000  3AT1000    -0.2095
     24  C5        29.5680   47.9180  -25.4290 C.2   1000  3AT1000     0.2526
     25  C6        28.5430   48.5980  -26.1110 C.2   1000  3AT1000     0.4393
     26  N6        27.8320   48.0600  -27.1040 N.pl3 1000  3AT1000     0.2180
     27  N1        28.2660   49.8640  -25.7240 N.2   1000  3AT1000     0.0021
     28  C2        28.9670   50.3940  -24.7100 C.3   1000  3AT1000     0.5254
     29  N3        29.9440   49.8510  -23.9850 N.2   1000  3AT1000    -0.0055
     30  C4        30.1990   48.5970  -24.4000 C.2   1000  3AT1000     0.3518
@<TRIPOS>BOND
     1    26    25    1
     2    25    27    2
     3    25    24    1
     4    27    28    1
     5    23    24    2
     6    23    22    1
     7    24    30    1
     8    28    29    1
     9    22    21    1
    10    30    29    2
    11    30    21    1
    12    21    20    1
    13    11     9    2
    14    16    20    1
    15    16    15    1
    16    20    18    1
    17    14    15    1
    18    14    13    1
    19    15    17    1
    20     9    13    1
    21     9    10    1
    22     9    12    1
    23    18    17    1
    24    18    19    1
    25    12     5    1
    26     2     1    2
    27     5     6    2
    28     5     8    1
    29     5     7    1
    30     8     1    1
    31     1     4    1
    32     1     3    1
