@<TRIPOS>MOLECULE
1q79_3AT_A_1.pdb
 30 32 0 0 0
SMALL
GASTEIGER

@<TRIPOS>ATOM
      1  PG        36.4100   38.9790  -19.9550 P.3   1000  3AT1000     0.5373
      2  O1G       37.3060   39.7100  -20.8890 O.2   1000  3AT1000    -0.2221
      3  O2G       35.8870   37.6460  -20.3470 O.3   1000  3AT1000    -0.1143
      4  O3G       37.1560   38.8060  -18.6390 O.3   1000  3AT1000    -0.1143
      5  PB        34.2240   40.6370  -20.7230 P.3   1000  3AT1000     0.2277
      6  O1B       32.8250   40.2330  -20.4370 O.3   1000  3AT1000    -0.4368
      7  O2B       34.7930   40.4110  -22.0770 O.2   1000  3AT1000    -0.5168
      8  O3B       35.1640   39.9120  -19.6780 O.3   1000  3AT1000    -0.2258
      9  PA        33.3320   43.2040  -19.7710 P.3   1000  3AT1000     0.2189
     10  O1A       31.9560   42.7090  -20.0420 O.2   1000  3AT1000    -0.5170
     11  O2A       33.7530   43.4430  -18.3710 O.3   1000  3AT1000    -0.4371
     12  O3A       34.3690   42.1750  -20.3980 O.3   1000  3AT1000    -0.2700
     13  O5'       33.5620   44.5640  -20.5740 O.3   1000  3AT1000    -0.3113
     14  C5'       32.4820   45.4180  -20.9220 C.3   1000  3AT1000     0.1787
     15  C4'       32.6090   45.8560  -22.3640 C.3   1000  3AT1000     0.1520
     16  O4'       33.9020   46.4860  -22.5630 O.3   1000  3AT1000    -0.3163
     17  C3'       32.5860   44.7360  -23.3940 C.3   1000  3AT1000     0.0722
     18  C2'       33.3070   45.3700  -24.5790 C.3   1000  3AT1000     0.2270
     19  O2'       32.4730   46.1980  -25.3660 O.3   1000  3AT1000    -0.2158
     20  C1'       34.3660   46.2210  -23.8770 C.3   1000  3AT1000     0.3159
     21  N9        35.6630   45.5510  -23.7940 N.pl3 1000  3AT1000    -0.1439
     22  C8        36.1680   44.7810  -22.7740 C.3   1000  3AT1000     0.3377
     23  N7        37.3670   44.3080  -23.0130 N.2   1000  3AT1000    -0.2095
     24  C5        37.6750   44.8010  -24.2730 C.2   1000  3AT1000     0.2526
     25  C6        38.8100   44.6590  -25.0970 C.2   1000  3AT1000     0.4393
     26  N6        39.8890   43.9510  -24.7570 N.pl3 1000  3AT1000     0.2180
     27  N1        38.7960   45.2780  -26.2990 N.2   1000  3AT1000     0.0021
     28  C2        37.7120   45.9890  -26.6400 C.3   1000  3AT1000     0.5254
     29  N3        36.5880   46.1980  -25.9530 N.2   1000  3AT1000    -0.0055
     30  C4        36.6350   45.5690  -24.7650 C.2   1000  3AT1000     0.3518
@<TRIPOS>BOND
     1    28    27    1
     2    28    29    1
     3    27    25    2
     4    29    30    2
     5    19    18    1
     6    25    26    1
     7    25    24    1
     8    30    24    1
     9    30    21    1
    10    18    20    1
    11    18    17    1
    12    24    23    2
    13    20    21    1
    14    20    16    1
    15    21    22    1
    16    17    15    1
    17    23    22    1
    18    16    15    1
    19    15    14    1
    20     7     5    2
    21    14    13    1
    22     2     1    2
    23     5     6    1
    24     5    12    1
    25     5     8    1
    26    13     9    1
    27    12     9    1
    28     3     1    1
    29    10     9    2
    30     1     8    1
    31     1     4    1
    32     9    11    1
