@<TRIPOS>MOLECULE
1q7a_OPB_A_1.pdb
 24 26 0 0 0
SMALL
GASTEIGER

@<TRIPOS>ATOM
      1  C16       12.0290   22.7760   -8.7010 C.ar  124  OPB124      0.0013
      2  C17       10.7170   22.6250   -8.1400 C.ar  124  OPB124      0.0166
      3  C12       10.1590   23.6150   -7.2150 C.ar  124  OPB124      0.0734
      4  C13       11.0120   24.7560   -6.8900 C.ar  124  OPB124      0.0166
      5  C14       12.3330   24.8850   -7.4690 C.ar  124  OPB124      0.0013
      6  C15       12.8280   23.8920   -8.3770 C.ar  124  OPB124      0.0001
      7  C8         6.9580   21.6090  -10.7710 C.ar  124  OPB124      0.0434
      8  C9         7.0670   22.6470  -11.7060 C.ar  124  OPB124      0.1958
      9  C10        7.3280   24.0030  -11.2650 C.ar  124  OPB124      0.0434
     10  C11        7.4810   24.2870   -9.8310 C.ar  124  OPB124      0.0199
     11  C6         7.3620   23.1740   -8.8640 C.ar  124  OPB124      0.0736
     12  C7         7.1040   21.8690   -9.3850 C.ar  124  OPB124      0.0199
     13  C21        4.9540   18.6190   -3.8330 C.3   124  OPB124      0.0000
     14  C20        5.9210   19.7110   -4.1290 C.3   124  OPB124      0.0000
     15  C19        5.5000   21.1760   -3.8360 C.3   124  OPB124      0.0010
     16  C18        6.7770   21.9110   -4.2980 C.3   124  OPB124      0.0185
     17  N2         8.7340   23.4540   -6.6320 N.am  124  OPB124     -0.1788
     18  C3         8.4140   23.4390   -5.2890 C.2   124  OPB124      0.2539
     19  C4         6.8900   23.2400   -5.0820 C.3   124  OPB124      0.1566
     20  C5         6.4440   23.1600   -6.4950 C.2   124  OPB124      0.2539
     21  N1         7.4960   23.2740   -7.3630 N.am  124  OPB124     -0.1788
     22  O3         9.2060   23.5660   -4.3110 O.2   124  OPB124     -0.2725
     23  O5         5.2420   23.0070   -6.7880 O.2   124  OPB124     -0.2725
     24  O9         6.9260   22.3540  -13.0260 O.3   124  OPB124     -0.2866
@<TRIPOS>BOND
     1    24     8    1
     2     8     9   ar
     3     8     7   ar
     4     9    10   ar
     5     7    12   ar
     6    10    11   ar
     7    12    11   ar
     8    11    21    1
     9     1     6   ar
    10     1     2   ar
    11     6     5   ar
    12     2     3   ar
    13     5     4   ar
    14    21    17    1
    15    21    20   am
    16     3     4   ar
    17     3    17    1
    18    23    20    2
    19    17    18   am
    20    20    19    1
    21    18    19    1
    22    18    22    2
    23    19    16    1
    24    16    15    1
    25    14    15    1
    26    14    13    1
