@<TRIPOS>MOLECULE
1q7b_NAP_A_1.pdb
 48 52 0 0 0
SMALL
GASTEIGER

@<TRIPOS>ATOM
      1  PA       -11.8220   15.4750    7.1690 P.3   1901  NAP1901     0.2189
      2  O1A      -12.7100   15.6300    8.2550 O.3   1901  NAP1901    -0.4371
      3  O2A      -11.5330   16.5100    6.1060 O.2   1901  NAP1901    -0.5170
      4  O5B      -12.1980   14.1650    6.3360 O.3   1901  NAP1901    -0.3112
      5  C5B      -13.0350   13.1280    6.9110 C.3   1901  NAP1901     0.1813
      6  C4B      -13.2220   12.1960    5.6720 C.3   1901  NAP1901     0.1820
      7  O4B      -14.0700   11.0390    6.1120 O.3   1901  NAP1901    -0.3136
      8  C3B      -14.0350   12.8160    4.5090 C.3   1901  NAP1901     0.2157
      9  O3B      -13.4510   12.3300    3.3050 O.3   1901  NAP1901    -0.2175
     10  C2B      -15.4510   12.3230    4.7360 C.3   1901  NAP1901     0.2314
     11  O2B      -16.2800   12.2970    3.5750 O.3   1901  NAP1901    -0.2630
     12  C1B      -15.2300   10.9000    5.3130 C.3   1901  NAP1901     0.3158
     13  N9A      -16.4020   10.4830    6.0740 N.pl3 1901  NAP1901    -0.1439
     14  C8A      -17.0930   11.0860    7.1110 C.3   1901  NAP1901     0.3377
     15  N7A      -18.1340   10.3910    7.5500 N.2   1901  NAP1901    -0.2095
     16  C5A      -18.1190    9.2580    6.7420 C.2   1901  NAP1901     0.2526
     17  C6A      -18.9830    8.1430    6.7250 C.2   1901  NAP1901     0.4393
     18  N6A      -20.0540    7.9270    7.5160 N.pl3 1901  NAP1901     0.2180
     19  N1A      -18.7120    7.1390    5.7810 N.2   1901  NAP1901     0.0021
     20  C2A      -17.6280    7.2470    4.8980 C.3   1901  NAP1901     0.5254
     21  N3A      -16.7600    8.3330    4.8910 N.2   1901  NAP1901    -0.0055
     22  C4A      -17.0440    9.3130    5.8310 C.2   1901  NAP1901     0.3518
     23  O3       -10.3870   15.0910    7.7060 O.3   1901  NAP1901    -0.2703
     24  PN        -9.8350   14.7140    9.1370 P.3   1901  NAP1901     0.2189
     25  O1N      -10.7050   15.2640   10.1910 O.3   1901  NAP1901    -0.4371
     26  O2N       -8.4180   15.1530    9.1520 O.2   1901  NAP1901    -0.5170
     27  O5D       -9.9960   13.1400    9.1570 O.3   1901  NAP1901    -0.3112
     28  C5D       -8.9400   12.2780    8.6080 C.3   1901  NAP1901     0.1813
     29  C4D       -8.6620   11.1560    9.6000 C.3   1901  NAP1901     0.1799
     30  O4D       -7.5230   11.5140   10.4130 O.3   1901  NAP1901    -0.3327
     31  C3D       -9.8000   10.8360   10.6300 C.3   1901  NAP1901     0.2158
     32  O3D       -9.9310    9.4160   10.8300 O.3   1901  NAP1901    -0.2175
     33  C2D       -9.3570   11.5820   11.8730 C.3   1901  NAP1901     0.2309
     34  O2D       -9.9250   11.0620   13.0580 O.3   1901  NAP1901    -0.2158
     35  C1D       -7.8860   11.4160   11.8290 C.3   1901  NAP1901     0.2263
     36  N1N       -7.0690   12.4700   12.4640 N.pl3 1901  NAP1901    -0.2787
     37  C2N       -7.0410   13.8440   12.0570 C.3   1901  NAP1901     0.1244
     38  C3N       -6.2080   14.7160   12.7680 C.2   1901  NAP1901     0.0544
     39  C7N       -6.1420   16.1940   12.3730 C.2   1901  NAP1901     0.2818
     40  O7N       -5.4030   16.8950   13.0330 O.2   1901  NAP1901    -0.2670
     41  N7N       -6.8460   16.6640   11.3800 N.am  1901  NAP1901    -0.0839
     42  C4N       -5.3940   14.2430   13.8920 C.2   1901  NAP1901     0.0033
     43  C5N       -5.4620   12.8710   14.2500 C.2   1901  NAP1901     0.0157
     44  C6N       -6.2970   11.9650   13.5470 C.2   1901  NAP1901     0.0633
     45  P2B      -16.7630   13.6560    2.7910 P.3   1901  NAP1901     0.5328
     46  O1X      -15.5280   14.2080    2.0660 O.3   1901  NAP1901    -0.1145
     47  O2X      -17.7970   13.1100    1.8670 O.2   1901  NAP1901    -0.2224
     48  O3X      -17.2500   14.6180    3.8500 O.3   1901  NAP1901    -0.1145
@<TRIPOS>BOND
     1    47    45    2
     2    46    45    1
     3    45    11    1
     4    45    48    1
     5     9     8    1
     6    11    10    1
     7     8    10    1
     8     8     6    1
     9    10    12    1
    10    21    20    1
    11    21    22    2
    12    20    19    1
    13    12    13    1
    14    12     7    1
    15     6     7    1
    16     6     5    1
    17    19    17    2
    18    22    13    1
    19    22    16    1
    20    13    14    1
    21     3     1    2
    22     4     5    1
    23     4     1    1
    24    17    16    1
    25    17    18    1
    26    16    15    2
    27    14    15    1
    28     1    23    1
    29     1     2    1
    30    23    24    1
    31    28    27    1
    32    28    29    1
    33    24    26    2
    34    24    27    1
    35    24    25    1
    36    29    30    1
    37    29    31    1
    38    30    35    1
    39    31    32    1
    40    31    33    1
    41    41    39   am
    42    35    33    1
    43    35    36    1
    44    33    34    1
    45    37    36    1
    46    37    38    1
    47    39    38    1
    48    39    40    2
    49    36    44    1
    50    38    42    2
    51    44    43    2
    52    42    43    1
