@<TRIPOS>MOLECULE
1q7c_NAP_A_1.pdb
 31 33 0 0 0
SMALL
GASTEIGER

@<TRIPOS>ATOM
      1  PA       -11.7430   26.1290   56.1760 P.3   1901  NAP1901     0.2231
      2  O1A      -12.5320   26.0850   57.3440 O.3   1901  NAP1901    -0.4370
      3  O2A      -11.6880   27.2760   55.1860 O.2   1901  NAP1901    -0.5169
      4  O5B      -12.0590   24.8250   55.2720 O.3   1901  NAP1901    -0.3111
      5  C5B      -11.6040   23.5430   55.7500 C.3   1901  NAP1901     0.1813
      6  C4B      -12.8950   22.6480   55.8120 C.3   1901  NAP1901     0.1820
      7  O4B      -12.3300   21.3750   56.3420 O.3   1901  NAP1901    -0.3136
      8  C3B      -13.8830   23.0830   56.8960 C.3   1901  NAP1901     0.2157
      9  O3B      -15.1510   22.6020   56.4500 O.3   1901  NAP1901    -0.2175
     10  C2B      -13.4140   22.3990   58.1520 C.3   1901  NAP1901     0.2314
     11  O2B      -14.4160   22.1990   59.1250 O.3   1901  NAP1901    -0.2630
     12  C1B      -12.8170   21.0420   57.6420 C.3   1901  NAP1901     0.3158
     13  N9A      -11.7020   20.6610   58.5160 N.pl3 1901  NAP1901    -0.1439
     14  C8A      -10.5100   21.3090   58.7790 C.3   1901  NAP1901     0.3377
     15  N7A       -9.7130   20.6840   59.6220 N.2   1901  NAP1901    -0.2095
     16  C5A      -10.4290   19.5460   59.9350 C.2   1901  NAP1901     0.2526
     17  C6A      -10.0930   18.4880   60.7890 C.2   1901  NAP1901     0.4393
     18  N6A       -8.9690   18.3510   61.5050 N.pl3 1901  NAP1901     0.2180
     19  N1A      -11.0200   17.4550   60.9170 N.2   1901  NAP1901     0.0021
     20  C2A      -12.2340   17.4840   60.2160 C.3   1901  NAP1901     0.5254
     21  N3A      -12.5960   18.5170   59.3630 N.2   1901  NAP1901    -0.0055
     22  C4A      -11.6630   19.5260   59.2530 C.2   1901  NAP1901     0.3518
     23  O3       -10.2200   25.9090   56.5950 O.3   1901  NAP1901    -0.2261
     24  PN        -9.3150   26.5270   57.7500 P.3   1901  NAP1901     0.5373
     25  O1N       -9.7210   27.9140   58.0480 O.3   1901  NAP1901    -0.1143
     26  O2N       -7.9080   26.3300   57.3110 O.2   1901  NAP1901    -0.2221
     27  O5D       -9.6910   25.6330   59.0110 O.3   1901  NAP1901    -0.1143
     28  P2B      -15.1110   23.4260   59.9390 P.3   1901  NAP1901     0.5328
     29  O1X      -14.0370   24.5020   60.1260 O.3   1901  NAP1901    -0.1145
     30  O2X      -16.1820   23.8350   59.0050 O.2   1901  NAP1901    -0.2224
     31  O3X      -15.5680   22.8610   61.2570 O.3   1901  NAP1901    -0.1145
@<TRIPOS>BOND
     1     3     1    2
     2     4     5    1
     3     4     1    1
     4     5     6    1
     5     6     7    1
     6     6     8    1
     7     1    23    1
     8     1     2    1
     9     7    12    1
    10     9     8    1
    11    23    24    1
    12     8    10    1
    13    26    24    2
    14    12    10    1
    15    12    13    1
    16    24    25    1
    17    24    27    1
    18    10    11    1
    19    13    14    1
    20    13    22    1
    21    14    15    1
    22    30    28    2
    23    11    28    1
    24    22    21    2
    25    22    16    1
    26    21    20    1
    27    15    16    2
    28    16    17    1
    29    28    29    1
    30    28    31    1
    31    20    19    1
    32    17    19    2
    33    17    18    1
