@<TRIPOS>MOLECULE
1q7t_BOG_A_1.pdb
 20 20 0 0 0
SMALL
GASTEIGER

@<TRIPOS>ATOM
      1  C1        13.5950   28.2920   52.5290 C.3   401  BOG401      0.2695
      2  O1        13.3500   27.5370   51.3390 O.3   401  BOG401     -0.3286
      3  C2        15.0150   27.9630   53.0780 C.3   401  BOG401      0.2406
      4  O2        15.0930   26.5610   53.3460 O.3   401  BOG401     -0.2149
      5  C3        15.2760   28.7860   54.3640 C.3   401  BOG401      0.2198
      6  O3        16.5720   28.5000   54.8800 O.3   401  BOG401     -0.2174
      7  C4        15.1750   30.2980   54.0180 C.3   401  BOG401      0.2144
      8  O4        15.4210   31.1020   55.1810 O.3   401  BOG401     -0.2176
      9  C5        13.7400   30.5990   53.4490 C.3   401  BOG401      0.1835
     10  O5        13.4960   29.7560   52.2710 O.3   401  BOG401     -0.3256
     11  C6        13.6090   32.0860   53.0790 C.3   401  BOG401      0.2142
     12  O6        14.2690   32.3760   51.8400 O.3   401  BOG401     -0.2176
     13  C1'       12.0640   27.7660   50.7720 C.3   401  BOG401      0.1449
     14  C2'       11.9090   26.9320   49.5350 C.3   401  BOG401      0.0322
     15  C3'       10.5300   27.1220   48.9860 C.3   401  BOG401      0.0026
     16  C4'       10.1380   26.0580   47.9830 C.3   401  BOG401      0.0001
     17  C5'        9.9210   26.6710   46.6090 C.3   401  BOG401      0.0000
     18  C6'        9.5260   25.6100   45.5960 C.3   401  BOG401      0.0000
     19  C7'        9.3170   26.2130   44.2360 C.3   401  BOG401      0.0000
     20  C8'        8.9270   25.1490   43.2440 C.3   401  BOG401      0.0000
@<TRIPOS>BOND
     1    20    19    1
     2    19    18    1
     3    18    17    1
     4    17    16    1
     5    16    15    1
     6    15    14    1
     7    14    13    1
     8    13     2    1
     9     2     1    1
    10    12    11    1
    11    10     1    1
    12    10     9    1
    13     1     3    1
    14     3     4    1
    15     3     5    1
    16    11     9    1
    17     9     7    1
    18     7     5    1
    19     7     8    1
    20     5     6    1
