@<TRIPOS>MOLECULE
1q83_TZ5_A_1.pdb
 50 57 0 0 0
SMALL
GASTEIGER

@<TRIPOS>ATOM
      1  N2        38.9010   20.9180   11.4650 N.pl3 1951  TZ51951    -0.1283
      2  C8        39.1050   22.2690   11.2770 C.2   1951  TZ51951     0.0868
      3  C7        40.2920   22.9460   11.6000 C.2   1951  TZ51951     0.0175
      4  C6        40.4080   24.2850   11.3790 C.2   1951  TZ51951    -0.0010
      5  C5        39.3830   25.1300   10.7970 C.2   1951  TZ51951     0.0003
      6  C19       38.0960   23.0700   10.7510 C.2   1951  TZ51951     0.0161
      7  C18       38.1150   24.4880   10.5410 C.3   1951  TZ51951     0.1232
      8  N3        37.1640   25.1420    9.7080 N.pl3 1951  TZ51951    -0.2799
      9  C11       37.4200   26.2990    9.0340 C.2   1951  TZ51951     0.0520
     10  C12       36.3970   26.9140    8.1160 C.ar  1951  TZ51951     0.0136
     11  C13       35.5300   27.9320    8.5560 C.ar  1951  TZ51951     0.0012
     12  C14       34.5990   28.5070    7.6820 C.ar  1951  TZ51951     0.0000
     13  C15       34.5100   28.0660    6.3530 C.ar  1951  TZ51951     0.0000
     14  C16       35.3570   27.0520    5.8830 C.ar  1951  TZ51951     0.0000
     15  C17       36.2810   26.4960    6.7660 C.ar  1951  TZ51951     0.0012
     16  C10       38.6980   26.9340    9.1710 C.ar  1951  TZ51951     0.0147
     17  C9        38.9430   28.2670    8.6300 C.ar  1951  TZ51951     0.0193
     18  C4        39.6940   26.3720   10.0720 C.ar  1951  TZ51951    -0.0008
     19  C3        40.8030   27.2530   10.3770 C.ar  1951  TZ51951     0.0012
     20  C2        40.9740   28.5160    9.8550 C.ar  1951  TZ51951     0.0180
     21  C1        40.0270   29.0850    8.9430 C.ar  1951  TZ51951     0.0891
     22  N1        40.1590   30.3490    8.3960 N.pl3 1951  TZ51951    -0.1281
     23  C20       35.8120   24.5110    9.5120 C.2   1951  TZ51951     0.0612
     24  C21       35.6220   23.5010    8.3590 C.2   1951  TZ51951    -0.0101
     25  C22       34.1670   23.0050    8.1460 C.3   1951  TZ51951     0.0274
     26  C23       33.4440   22.7850    9.4740 C.3   1951  TZ51951     0.0051
     27  C24       32.1100   22.0620    9.3630 C.3   1951  TZ51951     0.0067
     28  C25       31.3560   22.3370   10.6500 C.3   1951  TZ51951     0.0472
     29  C26       31.1550   21.2470   11.6500 C.ar  1951  TZ51951     0.0781
     30  N4        31.1690   21.1640   12.9950 N.ar  1951  TZ51951    -0.2339
     31  N5        30.8620   19.9550   13.4210 N.ar  1951  TZ51951    -0.0641
     32  N6        30.6140   19.1340   12.4430 N.ar  1951  TZ51951    -0.1275
     33  C27       30.7900   19.9420   11.4160 C.ar  1951  TZ51951     0.1381
     34  C28       31.4670   22.2890   13.8610 C.3   1951  TZ51951     0.1520
     35  C29       30.2140   23.1250   14.1090 C.3   1951  TZ51951     0.1385
     36  N7        29.3190   22.4800   15.0820 N.pl3 1951  TZ51951    -0.2353
     37  C30       28.0830   22.0010   14.6850 C.2   1951  TZ51951     0.0696
     38  C31       27.1280   22.7250   13.9170 C.ar  1951  TZ51951     0.0445
     39  C32       27.2380   24.1160   13.5150 C.ar  1951  TZ51951     0.0038
     40  C33       25.9150   22.0810   13.5640 C.ar  1951  TZ51951     0.1322
     41  C34       24.9380   22.8280   12.8140 C.ar  1951  TZ51951     0.0321
     42  C35       25.1060   24.1260   12.4510 C.ar  1951  TZ51951     0.0026
     43  C36       26.2980   24.7910   12.8130 C.ar  1951  TZ51951     0.0002
     44  N8        25.6220   20.8320   13.9560 N.2   1951  TZ51951    -0.4062
     45  C37       26.5130   20.1200   14.6760 C.2   1951  TZ51951     0.1098
     46  C38       26.1340   18.8120   15.1710 C.3   1951  TZ51951     0.0594
     47  C39       27.7540   20.6860   15.1080 C.2   1951  TZ51951     0.0361
     48  C40       28.4560   19.8840   16.0930 C.2   1951  TZ51951    -0.0226
     49  C41       28.0000   18.6590   16.5150 C.3   1951  TZ51951     0.0266
     50  C42       27.0180   17.9550   15.7610 C.3   1951  TZ51951     0.0121
@<TRIPOS>BOND
     1    14    13   ar
     2    14    15   ar
     3    13    12   ar
     4    15    10   ar
     5    12    11   ar
     6    10    11   ar
     7    10     9    1
     8    25    24    1
     9    25    26    1
    10    24    23    2
    11    22    21    1
    12    17    21   ar
    13    17    16   ar
    14    21    20   ar
    15     9    16    2
    16     9     8    1
    17    16    18   ar
    18    27    26    1
    19    27    28    1
    20    23     8    1
    21     8     7    1
    22    20    19   ar
    23    18    19   ar
    24    18     5    2
    25     7     6    1
    26     7     5    1
    27    28    29    1
    28     6     2    2
    29     5     4    1
    30     2     1    1
    31     2     3    1
    32     4     3    2
    33    33    29   ar
    34    33    32   ar
    35    29    30   ar
    36    32    31   ar
    37    42    43   ar
    38    42    41   ar
    39    43    39   ar
    40    41    40   ar
    41    30    31   ar
    42    30    34    1
    43    39    38   ar
    44    40    38   ar
    45    40    44    2
    46    34    35    1
    47    38    37    2
    48    44    45    2
    49    35    36    1
    50    45    47    1
    51    45    46    1
    52    37    36    1
    53    37    47    1
    54    47    48    2
    55    46    50    1
    56    50    49    1
    57    48    49    1
