@<TRIPOS>MOLECULE
1q84_TZ4_A_1.pdb
 50 57 0 0 0
SMALL
GASTEIGER

@<TRIPOS>ATOM
      1  N3        41.0100   28.3000    9.8790 N.pl3 951  TZ4951     -0.1281
      2  C19       40.7450   27.4150    8.8530 C.ar  951  TZ4951      0.0891
      3  C18       41.7090   27.0880    7.8540 C.ar  951  TZ4951      0.0180
      4  C17       41.4360   26.1960    6.8240 C.ar  951  TZ4951      0.0012
      5  C16       40.1850   25.5070    6.6570 C.ar  951  TZ4951     -0.0012
      6  C14       39.1970   25.8280    7.6580 C.ar  951  TZ4951      0.0147
      7  C15       39.5220   26.7700    8.7120 C.ar  951  TZ4951      0.0193
      8  C7        37.8860   25.3020    7.5300 C.2   951  TZ4951      0.0515
      9  C8        36.8630   25.5830    8.5900 C.ar  951  TZ4951      0.0136
     10  C9        36.6780   24.5480    9.5190 C.ar  951  TZ4951      0.0012
     11  C10       35.7530   24.6770   10.5520 C.ar  951  TZ4951      0.0000
     12  C11       34.9890   25.8470   10.6990 C.ar  951  TZ4951      0.0000
     13  C12       35.1590   26.8940    9.7900 C.ar  951  TZ4951      0.0000
     14  C13       36.0910   26.7560    8.7510 C.ar  951  TZ4951      0.0012
     15  C4        39.8350   24.6260    5.5490 C.2   951  TZ4951     -0.0040
     16  C3        40.7770   24.0550    4.6060 C.3   951  TZ4951      0.0550
     17  C2        40.4560   23.0740    3.6750 C.2   951  TZ4951     -0.0033
     18  C1        39.1320   22.5340    3.5940 C.2   951  TZ4951      0.0864
     19  N1        38.7670   21.5500    2.6940 N.pl3 951  TZ4951     -0.1283
     20  C6        38.4930   24.0940    5.4670 C.2   951  TZ4951      0.0492
     21  C5        38.2160   23.0620    4.5090 C.2   951  TZ4951      0.0322
     22  N2        37.6000   24.4750    6.4880 N.pl3 951  TZ4951     -0.2871
     23  C20       36.1960   23.9670    6.3970 C.3   951  TZ4951      0.0955
     24  C21       35.7670   22.6510    7.0580 C.3   951  TZ4951      0.0218
     25  C22       34.3720   22.3330    6.4880 C.3   951  TZ4951      0.0018
     26  C23       33.7740   21.0610    7.0670 C.3   951  TZ4951      0.0004
     27  C24       33.3450   21.3520    8.4960 C.3   951  TZ4951      0.0060
     28  C25       31.9350   21.9420    8.5240 C.3   951  TZ4951      0.0445
     29  C26       31.6020   21.9110    9.9500 C.2   951  TZ4951      0.0749
     30  N4        31.3130   20.7860   10.5820 N.2   951  TZ4951     -0.1540
     31  N5        31.1120   21.1290   11.8520 N.pl3 951  TZ4951     -0.0631
     32  N6        31.2740   22.4310   12.0060 N.3   951  TZ4951     -0.1616
     33  C27       31.6010   22.9330   10.8220 C.3   951  TZ4951      0.1381
     34  C28       31.1690   23.2930   13.1720 C.3   951  TZ4951      0.1191
     35  C29       30.5720   22.4520   14.2940 C.3   951  TZ4951      0.1310
     36  N7        29.1730   22.8000   14.3780 N.pl3 951  TZ4951     -0.2399
     37  C30       28.1000   22.0120   14.1050 C.2   951  TZ4951      0.0516
     38  C31       27.1030   22.7150   13.3460 C.3   951  TZ4951      0.1112
     39  C32       27.2450   24.0460   12.7980 C.2   951  TZ4951     -0.0137
     40  C33       25.8880   22.0440   13.0610 C.2   951  TZ4951      0.1176
     41  C34       24.8700   22.7570   12.3570 C.2   951  TZ4951      0.0282
     42  C35       25.0400   24.0110   11.8770 C.2   951  TZ4951      0.0020
     43  C36       26.2540   24.6720   12.1200 C.2   951  TZ4951     -0.0037
     44  N8        25.6840   20.7520   13.4110 N.2   951  TZ4951     -0.4102
     45  C37       26.6110   20.0820   14.1120 C.2   951  TZ4951      0.1055
     46  C38       26.2900   18.7460   14.5800 C.3   951  TZ4951      0.0587
     47  C39       27.8510   20.6960   14.5230 C.2   951  TZ4951      0.0147
     48  C40       28.6250   19.9090   15.4460 C.3   951  TZ4951      0.0296
     49  C41       28.2180   18.6670   15.8570 C.3   951  TZ4951      0.0052
     50  C42       27.2880   17.9330   15.0680 C.3   951  TZ4951      0.0078
@<TRIPOS>BOND
     1    19    18    1
     2    18    17    2
     3    18    21    1
     4    17    16    1
     5    21    20    2
     6    16    15    1
     7    20    15    1
     8    20    22    1
     9    15     5    2
    10    23    22    1
    11    23    24    1
    12    25    24    1
    13    25    26    1
    14    22     8    1
    15     5     4   ar
    16     5     6   ar
    17     4     3   ar
    18    26    27    1
    19     8     6    2
    20     8     9    1
    21     6     7   ar
    22     3     2   ar
    23    27    28    1
    24    28    29    1
    25     9    14   ar
    26     9    10   ar
    27     7     2   ar
    28    14    13   ar
    29     2     1    1
    30    10    11   ar
    31    13    12   ar
    32    29    30    2
    33    29    33    1
    34    11    12   ar
    35    30    31    1
    36    33    32    1
    37    31    32    1
    38    42    43    1
    39    42    41    2
    40    32    34    1
    41    43    39    2
    42    41    40    1
    43    39    38    1
    44    40    38    1
    45    40    44    2
    46    34    35    1
    47    38    37    1
    48    44    45    2
    49    37    36    1
    50    37    47    2
    51    45    47    1
    52    45    46    1
    53    35    36    1
    54    47    48    1
    55    46    50    1
    56    50    49    1
    57    48    49    1
