@<TRIPOS>MOLECULE
1q8m_GSH_A_1.pdb
 20 19 0 0 0
SMALL
GASTEIGER

@<TRIPOS>ATOM
      1  N1        27.9930   89.9430    7.1460 N.3   999  GSH999     -0.1208
      2  CA1       28.5330   90.6930    6.0230 C.3   999  GSH999      0.1948
      3  C1        29.9090   90.2880    5.5580 C.2   999  GSH999      0.3819
      4  O11       30.1720   89.8650    4.3960 O.co2 999  GSH999     -0.2441
      5  O12       30.7100   90.2250    6.6130 O.co2 999  GSH999     -0.2441
      6  CB1       27.4020   91.7620    5.8940 C.3   999  GSH999      0.0402
      7  CG1       26.7490   91.3800    4.5130 C.3   999  GSH999      0.0889
      8  CD1       25.6570   90.3520    4.8510 C.2   999  GSH999      0.2418
      9  OE1       24.5360   90.3500    5.2970 O.2   999  GSH999     -0.2733
     10  N2        26.4430   89.2100    4.6210 N.am  999  GSH999     -0.1968
     11  CA2       26.2940   87.7600    4.7750 C.3   999  GSH999      0.1843
     12  C2        25.1790   87.2020    3.8330 C.2   999  GSH999      0.2627
     13  O2        25.4410   86.3380    3.0280 O.2   999  GSH999     -0.2714
     14  CB2       26.0310   87.6850    6.2520 C.3   999  GSH999      0.0997
     15  SG2       27.0700   86.8760    7.5050 S.3   999  GSH999     -0.0797
     16  N3        24.0570   87.9920    3.7400 N.am  999  GSH999     -0.1917
     17  CA3       23.4520   88.3840    2.4460 C.3   999  GSH999      0.2285
     18  C3        22.2630   89.3160    2.5520 C.2   999  GSH999      0.3865
     19  O31       22.4710   90.2640    1.7590 O.co2 999  GSH999     -0.2437
     20  O32       21.4440   89.4110    3.4470 O.co2 999  GSH999     -0.2437
@<TRIPOS>BOND
     1    19    18   ar
     2    17    18    1
     3    17    16    1
     4    18    20   ar
     5    13    12    2
     6    16    12   am
     7    12    11    1
     8     4     3   ar
     9     7     8    1
    10     7     6    1
    11    10    11    1
    12    10     8   am
    13    11    14    1
    14     8     9    2
    15     3     2    1
    16     3     5   ar
    17     6     2    1
    18     2     1    1
    19    14    15    1
