@<TRIPOS>MOLECULE
1q8o_MAN_A_1.pdb
 11 11 0 0 0
SMALL
GASTEIGER

@<TRIPOS>ATOM
      1  C1         3.1580   40.7810   22.6270 C.3   253  MAN253      0.1777
      2  C2         2.9560   39.6530   21.6090 C.3   253  MAN253      0.2141
      3  C3         4.2760   39.3110   20.9020 C.3   253  MAN253      0.2173
      4  C4         4.9820   40.5610   20.3640 C.3   253  MAN253      0.2142
      5  C5         5.0830   41.6370   21.4490 C.3   253  MAN253      0.1810
      6  C6         5.6090   42.9490   20.9050 C.3   253  MAN253      0.2141
      7  O2         1.9790   40.0380   20.6530 O.3   253  MAN253     -0.2176
      8  O3         4.0220   38.4240   19.8240 O.3   253  MAN253     -0.2175
      9  O4         6.2870   40.2070   19.9290 O.3   253  MAN253     -0.2176
     10  O5         3.7770   41.9050   22.0060 O.3   253  MAN253     -0.3481
     11  O6         4.5720   43.6890   20.2770 O.3   253  MAN253     -0.2176
@<TRIPOS>BOND
     1     8     3    1
     2     9     4    1
     3    11     6    1
     4     4     3    1
     5     4     5    1
     6     7     2    1
     7     3     2    1
     8     6     5    1
     9     5    10    1
    10     2     1    1
    11    10     1    1
