@<TRIPOS>MOLECULE
1q8o_MMA_A_1.pdb
 13 13 0 0 0
SMALL
GASTEIGER

@<TRIPOS>ATOM
      1  C1         4.7120   41.6980   25.5750 C.3   254  MMA254      0.2695
      2  C2         3.5140   40.9430   24.9740 C.3   254  MMA254      0.2406
      3  C3         2.9680   39.8960   25.9460 C.3   254  MMA254      0.2198
      4  C4         4.0810   39.0320   26.5360 C.3   254  MMA254      0.2144
      5  C5         5.2080   39.9150   27.0840 C.3   254  MMA254      0.1835
      6  C6         6.3830   39.1180   27.6310 C.3   254  MMA254      0.2142
      7  C7         3.6640   43.7020   26.3930 C.3   254  MMA254      0.1769
      8  O1         4.2860   42.4460   26.6650 O.3   254  MMA254     -0.3259
      9  O2         3.8800   40.3140   23.7340 O.3   254  MMA254     -0.2149
     10  O3         2.0420   39.0610   25.2730 O.3   254  MMA254     -0.2174
     11  O4         3.5470   38.2440   27.5860 O.3   254  MMA254     -0.2176
     12  O5         5.7100   40.7730   26.0370 O.3   254  MMA254     -0.3256
     13  O6         7.1660   38.5610   26.5830 O.3   254  MMA254     -0.2176
@<TRIPOS>BOND
     1     9     2    1
     2     2     1    1
     3     2     3    1
     4    10     3    1
     5     1    12    1
     6     1     8    1
     7     3     4    1
     8    12     5    1
     9     7     8    1
    10     4     5    1
    11     4    11    1
    12    13     6    1
    13     5     6    1
