@<TRIPOS>MOLECULE
1q8p_MMA_A_1.pdb
 13 13 0 0 0
SMALL
GASTEIGER

@<TRIPOS>ATOM
      1  C1         6.1750   44.5070   29.7070 C.3   254  MMA254      0.2695
      2  C2         5.2380   43.4690   29.0810 C.3   254  MMA254      0.2406
      3  C3         4.9280   43.8850   27.6440 C.3   254  MMA254      0.2198
      4  C4         4.3390   45.2920   27.6100 C.3   254  MMA254      0.2144
      5  C5         5.3060   46.2580   28.3020 C.3   254  MMA254      0.1835
      6  C6         4.7470   47.6620   28.3990 C.3   254  MMA254      0.2142
      7  C7         8.4250   45.3000   29.5590 C.3   254  MMA254      0.1769
      8  O1         7.3640   44.5420   28.9920 O.3   254  MMA254     -0.3259
      9  O2         4.0360   43.3770   29.8360 O.3   254  MMA254     -0.2149
     10  O3         4.0160   42.9540   27.0380 O.3   254  MMA254     -0.2174
     11  O4         4.1400   45.6910   26.2620 O.3   254  MMA254     -0.2176
     12  O5         5.5740   45.8140   29.6510 O.3   254  MMA254     -0.3256
     13  O6         3.4560   47.6560   28.9870 O.3   254  MMA254     -0.2176
@<TRIPOS>BOND
     1    11     4    1
     2    10     3    1
     3     4     3    1
     4     4     5    1
     5     3     2    1
     6     5     6    1
     7     5    12    1
     8     6    13    1
     9     8     7    1
    10     8     1    1
    11     2     1    1
    12     2     9    1
    13    12     1    1
