@<TRIPOS>MOLECULE
1q8p_MAN_A_1.pdb
 11 11 0 0 0
SMALL
GASTEIGER

@<TRIPOS>ATOM
      1  C1         4.5950   42.1700   26.0310 C.3   253  MAN253      0.1777
      2  C2         3.5120   41.3660   25.3110 C.3   253  MAN253      0.2141
      3  C3         2.9310   40.3150   26.2600 C.3   253  MAN253      0.2173
      4  C4         4.0500   39.4370   26.8240 C.3   253  MAN253      0.2142
      5  C5         5.1270   40.3060   27.4780 C.3   253  MAN253      0.1810
      6  C6         6.3280   39.4990   27.9320 C.3   253  MAN253      0.2141
      7  O2         4.0750   40.7280   24.1750 O.3   253  MAN253     -0.2176
      8  O3         1.9900   39.5110   25.5660 O.3   253  MAN253     -0.2175
      9  O4         3.5140   38.5390   27.7850 O.3   253  MAN253     -0.2176
     10  O5         5.6060   41.2960   26.5360 O.3   253  MAN253     -0.3481
     11  O6         7.0030   38.9200   26.8240 O.3   253  MAN253     -0.2176
@<TRIPOS>BOND
     1     7     2    1
     2     2     1    1
     3     2     3    1
     4     8     3    1
     5     1    10    1
     6     3     4    1
     7    10     5    1
     8     4     5    1
     9     4     9    1
    10    11     6    1
    11     5     6    1
