@<TRIPOS>MOLECULE
1q8q_MAN_A_1.pdb
 11 11 0 0 0
SMALL
GASTEIGER

@<TRIPOS>ATOM
      1  C1         4.5290   42.0240   25.6770 C.3   253  MAN253      0.1777
      2  C2         3.4720   41.1230   25.0390 C.3   253  MAN253      0.2141
      3  C3         2.9060   40.1710   26.0940 C.3   253  MAN253      0.2173
      4  C4         4.0350   39.3720   26.7380 C.3   253  MAN253      0.2142
      5  C5         5.0940   40.3270   27.3030 C.3   253  MAN253      0.1810
      6  C6         6.3110   39.5950   27.8410 C.3   253  MAN253      0.2141
      7  O2         4.0610   40.3750   23.9880 O.3   253  MAN253     -0.2176
      8  O3         1.9700   39.2870   25.4970 O.3   253  MAN253     -0.2175
      9  O4         3.5050   38.5780   27.7840 O.3   253  MAN253     -0.2176
     10  O5         5.5550   41.2280   26.2680 O.3   253  MAN253     -0.3481
     11  O6         7.0800   39.0280   26.7900 O.3   253  MAN253     -0.2176
@<TRIPOS>BOND
     1     7     2    1
     2     2     1    1
     3     2     3    1
     4     8     3    1
     5     1    10    1
     6     3     4    1
     7    10     5    1
     8     4     5    1
     9     4     9    1
    10    11     6    1
    11     5     6    1
