@<TRIPOS>MOLECULE
1q8q_MMA_A_1.pdb
 13 13 0 0 0
SMALL
GASTEIGER

@<TRIPOS>ATOM
      1  C1         4.4120   46.8820   27.7470 C.3   254  MMA254      0.2695
      2  C2         4.2510   46.6180   26.2480 C.3   254  MMA254      0.2406
      3  C3         3.6690   45.2200   26.0310 C.3   254  MMA254      0.2198
      4  C4         4.5360   44.1750   26.7300 C.3   254  MMA254      0.2144
      5  C5         4.6830   44.5370   28.2110 C.3   254  MMA254      0.1835
      6  C6         5.5960   43.5810   28.9630 C.3   254  MMA254      0.2142
      7  C7         2.9160   47.8540   29.3230 C.3   254  MMA254      0.1769
      8  O1         3.1680   46.8410   28.3570 O.3   254  MMA254     -0.3259
      9  O2         5.5150   46.7130   25.6090 O.3   254  MMA254     -0.2149
     10  O3         3.6040   44.9360   24.6410 O.3   254  MMA254     -0.2174
     11  O4         3.9200   42.8810   26.5990 O.3   254  MMA254     -0.2176
     12  O5         5.2390   45.8680   28.3450 O.3   254  MMA254     -0.3256
     13  O6         6.9250   44.0750   29.0360 O.3   254  MMA254     -0.2176
@<TRIPOS>BOND
     1    10     3    1
     2     9     2    1
     3     3     2    1
     4     3     4    1
     5     2     1    1
     6    11     4    1
     7     4     5    1
     8     1    12    1
     9     1     8    1
    10     5    12    1
    11     5     6    1
    12     8     7    1
    13     6    13    1
