@<TRIPOS>MOLECULE
1q8s_MAN_A_1.pdb
 11 11 0 0 0
SMALL
GASTEIGER

@<TRIPOS>ATOM
      1  C1         4.3620   42.1300   25.6590 C.3   253  MAN253      0.1777
      2  C2         3.2310   41.3320   24.9970 C.3   253  MAN253      0.2141
      3  C3         2.6440   40.3220   25.9910 C.3   253  MAN253      0.2173
      4  C4         3.7490   39.4520   26.6010 C.3   253  MAN253      0.2142
      5  C5         4.8660   40.3300   27.1720 C.3   253  MAN253      0.1810
      6  C6         6.0490   39.5300   27.6810 C.3   253  MAN253      0.2141
      7  O2         3.7300   40.6450   23.8600 O.3   253  MAN253     -0.2176
      8  O3         1.7000   39.4970   25.3290 O.3   253  MAN253     -0.2175
      9  O4         3.2020   38.6570   27.6380 O.3   253  MAN253     -0.2176
     10  O5         5.3530   41.2330   26.1520 O.3   253  MAN253     -0.3481
     11  O6         6.8840   39.1130   26.6140 O.3   253  MAN253     -0.2176
@<TRIPOS>BOND
     1     7     2    1
     2     2     1    1
     3     2     3    1
     4     8     3    1
     5     1    10    1
     6     3     4    1
     7    10     5    1
     8     4     5    1
     9     4     9    1
    10    11     6    1
    11     5     6    1
