@<TRIPOS>MOLECULE
1q8s_MMA_A_1.pdb
 13 13 0 0 0
SMALL
GASTEIGER

@<TRIPOS>ATOM
      1  C1         5.5450   46.7500   27.9430 C.3   254  MMA254      0.2695
      2  C2         4.5130   47.7760   28.4440 C.3   254  MMA254      0.2406
      3  C3         3.2090   47.0780   28.8410 C.3   254  MMA254      0.2198
      4  C4         2.7060   46.2060   27.6910 C.3   254  MMA254      0.2144
      5  C5         3.8170   45.2260   27.3240 C.3   254  MMA254      0.1835
      6  C6         3.4630   44.2420   26.2410 C.3   254  MMA254      0.2142
      7  C7         7.0770   45.1120   28.7790 C.3   254  MMA254      0.1769
      8  O1         5.9100   45.9010   28.9820 O.3   254  MMA254     -0.3259
      9  O2         4.2500   48.7270   27.4260 O.3   254  MMA254     -0.2149
     10  O3         2.2220   48.0390   29.1850 O.3   254  MMA254     -0.2174
     11  O4         1.5390   45.5050   28.0970 O.3   254  MMA254     -0.2176
     12  O5         4.9840   45.9510   26.8890 O.3   254  MMA254     -0.3256
     13  O6         3.8350   42.9260   26.6840 O.3   254  MMA254     -0.2176
@<TRIPOS>BOND
     1     6    13    1
     2     6     5    1
     3    12     5    1
     4    12     1    1
     5     5     4    1
     6     9     2    1
     7     4    11    1
     8     4     3    1
     9     1     2    1
    10     1     8    1
    11     2     3    1
    12     7     8    1
    13     3    10    1
