@<TRIPOS>MOLECULE
1q8t_Y27_A_1.pdb
 18 19 0 0 0
SMALL
GASTEIGER

@<TRIPOS>ATOM
      1  O23        7.5670    9.6490    1.6590 O.2   930  Y27930     -0.2730
      2  C22        7.9850    9.4820    2.8080 C.2   930  Y27930      0.2451
      3  C31        9.3900    9.0330    3.1220 C.3   930  Y27930      0.0786
      4  C36        9.8020    7.9260    2.1470 C.3   930  Y27930      0.0092
      5  C35       11.1770    7.3720    2.5330 C.3   930  Y27930      0.0019
      6  C34       12.1910    8.5000    2.3070 C.3   930  Y27930      0.0176
      7  C33       11.8850    9.6720    3.2770 C.3   930  Y27930      0.0019
      8  C32       10.4100   10.1890    3.1380 C.3   930  Y27930      0.0092
      9  C41       13.6350    7.9160    2.3770 C.3   930  Y27930      0.0918
     10  C42       14.0090    7.2340    1.0480 C.3   930  Y27930      0.0205
     11  N43       14.6510    8.9840    2.6880 N.3   930  Y27930     -0.1329
     12  N21        7.1750    9.6680    3.9630 N.am  930  Y27930     -0.1791
     13  C14        5.7350    9.7420    4.0100 C.ar  930  Y27930      0.0765
     14  C15        5.1650    9.6930    5.2930 C.ar  930  Y27930      0.0373
     15  C16        3.7700    9.7460    5.3480 C.ar  930  Y27930      0.1002
     16  N11        3.0100    9.8540    4.2380 N.ar  930  Y27930     -0.2422
     17  C12        3.5410    9.9010    3.0060 C.ar  930  Y27930      0.1002
     18  C13        4.9180    9.8440    2.8470 C.ar  930  Y27930      0.0373
@<TRIPOS>BOND
     1    10     9    1
     2     1     2    2
     3     4     5    1
     4     4     3    1
     5     6     9    1
     6     6     5    1
     7     6     7    1
     8     9    11    1
     9     2     3    1
    10     2    12   am
    11    18    17   ar
    12    18    13   ar
    13    17    16   ar
    14     3     8    1
    15     8     7    1
    16    12    13    1
    17    13    14   ar
    18    16    15   ar
    19    14    15   ar
