@<TRIPOS>MOLECULE
1q8u_H52_A_1.pdb
 22 24 0 0 0
SMALL
GASTEIGER

@<TRIPOS>ATOM
      1  O1         9.0020   11.3030    4.8480 O.2   961  H52961     -0.1528
      2  S5         8.8080    9.9310    4.3060 S.O2  961  H52961      0.0633
      3  O2         8.5320    8.8530    5.2640 O.2   961  H52961     -0.1528
      4  N21       10.1290    9.3450    3.3860 N.3   961  H52961     -0.1554
      5  C22       10.5140    7.8890    3.6060 C.3   961  H52961      0.0969
      6  C2M        9.5510    6.9010    2.9710 C.3   961  H52961      0.0207
      7  C23       11.9540    7.5010    3.2490 C.3   961  H52961      0.1063
      8  N24       12.8840    8.2120    4.2120 N.3   961  H52961     -0.2165
      9  C25       13.3440    9.5160    3.5810 C.3   961  H52961      0.0902
     10  C26       12.2700   10.6190    3.5870 C.3   961  H52961      0.0379
     11  C27       11.0890   10.2490    2.6990 C.3   961  H52961      0.0973
     12  C5         7.3940    9.9380    3.2180 C.ar  961  H52961      0.1220
     13  C10        5.9780    9.8950    3.6190 C.ar  961  H52961      0.0177
     14  C4         5.3680    9.9110    4.9390 C.ar  961  H52961     -0.0014
     15  CM         6.0680   10.0340    6.2580 C.3   961  H52961      0.0327
     16  C9         5.0230    9.8180    2.5610 C.ar  961  H52961      0.0202
     17  C8         5.4370    9.7960    1.2000 C.ar  961  H52961      0.0016
     18  C7         6.7620    9.8350    0.8680 C.ar  961  H52961      0.0014
     19  C6         7.7460    9.8780    1.8860 C.ar  961  H52961      0.0199
     20  C1         3.6240    9.7490    2.8360 C.ar  961  H52961      0.0989
     21  N2         3.1610    9.7220    4.0620 N.ar  961  H52961     -0.2426
     22  C3         4.0030    9.8280    5.1100 C.ar  961  H52961      0.0946
@<TRIPOS>BOND
     1    18    17   ar
     2    18    19   ar
     3    17    16   ar
     4    19    12   ar
     5    16    20   ar
     6    16    13   ar
     7    11     4    1
     8    11    10    1
     9    20    21   ar
    10     6     5    1
    11    12    13   ar
    12    12     2    1
    13     7     5    1
    14     7     8    1
    15     4     5    1
    16     4     2    1
    17     9    10    1
    18     9     8    1
    19    13    14   ar
    20    21    22   ar
    21     2     1    2
    22     2     3    2
    23    14    22   ar
    24    14    15    1
