@<TRIPOS>MOLECULE
1q8v_MAN_A_1.pdb
 11 11 0 0 0
SMALL
GASTEIGER

@<TRIPOS>ATOM
      1  C1         4.8330   42.0950   25.7610 C.3   253  MAN253      0.1777
      2  C2         3.7400   41.2670   25.0800 C.3   253  MAN253      0.2141
      3  C3         3.1640   40.2430   26.0650 C.3   253  MAN253      0.2173
      4  C4         4.2850   39.3950   26.6770 C.3   253  MAN253      0.2142
      5  C5         5.3540   40.3050   27.2900 C.3   253  MAN253      0.1810
      6  C6         6.5540   39.5350   27.8040 C.3   253  MAN253      0.2141
      7  O2         4.2790   40.5960   23.9510 O.3   253  MAN253     -0.2176
      8  O3         2.2420   39.4020   25.3910 O.3   253  MAN253     -0.2175
      9  O4         3.7480   38.5440   27.6810 O.3   253  MAN253     -0.2176
     10  O5         5.8360   41.2340   26.2960 O.3   253  MAN253     -0.3481
     11  O6         7.2430   38.8920   26.7420 O.3   253  MAN253     -0.2176
@<TRIPOS>BOND
     1     7     2    1
     2     2     1    1
     3     2     3    1
     4     8     3    1
     5     1    10    1
     6     3     4    1
     7    10     5    1
     8     4     5    1
     9     4     9    1
    10    11     6    1
    11     5     6    1
