@<TRIPOS>MOLECULE
1q8w_M77_A_1.pdb
 20 22 0 0 0
SMALL
GASTEIGER

@<TRIPOS>ATOM
      1  O1        26.9940   26.9540    9.2830 O.2   960  M77960     -0.1528
      2  S1        27.1860   25.7920    8.4080 S.O2  960  M77960      0.0633
      3  O2        27.9860   26.0500    7.2280 O.2   960  M77960     -0.1528
      4  N4        27.9080   24.6030    9.2490 N.3   960  M77960     -0.1540
      5  C22       27.4130   24.2840   10.6350 C.3   960  M77960      0.1146
      6  C21       28.4790   24.0170   11.7230 C.3   960  M77960      0.1078
      7  N17       29.7220   24.8500   11.4750 N.3   960  M77960     -0.2165
      8  C16       30.6460   24.1750   10.4640 C.3   960  M77960      0.0902
      9  C20       30.3290   24.5740    9.0120 C.3   960  M77960      0.0379
     10  C15       29.0210   23.8900    8.5770 C.3   960  M77960      0.0973
     11  C5        25.7240   24.8810    7.9650 C.ar  960  M77960      0.1223
     12  C6        25.7800   23.4940    7.8520 C.ar  960  M77960      0.0199
     13  C7        24.6130   22.7330    7.5170 C.ar  960  M77960      0.0014
     14  C8        23.3990   23.3610    7.3210 C.ar  960  M77960      0.0016
     15  C9        23.3330   24.7720    7.4130 C.ar  960  M77960      0.0205
     16  C10       24.4820   25.5390    7.7340 C.ar  960  M77960      0.0217
     17  C11       24.3120   26.9510    7.8040 C.ar  960  M77960      0.0220
     18  C14       22.1280   25.4500    7.1710 C.ar  960  M77960      0.0989
     19  N13       21.9990   26.7680    7.2870 N.ar  960  M77960     -0.2423
     20  C12       23.0920   27.5280    7.5800 C.ar  960  M77960      0.0989
@<TRIPOS>BOND
     1    18    19   ar
     2    18    15   ar
     3     3     2    2
     4    19    20   ar
     5    14    15   ar
     6    14    13   ar
     7    15    16   ar
     8    13    12   ar
     9    20    17   ar
    10    16    17   ar
    11    16    11   ar
    12    12    11   ar
    13    11     2    1
    14     2     4    1
    15     2     1    2
    16    10     9    1
    17    10     4    1
    18     9     8    1
    19     4     5    1
    20     8     7    1
    21     5     6    1
    22     7     6    1
