@<TRIPOS>MOLECULE
1q90_HEM_A_1.pdb
 43 50 0 0 0
SMALL
GASTEIGER

@<TRIPOS>ATOM
      1  CHA       33.4220  131.5420   93.7380 C.2   900  HEM900      0.0000
      2  CHB       37.0200  132.8710   96.6940 C.2   900  HEM900      0.0000
      3  CHC       36.0600  137.4950   95.8450 C.2   900  HEM900      0.0000
      4  CHD       32.4440  136.2170   92.9750 C.2   900  HEM900      0.0000
      5  C1A       34.5080  131.4990   94.6040 C.2   900  HEM900      0.0000
      6  C2A       35.1010  130.2790   95.0480 C.2   900  HEM900      0.0000
      7  C3A       36.1100  130.6160   95.8890 C.2   900  HEM900      0.0000
      8  C4A       36.1300  132.0970   95.9410 C.2   900  HEM900      0.0000
      9  CMA       37.0770  129.7200   96.6580 C.3   900  HEM900      0.0000
     10  CAA       34.6810  128.8380   94.6410 C.3   900  HEM900      0.0000
     11  CBA       33.7620  128.1910   95.6590 C.3   900  HEM900      0.0000
     12  CGA       33.3210  126.7850   95.3070 C.2   900  HEM900      0.0000
     13  O1A       33.2990  126.3790   94.1200 O.co2 900  HEM900      0.0000
     14  O2A       32.9840  126.0490   96.2930 O.co2 900  HEM900      0.0000
     15  C1B       37.0820  134.2170   96.7540 C.ar  900  HEM900      0.0000
     16  C2B       38.0030  134.9910   97.5300 C.ar  900  HEM900      0.0000
     17  C3B       37.7370  136.2860   97.2870 C.ar  900  HEM900      0.0000
     18  C4B       36.6200  136.3280   96.3400 C.ar  900  HEM900      0.0000
     19  CMB       39.0720  134.3790   98.4490 C.3   900  HEM900      0.0000
     20  CAB       38.3920  137.5830   97.8310 C.3   900  HEM900      0.0000
     21  CBB       39.9660  137.6360   97.6780 C.3   900  HEM900      0.0000
     22  C1C       34.9960  137.5540   94.9700 C.2   900  HEM900      0.0000
     23  C2C       34.4490  138.7790   94.4920 C.2   900  HEM900      0.0000
     24  C3C       33.4260  138.4360   93.6880 C.2   900  HEM900      0.0000
     25  C4C       33.3600  136.9890   93.6760 C.2   900  HEM900      0.0000
     26  CMC       34.9580  140.1600   94.8600 C.3   900  HEM900      0.0000
     27  CAC       32.4660  139.3200   92.9150 C.3   900  HEM900      0.0000
     28  CBC       33.1270  140.3000   91.9160 C.3   900  HEM900      0.0000
     29  C1D       32.3840  134.8660   92.9450 C.ar  900  HEM900      0.0000
     30  C2D       31.4130  134.0170   92.1950 C.ar  900  HEM900      0.0000
     31  C3D       31.6710  132.7210   92.3890 C.ar  900  HEM900      0.0000
     32  C4D       32.8450  132.7030   93.3020 C.ar  900  HEM900      0.0000
     33  CMD       30.2840  134.6730   91.3240 C.3   900  HEM900      0.0000
     34  CAD       30.9300  131.5750   91.8080 C.3   900  HEM900      0.0000
     35  CBD       31.7180  131.0470   90.5830 C.3   900  HEM900      0.0000
     36  CGD       30.9240  130.3620   89.5160 C.2   900  HEM900      0.0000
     37  O1D       30.6440  129.1430   89.5470 O.co2 900  HEM900      0.0000
     38  O2D       30.5680  131.1340   88.5890 O.co2 900  HEM900      0.0000
     39  NA        35.1330  132.6110   95.1280 N.2   900  HEM900      0.0000
     40  NB        36.2170  135.0550   96.0260 N.ar  900  HEM900      0.0000
     41  NC        34.3500  136.4870   94.4740 N.2   900  HEM900      0.0000
     42  ND        33.2300  133.9780   93.6160 N.ar  900  HEM900      0.0000
     43 FE         34.7350  134.5380   94.8190 Fe    900  HEM900      0.0000
@<TRIPOS>BOND
     1    38    36   ar
     2    36    37   ar
     3    36    35    1
     4    35    34    1
     5    33    30    1
     6    34    31    1
     7    28    27    1
     8    30    31   ar
     9    30    29   ar
    10    31    32   ar
    11    27    24    1
    12    29     4    2
    13    29    42   ar
    14     4    25    1
    15    32    42   ar
    16    32     1    2
    17    42    43    1
    18    25    24    1
    19    25    41    2
    20    24    23    2
    21     1     5    1
    22    13    12   ar
    23    41    43    1
    24    41    22    1
    25    23    26    1
    26    23    22    1
    27     5     6    1
    28     5    39    2
    29    10     6    1
    30    10    11    1
    31    43    39    1
    32    43    40    1
    33    22     3    2
    34     6     7    2
    35    39     8    1
    36    12    11    1
    37    12    14   ar
    38     3    18    1
    39     7     8    1
    40     7     9    1
    41     8     2    2
    42    40    18   ar
    43    40    15   ar
    44    18    17   ar
    45     2    15    1
    46    15    16   ar
    47    17    16   ar
    48    17    20    1
    49    16    19    1
    50    21    20    1
