@<TRIPOS>MOLECULE
1q90_TDS_D_1.pdb
 30 31 0 0 0
SMALL
GASTEIGER

@<TRIPOS>ATOM
      1  CBC       33.5010  170.6300  129.6130 C.3   920  TDS920      0.0050
      2  CBB       32.9370  169.3020  130.1810 C.3   920  TDS920      0.0257
      3  CBA       31.9100  168.3220  129.5490 C.2   920  TDS920     -0.0307
      4  CAZ       31.4050  167.0260  130.2320 C.2   920  TDS920     -0.0307
      5  CAY       30.6850  165.8130  129.5940 C.3   920  TDS920      0.0257
      6  CAX       31.4040  164.5340  129.1570 C.3   920  TDS920      0.0047
      7  CAW       30.7730  163.1240  129.0250 C.3   920  TDS920      0.0003
      8  CAV       31.2690  161.9540  128.1440 C.3   920  TDS920      0.0000
      9  CAU       30.6980  160.5770  128.5550 C.3   920  TDS920      0.0000
     10  CAT       31.3370  159.3570  127.8400 C.3   920  TDS920      0.0000
     11  CAS       31.6520  158.1280  128.6750 C.3   920  TDS920      0.0005
     12  CAR       31.5490  156.7250  128.0740 C.3   920  TDS920      0.0079
     13  CAQ       32.4970  156.3630  126.9480 C.3   920  TDS920      0.0643
     14  CAP       32.2110  155.5150  125.6340 C.ar  920  TDS920      0.1220
     15  OAO       33.4140  155.4750  124.8840 O.2   920  TDS920     -0.4544
     16  CAH       31.0410  154.8460  125.1170 C.ar  920  TDS920      0.0475
     17  CAI       29.6780  154.7790  125.7770 C.3   920  TDS920      0.0373
     18  CAG       31.1520  154.1380  123.7890 C.ar  920  TDS920      0.2002
     19  OAC       30.1340  153.5770  123.3680 O.2   920  TDS920     -0.2866
     20  CAF       32.4580  154.1330  123.0250 C.ar  920  TDS920      0.1105
     21  CAN       33.5810  154.8230  123.6240 C.ar  920  TDS920      0.1925
     22  CAM       34.8730  154.8610  122.9550 C.ar  920  TDS920      0.2636
     23  OBD       35.9390  155.5270  123.5490 O.3   920  TDS920     -0.2800
     24  CAL       35.0680  154.2170  121.6800 C.ar  920  TDS920      0.1835
     25  OAK       36.3910  154.3370  121.1360 O.3   920  TDS920     -0.4680
     26  CAJ       36.7300  153.7500  119.8810 C.3   920  TDS920      0.2526
     27  CAD       33.9310  153.5200  121.0720 C.ar  920  TDS920      0.0774
     28  CAE       32.6210  153.4610  121.7170 C.ar  920  TDS920      0.1479
     29  OAB       31.4820  152.7890  121.1510 O.3   920  TDS920     -0.4711
     30  CAA       31.5800  152.1280  119.8840 C.3   920  TDS920      0.2525
@<TRIPOS>BOND
     1    26    25    1
     2    30    29    1
     3    27    24   ar
     4    27    28   ar
     5    25    24    1
     6    29    28    1
     7    24    22   ar
     8    28    20   ar
     9    22    23    1
    10    22    21   ar
    11    20    21   ar
    12    20    18   ar
    13    19    18    2
    14    21    15   ar
    15    18    16   ar
    16    15    14   ar
    17    16    14   ar
    18    16    17    1
    19    14    13    1
    20    13    12    1
    21    10     9    1
    22    10    11    1
    23    12    11    1
    24     8     9    1
    25     8     7    1
    26     7     6    1
    27     6     5    1
    28     3     2    1
    29     3     4    2
    30     5     4    1
    31     1     2    1
