@<TRIPOS>MOLECULE
1q90_BCR_B_1.pdb
 27 27 0 0 0
SMALL
GASTEIGER

@<TRIPOS>ATOM
      1  C1        52.8780  143.9410  142.5010 C.3   904  BCR904      0.0183
      2  C2        54.3520  144.1730  143.1140 C.3   904  BCR904      0.0044
      3  C3        54.5330  143.6990  144.5100 C.3   904  BCR904      0.0047
      4  C4        53.4020  144.2440  145.4090 C.3   904  BCR904      0.0217
      5  C5        51.9940  144.0440  144.9050 C.2   904  BCR904     -0.0479
      6  C6        51.6860  143.8950  143.5590 C.2   904  BCR904     -0.0307
      7  C7        50.2730  143.7010  143.1330 C.2   904  BCR904     -0.0052
      8  C8        49.2800  142.8530  143.4500 C.2   904  BCR904     -0.0046
      9  C9        48.0000  142.6360  142.7800 C.2   904  BCR904     -0.0219
     10  C10       47.1580  141.6840  143.3150 C.2   904  BCR904     -0.0043
     11  C11       47.3140  140.8540  144.4740 C.2   904  BCR904     -0.0006
     12  C33       51.0980  144.0490  146.1280 C.3   904  BCR904      0.0260
     13  C31       52.9480  142.6390  141.7150 C.3   904  BCR904      0.0043
     14  C32       52.7810  145.0790  141.4940 C.3   904  BCR904      0.0043
     15  C34       47.6420  143.4210  141.5380 C.3   904  BCR904      0.0310
     16  C12       46.4560  139.8770  144.8960 C.2   904  BCR904     -0.0043
     17  C13       46.5790  139.0170  146.0500 C.2   904  BCR904     -0.0218
     18  C14       45.6040  138.0460  146.2120 C.2   904  BCR904     -0.0043
     19  C15       45.4960  137.0200  147.2240 C.2   904  BCR904     -0.0003
     20  C16       44.5340  136.0540  147.2980 C.2   904  BCR904     -0.0003
     21  C17       44.5190  135.0420  148.3020 C.2   904  BCR904     -0.0043
     22  C18       43.6600  134.0070  148.4990 C.2   904  BCR904     -0.0222
     23  C19       43.9300  133.1530  149.6140 C.2   904  BCR904     -0.0088
     24  C20       43.2390  132.0520  150.0360 C.2   904  BCR904     -0.0261
     25  C21       43.5320  131.2290  151.1390 C.3   904  BCR904      0.0307
     26  C35       47.7640  139.1470  146.9980 C.3   904  BCR904      0.0310
     27  C36       42.4840  133.7650  147.5880 C.3   904  BCR904      0.0310
@<TRIPOS>BOND
     1    14     1    1
     2    15     9    1
     3    13     1    1
     4     1     2    1
     5     1     6    1
     6     9    10    2
     7     9     8    1
     8     2     3    1
     9     7     8    2
    10     7     6    1
    11    10    11    1
    12     6     5    2
    13    11    16    2
    14     3     4    1
    15    16    17    1
    16     5     4    1
    17     5    12    1
    18    17    18    2
    19    17    26    1
    20    18    19    1
    21    19    20    2
    22    20    21    1
    23    27    22    1
    24    21    22    2
    25    22    23    1
    26    23    24    2
    27    24    25    1
