@<TRIPOS>MOLECULE
1q91_DPB_A_1.pdb
 28 31 0 0 0
SMALL
GASTEIGER

@<TRIPOS>ATOM
      1  C11       15.7740   41.6990   23.9790 C.ar    1  DPB1       -0.0002
      2  C12       14.4380   41.9450   23.7540 C.ar    1  DPB1        0.0008
      3  C7        13.7480   41.0560   22.7860 C.ar    1  DPB1        0.0353
      4  C8        14.4380   39.9480   22.0790 C.ar    1  DPB1        0.0008
      5  C9        15.8150   39.7640   22.3690 C.ar    1  DPB1       -0.0002
      6  C10       16.5820   40.5820   23.3040 C.ar    1  DPB1       -0.0000
      7  C2         9.4350   38.6720   27.0970 C.1     1  DPB1        0.2844
      8  N1        10.0390   39.8490   26.6120 N.am    1  DPB1       -0.1794
      9  C6        11.2860   40.4190   27.1200 C.2     1  DPB1        0.0877
     10  C5        11.8550   39.6750   28.1690 C.2     1  DPB1        0.0891
     11  C4        11.1870   38.4470   28.6500 C.1     1  DPB1        0.2134
     12  N3        10.0600   38.0070   28.1230 N.2     1  DPB1       -0.2455
     13  O2         8.3870   38.1750   26.6860 O.2     1  DPB1       -0.1918
     14  O4        11.7220   37.7990   29.5990 O.2     1  DPB1       -0.2088
     15  C5M       13.2490   40.2440   28.8010 C.3     1  DPB1        0.0462
     16  C1'        9.3270   40.5270   25.5250 C.3     1  DPB1        0.2089
     17  O4'        9.4360   39.7110   24.3840 O.3     1  DPB1       -0.3341
     18  C4'        9.4870   40.6530   23.3520 C.3     1  DPB1        0.1738
     19  C3'       10.0400   41.8640   23.7150 C.3     1  DPB1        0.1521
     20  C2'        9.7220   41.8760   25.1090 C.3     1  DPB1        0.0842
     21  C5'       10.2390   40.1820   22.1920 C.3     1  DPB1        0.1773
     22  O5'       11.7040   40.1400   22.1030 O.3     1  DPB1       -0.3231
     23  C6'       12.2490   41.3800   22.5670 C.3     1  DPB1        0.2537
     24  O3'       11.4590   41.8790   23.6720 O.3     1  DPB1       -0.3256
     25  P         12.1190   42.6730   21.1550 P.3     1  DPB1        0.1733
     26  OP2       12.7140   41.7740   19.9890 O.2     1  DPB1       -0.4549
     27  OP1       13.0710   43.7590   21.4450 O.3     1  DPB1       -0.3537
     28  OP3       10.6860   43.0560   20.8290 O.3     1  DPB1       -0.3537
@<TRIPOS>BOND
     1    26    25    2
     2    28    25    1
     3    25    27    1
     4    25    23    1
     5     4     5   ar
     6     4     3   ar
     7    22    21    1
     8    22    23    1
     9    21    18    1
    10     5     6   ar
    11    23     3    1
    12    23    24    1
    13     3     2   ar
    14     6     1   ar
    15    18    19    1
    16    18    17    1
    17    24    19    1
    18    19    20    1
    19     2     1   ar
    20    17    16    1
    21    20    16    1
    22    16     8    1
    23     8     7   am
    24     8     9    1
    25    13     7    2
    26     7    12    2
    27     9    10    2
    28    12    11    2
    29    10    11    1
    30    10    15    1
    31    11    14    2
