@<TRIPOS>MOLECULE
1q92_DRM_A_1.pdb
 19 20 0 0 0
SMALL
GASTEIGER

@<TRIPOS>ATOM
      1  OP2       17.3620   37.7030   27.3650 O.3   1001  DRM1001    -0.3555
      2  P         17.4570   39.1700   27.1400 P.3   1001  DRM1001     0.1470
      3  OP1       17.9300   39.9880   28.3600 O.3   1001  DRM1001    -0.3555
      4  OP3       18.3030   39.5460   25.8970 O.2   1001  DRM1001    -0.4576
      5  C6'       15.7280   39.6520   26.8000 C.3   1001  DRM1001     0.2000
      6  O5'       15.6240   41.0650   26.8280 O.3   1001  DRM1001    -0.3467
      7  C5'       14.3150   41.5840   26.5370 C.3   1001  DRM1001     0.1350
      8  C4'       14.6750   43.0220   26.3470 C.3   1001  DRM1001     0.0314
      9  C3'       14.1170   43.7960   27.5010 C.3   1001  DRM1001     0.0044
     10  C2'       13.0450   42.9690   28.1170 C.3   1001  DRM1001     0.0236
     11  C1'       13.3160   41.5210   27.7260 C.3   1001  DRM1001     0.1169
     12  N1        12.1250   40.6910   27.4660 N.am  1001  DRM1001    -0.2027
     13  C6        11.3120   40.9940   26.4170 C.2   1001  DRM1001     0.0905
     14  C5        10.2360   40.1790   26.1390 C.2   1001  DRM1001     0.1241
     15  C4         9.9670   39.0450   26.9270 C.1   1001  DRM1001     0.2182
     16  O4         9.0040   38.3140   26.6760 O.2   1001  DRM1001    -0.2085
     17  N3        10.7700   38.7440   27.9880 N.2   1001  DRM1001    -0.2452
     18  C2        11.8330   39.5610   28.2520 C.1   1001  DRM1001     0.2826
     19  O2        12.5830   39.3580   29.2340 O.2   1001  DRM1001    -0.1919
@<TRIPOS>BOND
     1     4     2    2
     2    14    13    2
     3    14    15    1
     4     8     7    1
     5     8     9    1
     6    13    12    1
     7     7     6    1
     8     7    11    1
     9    16    15    2
    10     5     6    1
    11     5     2    1
    12    15    17    2
    13     2     1    1
    14     2     3    1
    15    12    11    1
    16    12    18   am
    17     9    10    1
    18    11    10    1
    19    17    18    2
    20    18    19    2
