@<TRIPOS>MOLECULE
1q95_PAL_A_1.pdb
 16 15 0 0 0
SMALL
GASTEIGER

@<TRIPOS>ATOM
      1  P         33.4760   54.4570   63.9920 P.3   1001  PAL1001     0.1264
      2  O1P       34.1190   55.7270   63.7230 O.2   1001  PAL1001    -0.4596
      3  O2P       32.8700   54.3920   65.3740 O.3   1001  PAL1001    -0.3568
      4  O3P       34.4750   53.2940   63.7970 O.3   1001  PAL1001    -0.3568
      5  C1P       32.1060   54.0500   62.8310 C.3   1001  PAL1001     0.1454
      6  C1        32.4750   54.4020   61.4420 C.2   1001  PAL1001     0.2492
      7  O1        33.1810   53.6500   60.7230 O.2   1001  PAL1001    -0.2728
      8  N2        32.0560   55.5270   60.9840 N.am  1001  PAL1001    -0.1946
      9  C2        32.2790   56.1030   59.7120 C.3   1001  PAL1001     0.2090
     10  C4        33.6950   56.5450   59.4140 C.2   1001  PAL1001     0.3848
     11  O2        34.6240   56.3920   60.2880 O.co2 1001  PAL1001    -0.2437
     12  O3        34.0120   57.0650   58.3180 O.co2 1001  PAL1001    -0.2437
     13  C3        31.2510   57.3080   59.4870 C.3   1001  PAL1001     0.1472
     14  C5        31.2820   58.4880   60.4680 C.2   1001  PAL1001     0.3672
     15  O4        30.4700   59.5020   60.3460 O.co2 1001  PAL1001    -0.2456
     16  O5        32.1240   58.4630   61.4220 O.co2 1001  PAL1001    -0.2456
@<TRIPOS>BOND
     1    12    10   ar
     2    10     9    1
     3    10    11   ar
     4    13     9    1
     5    13    14    1
     6     9     8    1
     7    15    14   ar
     8    14    16   ar
     9     7     6    2
    10     8     6   am
    11     6     5    1
    12     5     1    1
    13     2     1    2
    14     4     1    1
    15     1     3    1
