@<TRIPOS>MOLECULE
1q9d_OI1_A_1.pdb
 40 44 0 0 0
SMALL
GASTEIGER

@<TRIPOS>ATOM
      1  O1        12.1090   77.3430   17.0080 O.3   416  OI1416     -0.2866
      2  C1        12.8650   78.2080   17.7500 C.ar  416  OI1416      0.1957
      3  C2        13.3520   79.3750   17.1560 C.ar  416  OI1416      0.0417
      4  C3        14.1370   80.2710   17.9250 C.ar  416  OI1416     -0.0009
      5  C4        14.4390   80.0160   19.2730 C.ar  416  OI1416     -0.0198
      6  C5        13.9190   78.8320   19.8300 C.ar  416  OI1416     -0.0009
      7  C6        13.1600   77.9130   19.0710 C.ar  416  OI1416      0.0417
      8  C7        15.2220   80.9540   20.0530 C.3   416  OI1416      0.0555
      9  C8        16.6370   80.5050   20.3770 C.3   416  OI1416      0.1567
     10  C9        16.5480   79.3310   21.3380 C.2   416  OI1416      0.2446
     11  O2        16.1110   79.4770   22.4720 O.2   416  OI1416     -0.2731
     12  N1        16.8940   78.0560   20.9470 N.am  416  OI1416     -0.2672
     13  C10       17.4350   77.7370   19.6470 C.3   416  OI1416      0.1566
     14  C11       17.7830   78.9860   18.8430 C.2   416  OI1416      0.2447
     15  O3        18.4350   78.8060   17.8110 O.2   416  OI1416     -0.2731
     16  N2        17.3520   80.2820   19.2270 N.am  416  OI1416     -0.2646
     17  C12       17.6770   81.4590   18.4640 C.3   416  OI1416      0.1538
     18  C13       16.9690   81.4270   16.9810 C.2   416  OI1416      0.2595
     19  O4        16.4560   82.4710   16.5920 O.2   416  OI1416     -0.2716
     20  N3        16.9370   80.3190   16.2430 N.am  416  OI1416     -0.2037
     21  C14       16.2960   80.3070   14.9320 C.3   416  OI1416      0.1199
     22  C15       17.3330   79.9970   13.8500 C.3   416  OI1416      0.0498
     23  C16       18.4440   80.9970   13.7630 C.ar  416  OI1416     -0.0202
     24  C17       18.1830   82.3300   13.4090 C.ar  416  OI1416     -0.0009
     25  C18       19.1840   83.2980   13.4560 C.ar  416  OI1416      0.0417
     26  C19       20.4460   82.9330   13.8670 C.ar  416  OI1416      0.1957
     27  O5        21.4390   83.8700   13.9130 O.3   416  OI1416     -0.2866
     28  C20       20.7220   81.6170   14.2270 C.ar  416  OI1416      0.0417
     29  C21       19.7240   80.6650   14.1750 C.ar  416  OI1416     -0.0009
     30  C22       19.1670   81.5750   18.3680 C.3   416  OI1416      0.0293
     31  C23       19.6410   82.7780   17.5950 C.3   416  OI1416      0.0022
     32  C24       21.2150   82.8850   17.6420 C.3   416  OI1416      0.0001
     33  C25       16.4230   76.8360   18.8630 C.3   416  OI1416      0.0553
     34  C26       15.7520   75.8040   19.8210 C.ar  416  OI1416     -0.0224
     35  C27       14.9760   74.7800   19.2780 C.ar  416  OI1416     -0.0045
     36  C28       14.3610   73.8530   20.1130 C.ar  416  OI1416     -0.0003
     37  C29       14.5200   73.9370   21.5040 C.ar  416  OI1416     -0.0003
     38  C30       15.2920   74.9480   22.0680 C.ar  416  OI1416     -0.0029
     39  C31       15.9160   75.8860   21.2410 C.ar  416  OI1416     -0.0062
     40  C32       16.7620   76.9990   21.8750 C.3   416  OI1416      0.1203
@<TRIPOS>BOND
     1    24    25   ar
     2    24    23   ar
     3    25    26   ar
     4    23    22    1
     5    23    29   ar
     6    22    21    1
     7    26    27    1
     8    26    28   ar
     9    29    28   ar
    10    21    20    1
    11    20    18   am
    12    19    18    2
    13    18    17    1
    14     1     2    1
    15     3     2   ar
    16     3     4   ar
    17    31    32    1
    18    31    30    1
    19     2     7   ar
    20    15    14    2
    21     4     5   ar
    22    30    17    1
    23    17    16    1
    24    14    16   am
    25    14    13    1
    26    33    13    1
    27    33    34    1
    28     7     6   ar
    29    16     9    1
    30     5     6   ar
    31     5     8    1
    32    35    34   ar
    33    35    36   ar
    34    13    12    1
    35    34    39   ar
    36     8     9    1
    37    36    37   ar
    38     9    10    1
    39    12    10   am
    40    12    40    1
    41    39    40    1
    42    39    38   ar
    43    10    11    2
    44    37    38   ar
