@<TRIPOS>MOLECULE
1q9d_F6P_A_1.pdb
 16 16 0 0 0
SMALL
GASTEIGER

@<TRIPOS>ATOM
      1  O1        43.5080  109.1700   11.2110 O.3   401  F6P401     -0.2148
      2  C1        42.1350  109.1600   10.8370 C.3   401  F6P401      0.2434
      3  C2        41.2230  109.3130   12.0460 C.3   401  F6P401      0.2807
      4  O2        41.4880  108.2900   12.9640 O.3   401  F6P401     -0.1896
      5  C3        39.7460  109.3280   11.6930 C.3   401  F6P401      0.2409
      6  O3        39.2310  108.0210   11.8040 O.3   401  F6P401     -0.2149
      7  C4        39.1870  110.4090   12.6270 C.3   401  F6P401      0.2167
      8  O4        38.2030  111.1570   11.9330 O.3   401  F6P401     -0.2175
      9  C5        40.3470  111.3850   12.6810 C.3   401  F6P401      0.1808
     10  O5        41.5160  110.5240   12.7330 O.3   401  F6P401     -0.3254
     11  C6        40.2320  112.4160   13.8160 C.3   401  F6P401      0.1859
     12  O6        41.5010  113.0900   13.9850 O.3   401  F6P401     -0.2675
     13  P         41.6210  114.3210   15.0560 P.3   401  F6P401      0.5327
     14  O1P       41.9740  113.7180   16.4030 O.3   401  F6P401     -0.1145
     15  O2P       42.7130  115.1970   14.4710 O.2   401  F6P401     -0.2224
     16  O3P       40.2480  114.9770   15.0980 O.3   401  F6P401     -0.1145
@<TRIPOS>BOND
     1     2     1    1
     2     2     3    1
     3     5     6    1
     4     5     3    1
     5     5     7    1
     6     8     7    1
     7     3    10    1
     8     3     4    1
     9     7     9    1
    10     9    10    1
    11     9    11    1
    12    11    12    1
    13    12    13    1
    14    15    13    2
    15    13    16    1
    16    13    14    1
