@<TRIPOS>MOLECULE
1q9i_HEM_A_1.pdb
 43 50 0 0 0
SMALL
GASTEIGER

@<TRIPOS>ATOM
      1 FE         29.7070   58.4940   43.1780 Fe    801  HEM801      0.0000
      2  CHA       27.7720   55.6550   43.4890 C.2   801  HEM801      0.0000
      3  CHB       28.2010   59.1950   40.1790 C.2   801  HEM801      0.0000
      4  CHC       31.2540   61.5660   43.1160 C.2   801  HEM801      0.0000
      5  CHD       31.6960   57.5450   45.7910 C.2   801  HEM801      0.0000
      6  NA        28.2890   57.6070   42.0710 N.ar  801  HEM801      0.0000
      7  C1A       27.5840   56.4470   42.3680 C.ar  801  HEM801      0.0000
      8  C2A       26.6220   56.1830   41.3170 C.ar  801  HEM801      0.0000
      9  C3A       26.7550   57.1660   40.4110 C.ar  801  HEM801      0.0000
     10  C4A       27.7850   58.0700   40.8620 C.ar  801  HEM801      0.0000
     11  CMA       25.9520   57.3230   39.0910 C.3   801  HEM801      0.0000
     12  CAA       25.6650   54.9820   41.2550 C.3   801  HEM801      0.0000
     13  CBA       26.2950   53.9370   40.3500 C.3   801  HEM801      0.0000
     14  CGA       25.4570   52.6840   40.2660 C.2   801  HEM801      0.0000
     15  O1A       25.8510   51.8030   39.4430 O.co2 801  HEM801      0.0000
     16  O2A       24.4320   52.5760   40.9990 O.co2 801  HEM801      0.0000
     17  NB        29.7300   60.1020   41.8910 N.2   801  HEM801      0.0000
     18  C1B       29.0690   60.1380   40.6860 C.2   801  HEM801      0.0000
     19  C2B       29.4480   61.3630   40.0380 C.2   801  HEM801      0.0000
     20  C3B       30.2760   62.0280   40.8560 C.2   801  HEM801      0.0000
     21  C4B       30.4750   61.2350   42.0410 C.2   801  HEM801      0.0000
     22  CMB       28.8990   61.7790   38.6520 C.3   801  HEM801      0.0000
     23  CAB       30.8970   63.4180   40.6430 C.3   801  HEM801      0.0000
     24  CBB       30.0160   64.4490   40.7060 C.3   801  HEM801      0.0000
     25  NC        31.1840   59.3780   44.2390 N.ar  801  HEM801      0.0000
     26  C1C       31.6470   60.6800   44.0880 C.ar  801  HEM801      0.0000
     27  C2C       32.5920   60.9640   45.1360 C.ar  801  HEM801      0.0000
     28  C3C       32.7230   59.8520   45.8850 C.ar  801  HEM801      0.0000
     29  C4C       31.8390   58.8480   45.3240 C.ar  801  HEM801      0.0000
     30  CMC       33.3280   62.3160   45.3210 C.3   801  HEM801      0.0000
     31  CAC       33.6220   59.6250   47.1370 C.2   801  HEM801      0.0000
     32  CBC       33.5980   60.4660   48.2060 C.2   801  HEM801      0.0000
     33  ND        29.7480   56.8530   44.4000 N.2   801  HEM801      0.0000
     34  C1D       30.6670   56.7110   45.4460 C.2   801  HEM801      0.0000
     35  C2D       30.3220   55.5070   46.1580 C.2   801  HEM801      0.0000
     36  C3D       29.1370   54.9420   45.4440 C.2   801  HEM801      0.0000
     37  C4D       28.8000   55.8390   44.3740 C.2   801  HEM801      0.0000
     38  CMD       31.0380   54.9080   47.3830 C.3   801  HEM801      0.0000
     39  CAD       28.3700   53.6810   45.8530 C.3   801  HEM801      0.0000
     40  CBD       27.0330   54.1280   46.4700 C.3   801  HEM801      0.0000
     41  CGD       27.1680   55.1980   47.5510 C.2   801  HEM801      0.0000
     42  O1D       26.4860   56.2560   47.4890 O.co2 801  HEM801      0.0000
     43  O2D       27.9220   55.0000   48.5420 O.co2 801  HEM801      0.0000
@<TRIPOS>BOND
     1    22    19    1
     2    11     9    1
     3    15    14   ar
     4    19    18    1
     5    19    20    2
     6     3    18    1
     7     3    10    2
     8    14    13    1
     9    14    16   ar
    10    13    12    1
    11     9    10   ar
    12     9     8   ar
    13    23    24    1
    14    23    20    1
    15    18    17    2
    16    20    21    1
    17    10     6   ar
    18    12     8    1
    19     8     7   ar
    20    17    21    1
    21    17     1    1
    22    21     4    2
    23     6     7   ar
    24     6     1    1
    25     7     2    2
    26     4    26    1
    27     1    25    1
    28     1    33    1
    29     2    37    1
    30    26    25   ar
    31    26    27   ar
    32    25    29   ar
    33    37    33    2
    34    37    36    1
    35    33    34    1
    36    27    30    1
    37    27    28   ar
    38    29     5    1
    39    29    28   ar
    40    36    39    1
    41    36    35    2
    42    34     5    2
    43    34    35    1
    44    39    40    1
    45    28    31    1
    46    35    38    1
    47    40    41    1
    48    31    32    2
    49    42    41   ar
    50    41    43   ar
