@<TRIPOS>MOLECULE
1q9m_ROL_A_1.pdb
 20 22 0 0 0
SMALL
GASTEIGER

@<TRIPOS>ATOM
      1  C5        21.2990   -2.8180   30.9530 C.ar  503  ROL503     -0.0162
      2  C6        21.5640   -4.0410   31.5900 C.ar  503  ROL503      0.0359
      3  C7        21.8630   -4.0770   32.9630 C.ar  503  ROL503      0.1727
      4  C8        21.8910   -2.9020   33.6920 C.ar  503  ROL503      0.1724
      5  C9        21.6310   -1.6860   33.0560 C.ar  503  ROL503      0.0397
      6  C10       21.3410   -1.6540   31.6960 C.ar  503  ROL503     -0.0009
      7  C3        20.9030   -2.7440   29.5030 C.3   503  ROL503      0.0642
      8  C2        21.3560   -4.0000   28.7650 C.3   503  ROL503      0.1280
      9  C1        20.1770   -4.8200   28.4000 C.1   503  ROL503      0.1264
     10  O1        20.1950   -5.9360   27.9030 O.2   503  ROL503     -0.2270
     11  N1        19.1120   -4.1240   28.7500 N.2   503  ROL503     -0.2059
     12  C4        19.3520   -2.8330   29.3920 C.3   503  ROL503      0.1429
     13  O3        22.1350   -5.2500   33.6380 O.3   503  ROL503     -0.4673
     14  C11       21.9570   -6.4230   32.8320 C.3   503  ROL503      0.2103
     15  C15       21.0770   -7.4060   33.5940 C.2   503  ROL503      0.0212
     16  C14       21.8990   -8.5680   34.0920 C.2   503  ROL503     -0.0009
     17  C13       23.3220   -8.3570   33.6020 C.2   503  ROL503     -0.0009
     18  C12       23.3140   -7.1040   32.7520 C.2   503  ROL503      0.0212
     19  O2        22.1320   -2.9990   35.0530 O.3   503  ROL503     -0.4684
     20  C16       23.0780   -2.0460   35.5180 C.3   503  ROL503      0.2526
@<TRIPOS>BOND
     1    10     9    2
     2     9    11    2
     3     9     8    1
     4    11    12    1
     5     8     7    1
     6    12     7    1
     7     7     1    1
     8     1     2   ar
     9     1     6   ar
    10     2     3   ar
    11     6     5   ar
    12    18    14    1
    13    18    17    2
    14    14    15    1
    15    14    13    1
    16     3    13    1
    17     3     4   ar
    18     5     4   ar
    19    15    16    2
    20    17    16    1
    21     4    19    1
    22    19    20    1
