@<TRIPOS>MOLECULE
1q9s_ADP_A_1.pdb
 27 29 0 0 0
SMALL
GASTEIGER

@<TRIPOS>ATOM
      1  PB        28.5830   37.7940   18.9890 P.3   301  ADP301      0.5373
      2  O1B       27.1400   38.1170   19.0020 O.3   301  ADP301     -0.1143
      3  O2B       28.8880   36.8390   20.2270 O.3   301  ADP301     -0.1143
      4  O3B       29.1680   37.1680   17.7710 O.2   301  ADP301     -0.2221
      5  PA        29.2830   40.5020   18.6640 P.3   301  ADP301      0.2231
      6  O1A       30.6470   41.0160   18.4270 O.3   301  ADP301     -0.4370
      7  O2A       28.3560   40.4230   17.5190 O.2   301  ADP301     -0.5169
      8  O3A       29.4690   39.0740   19.3630 O.3   301  ADP301     -0.2261
      9  O5'       28.5940   41.2920   19.8720 O.3   301  ADP301     -0.3111
     10  C5'       27.2570   41.0000   20.2830 C.3   301  ADP301      0.1813
     11  C4'       27.1030   41.3190   21.7600 C.3   301  ADP301      0.1821
     12  O4'       27.6190   42.6300   22.0960 O.3   301  ADP301     -0.3135
     13  C3'       25.6770   41.2860   22.2570 C.3   301  ADP301      0.2184
     14  O3'       25.3550   39.9480   22.6390 O.3   301  ADP301     -0.2174
     15  C2'       25.7200   42.1710   23.4870 C.3   301  ADP301      0.2570
     16  O2'       26.0540   41.4030   24.6420 O.3   301  ADP301     -0.2130
     17  C1'       26.8590   43.1570   23.2150 C.3   301  ADP301      0.3186
     18  N9        26.3680   44.4960   22.8170 N.pl3 301  ADP301     -0.1439
     19  C8        26.7850   45.6460   23.3480 C.3   301  ADP301      0.3377
     20  N7        26.1820   46.6630   22.7350 N.2   301  ADP301     -0.2095
     21  C5        25.3780   46.1670   21.8130 C.2   301  ADP301      0.2526
     22  C6        24.5220   46.7400   20.8680 C.2   301  ADP301      0.4393
     23  N6        24.3870   48.0620   20.7880 N.pl3 301  ADP301      0.2180
     24  N1        23.8310   45.9320   20.0340 N.2   301  ADP301      0.0021
     25  C2        23.9630   44.6020   20.1090 C.3   301  ADP301      0.5254
     26  N3        24.7770   44.0320   21.0080 N.2   301  ADP301     -0.0055
     27  C4        25.4900   44.7860   21.8610 C.2   301  ADP301      0.3518
@<TRIPOS>BOND
     1     7     5    2
     2     4     1    2
     3     6     5    1
     4     5     8    1
     5     5     9    1
     6     1     2    1
     7     1     8    1
     8     1     3    1
     9     9    10    1
    10    24    25    1
    11    24    22    2
    12    25    26    1
    13    10    11    1
    14    23    22    1
    15    22    21    1
    16    26    27    2
    17    11    12    1
    18    11    13    1
    19    21    27    1
    20    21    20    2
    21    27    18    1
    22    12    17    1
    23    13    14    1
    24    13    15    1
    25    20    19    1
    26    18    17    1
    27    18    19    1
    28    17    15    1
    29    15    16    1
