@<TRIPOS>MOLECULE
1q9s_FMN_A_1.pdb
 31 33 0 0 0
SMALL
GASTEIGER

@<TRIPOS>ATOM
      1  N1        26.4170   40.0870    6.5280 N.2   401  FMN401     -0.2890
      2  C2        26.6700   39.8400    5.1820 C.1   401  FMN401      0.3669
      3  O2        27.4200   38.9320    4.8630 O.2   401  FMN401     -0.1744
      4  N3        26.0980   40.6730    4.2020 N.2   401  FMN401     -0.2300
      5  C4        25.2880   41.7790    4.5850 C.1   401  FMN401      0.2513
      6  O4        24.7510   42.4800    3.7260 O.2   401  FMN401     -0.2057
      7  C4A       25.0560   42.0370    5.9360 C.2   401  FMN401      0.2700
      8  N5        24.3180   43.1140    6.3140 N.2   401  FMN401     -0.3878
      9  C5A       24.0820   43.3930    7.6190 C.2   401  FMN401      0.1320
     10  C6        23.3550   44.5350    7.9690 C.2   401  FMN401      0.0250
     11  C7        23.1090   44.8350    9.3240 C.2   401  FMN401     -0.0238
     12  C7M       22.2050   46.0310    9.6550 C.3   401  FMN401      0.0308
     13  C8        23.6150   43.9800   10.3530 C.2   401  FMN401     -0.0280
     14  C8M       23.4100   44.2560   11.7120 C.3   401  FMN401      0.0304
     15  C9        24.3450   42.8360    9.9970 C.2   401  FMN401     -0.0041
     16  C9A       24.5820   42.5380    8.6330 C.3   401  FMN401      0.1497
     17  N10       25.3410   41.4060    8.2610 N.pl3 401  FMN401     -0.2691
     18  C10       25.6060   41.1720    6.9070 C.2   401  FMN401      0.2416
     19  C1'       25.6650   40.3600    9.2700 C.3   401  FMN401      0.1294
     20  C2'       27.0930   40.4880    9.7770 C.3   401  FMN401      0.2044
     21  O2'       27.9680   39.9200    8.7990 O.3   401  FMN401     -0.2185
     22  C3'       27.2480   39.7700   11.1250 C.3   401  FMN401      0.2164
     23  O3'       26.3220   40.3450   12.0540 O.3   401  FMN401     -0.2175
     24  C4'       28.6770   39.9110   11.6800 C.3   401  FMN401      0.2147
     25  O4'       29.5750   39.1140   10.8990 O.3   401  FMN401     -0.2176
     26  C5'       28.7680   39.4880   13.1510 C.3   401  FMN401      0.1892
     27  O5'       28.4030   38.1160   13.3460 O.3   401  FMN401     -0.2674
     28  P         28.3050   37.5260   14.8560 P.3   401  FMN401      0.5327
     29  O1P       27.2780   38.2610   15.6070 O.3   401  FMN401     -0.1145
     30  O2P       28.1940   36.0430   14.7850 O.2   401  FMN401     -0.2224
     31  O3P       29.7480   37.8970   15.4870 O.3   401  FMN401     -0.1145
@<TRIPOS>BOND
     1     6     5    2
     2     4     5    2
     3     4     2    2
     4     5     7    1
     5     3     2    2
     6     2     1    2
     7     7     8    2
     8     7    18    1
     9     8     9    2
    10     1    18    2
    11    18    17    1
    12     9    10    1
    13     9    16    1
    14    10    11    2
    15    17    16    1
    16    17    19    1
    17    16    15    1
    18    21    20    1
    19    19    20    1
    20    11    12    1
    21    11    13    1
    22    20    22    1
    23    15    13    2
    24    13    14    1
    25    25    24    1
    26    22    24    1
    27    22    23    1
    28    24    26    1
    29    26    27    1
    30    27    28    1
    31    30    28    2
    32    28    31    1
    33    28    29    1
