@<TRIPOS>MOLECULE
1q9x_DGP_F_1.pdb
 19 21 0 0 0
SMALL
GASTEIGER

@<TRIPOS>ATOM
      1  O5'      -10.0670   -0.1600   41.2750 O.3   908  DGP908     -0.2176
      2  C5'      -10.6560    0.3620   40.0420 C.3   908  DGP908      0.2141
      3  C4'      -11.4860    1.6450   40.2080 C.3   908  DGP908      0.1802
      4  O4'      -11.0690    2.4460   41.3630 O.3   908  DGP908     -0.3346
      5  C3'      -11.3780    2.5760   39.0190 C.3   908  DGP908      0.1858
      6  O3'      -12.3490    2.2190   38.0020 O.3   908  DGP908     -0.2203
      7  C2'      -11.5730    3.9400   39.7010 C.3   908  DGP908      0.0865
      8  C1'      -10.8690    3.8100   41.0550 C.3   908  DGP908      0.1981
      9  N9        -9.4270    4.1470   41.0400 N.pl3 908  DGP908     -0.2374
     10  C8        -8.9120    5.4060   40.8650 C.3   908  DGP908      0.2245
     11  N7        -7.6080    5.4630   40.8590 N.2   908  DGP908     -0.2322
     12  C5        -7.1940    4.1560   41.0500 C.2   908  DGP908      0.2182
     13  C6        -5.8740    3.6060   41.1300 C.1   908  DGP908      0.2372
     14  O6        -4.7810    4.1850   41.0620 O.2   908  DGP908     -0.2069
     15  N1        -5.8520    2.2260   41.3160 N.2   908  DGP908     -0.2485
     16  C2        -6.9930    1.4550   41.4260 C.1   908  DGP908      0.2531
     17  N2        -6.7660    0.1360   41.6160 N.pl3 908  DGP908     -0.0226
     18  N3        -8.2480    1.9560   41.3590 N.2   908  DGP908     -0.3074
     19  C4        -8.2970    3.3200   41.1650 C.2   908  DGP908      0.2299
@<TRIPOS>BOND
     1     6     5    1
     2     5     7    1
     3     5     3    1
     4     7     8    1
     5     2     3    1
     6     2     1    1
     7     3     4    1
     8    11    10    1
     9    11    12    2
    10    10     9    1
    11     9     8    1
    12     9    19    1
    13    12    13    1
    14    12    19    1
    15     8     4    1
    16    14    13    2
    17    13    15    2
    18    19    18    2
    19    15    16    2
    20    18    16    2
    21    16    17    1
