@<TRIPOS>MOLECULE
1q9x_3DR_E_1.pdb
 11 11 0 0 0
SMALL
GASTEIGER

@<TRIPOS>ATOM
      1  O5'       45.9720   66.1100  156.4280 O.3   912  3DR912     -0.2926
      2  P         47.5160   65.9510  155.9720 P.3   912  3DR912      0.3942
      3  OP1       48.1310   64.9100  156.8350 O.3   912  3DR912     -0.1425
      4  OP2       47.6270   65.8450  154.4970 O.3   912  3DR912     -0.1425
      5  C2'       44.9700   64.8890  160.2680 C.3   912  3DR912      0.0676
      6  C5'       45.3200   65.0830  157.1890 C.3   912  3DR912      0.1828
      7  C4'       44.2170   65.5740  158.1250 C.3   912  3DR912      0.1754
      8  O4'       43.4160   64.4330  158.5260 O.3   912  3DR912     -0.3510
      9  C1'       43.9490   63.8840  159.7290 C.3   912  3DR912      0.1450
     10  C3'       44.6080   66.1550  159.4830 C.3   912  3DR912      0.1839
     11  O3'       43.4690   66.8360  160.0730 O.3   912  3DR912     -0.2204
@<TRIPOS>BOND
     1     4     2    1
     2     2     1    1
     3     2     3    1
     4     1     6    1
     5     6     7    1
     6     7     8    1
     7     7    10    1
     8     8     9    1
     9    10    11    1
    10    10     5    1
    11     9     5    1
