@<TRIPOS>MOLECULE
1q9x_DOC_I_1.pdb
 18 19 0 0 0
SMALL
GASTEIGER

@<TRIPOS>ATOM
      1  N1        34.5830   58.5500  164.3390 N.am  953  DOC953     -0.1803
      2  C2        35.3730   59.6850  164.0630 C.1   953  DOC953      0.2756
      3  N3        36.7310   59.5520  164.0590 N.2   953  DOC953     -0.3024
      4  C4        37.2850   58.3570  164.3030 C.2   953  DOC953      0.2346
      5  C5        36.5070   57.1890  164.5740 C.2   953  DOC953      0.0687
      6  C6        35.1760   57.3310  164.5790 C.2   953  DOC953      0.0835
      7  O2        34.8190   60.7710  163.8370 O.2   953  DOC953     -0.1925
      8  N4        38.6110   58.2670  164.2870 N.pl3 953  DOC953     -0.0921
      9  C1'       33.0890   58.6860  164.3280 C.3   953  DOC953      0.2063
     10  C2'       32.5480   58.4150  162.9260 C.3   953  DOC953      0.0545
     11  C3'       32.0170   56.9900  163.0070 C.3   953  DOC953      0.0366
     12  C4'       31.6160   56.8450  164.4650 C.3   953  DOC953      0.1472
     13  O4'       32.4460   57.7830  165.2070 O.3   953  DOC953     -0.3366
     14  C5'       31.8620   55.4340  164.9600 C.3   953  DOC953      0.1803
     15  O5'       30.8170   54.9570  165.7900 O.3   953  DOC953     -0.2927
     16  P         31.1520   53.9940  167.0310 P.3   953  DOC953      0.3942
     17  OP1       29.8820   53.8110  167.7860 O.3   953  DOC953     -0.1425
     18  OP2       31.8990   52.8090  166.5400 O.3   953  DOC953     -0.1425
@<TRIPOS>BOND
     1    10    11    1
     2    10     9    1
     3    11    12    1
     4     7     2    2
     5     3     2    2
     6     3     4    2
     7     2     1   am
     8     8     4    1
     9     4     5    1
    10     9     1    1
    11     9    13    1
    12     1     6    1
    13    12    14    1
    14    12    13    1
    15     5     6    2
    16    14    15    1
    17    15    16    1
    18    18    16    1
    19    16    17    1
