@<TRIPOS>MOLECULE
1q9y_DCP_P_1.pdb
 28 29 0 0 0
SMALL
GASTEIGER

@<TRIPOS>ATOM
      1  N1         0.6870   50.8390   18.7620 N.am  939  DCP939     -0.1802
      2  C2         1.1280   51.5940   19.8260 C.1   939  DCP939      0.2756
      3  N3         1.2700   51.1160   21.0830 N.2   939  DCP939     -0.3024
      4  C4         0.9490   49.8250   21.3330 C.2   939  DCP939      0.2346
      5  C5         0.4650   49.0040   20.2830 C.2   939  DCP939      0.0687
      6  C6         0.3450   49.5290   18.9760 C.2   939  DCP939      0.0835
      7  O2         1.4350   52.7540   19.6430 O.2   939  DCP939     -0.1925
      8  N4         1.0760   49.4530   22.5970 N.pl3 939  DCP939     -0.0921
      9  C1'        0.6200   51.5550   17.4710 C.3   939  DCP939      0.2090
     10  C2'        2.0180   51.5950   16.9100 C.3   939  DCP939      0.0874
     11  C3'        2.0080   50.4510   15.9300 C.3   939  DCP939      0.1857
     12  C4'        0.6340   50.6470   15.3490 C.3   939  DCP939      0.1773
     13  O4'       -0.1420   50.9140   16.4930 O.3   939  DCP939     -0.3339
     14  O3'        3.0110   50.5680   14.9580 O.3   939  DCP939     -0.2203
     15  C5'        0.1700   49.3940   14.6500 C.3   939  DCP939      0.1812
     16  O5'       -0.0670   48.4910   15.7010 O.3   939  DCP939     -0.3112
     17  PA         0.2500   46.9410   15.5940 P.3   939  DCP939      0.2189
     18  O1A       -0.4640   46.3840   16.7380 O.3   939  DCP939     -0.4371
     19  O2A       -0.2010   46.3170   14.2450 O.2   939  DCP939     -0.5170
     20  O3A        1.8380   46.7420   15.8000 O.3   939  DCP939     -0.2700
     21  PB         2.9740   47.1590   14.7190 P.3   939  DCP939      0.2277
     22  O1B        3.8900   48.1830   15.2750 O.3   939  DCP939     -0.4368
     23  O2B        2.4080   47.6070   13.3690 O.2   939  DCP939     -0.5168
     24  O3B        3.9460   45.8930   14.5440 O.3   939  DCP939     -0.2258
     25  PG         3.5460   44.4650   13.9390 P.3   939  DCP939      0.5373
     26  O1G        2.1150   44.4530   13.3520 O.3   939  DCP939     -0.1143
     27  O2G        4.6100   43.9810   12.8610 O.2   939  DCP939     -0.2221
     28  O3G        3.4620   43.4720   15.2010 O.3   939  DCP939     -0.1143
@<TRIPOS>BOND
     1    27    25    2
     2    26    25    1
     3    23    21    2
     4    25    24    1
     5    25    28    1
     6    19    17    2
     7    24    21    1
     8    15    12    1
     9    15    16    1
    10    21    22    1
    11    21    20    1
    12    14    11    1
    13    12    11    1
    14    12    13    1
    15    17    16    1
    16    17    20    1
    17    17    18    1
    18    11    10    1
    19    13     9    1
    20    10     9    1
    21     9     1    1
    22     1     6    1
    23     1     2   am
    24     6     5    2
    25     7     2    2
    26     2     3    2
    27     5     4    1
    28     3     4    2
    29     4     8    1
