@<TRIPOS>MOLECULE
1qa0_270_A_1.pdb
 10 11 0 0 0
SMALL
GASTEIGER

@<TRIPOS>ATOM
      1  N1         9.3200   18.2660   19.8760 N.2   300  270300     -0.3232
      2  C1         8.9110   18.5470   18.6480 C.1   300  270300      0.2416
      3  C2         9.4810   19.4490   20.4950 C.ar  300  270300      0.1754
      4  C3         9.8950   19.7130   21.8140 C.ar  300  270300      0.0357
      5  C4        10.0110   21.0770   22.1790 C.ar  300  270300      0.0028
      6  C5         9.6960   22.1000   21.2610 C.ar  300  270300      0.0028
      7  C6         9.2430   21.8240   19.9400 C.ar  300  270300      0.0357
      8  C7         9.1610   20.4640   19.5820 C.ar  300  270300      0.1754
      9  N3         8.8050   19.8790   18.4330 N.2   300  270300     -0.3232
     10  N2         8.6310   17.6310   17.7440 N.pl3 300  270300     -0.0232
@<TRIPOS>BOND
     1    10     2    1
     2     9     2    2
     3     9     8    2
     4     2     1    2
     5     8     7   ar
     6     8     3   ar
     7     1     3    2
     8     7     6   ar
     9     3     4   ar
    10     6     5   ar
    11     4     5   ar
