@<TRIPOS>MOLECULE
1qa7_IVF_A_1.pdb
 22 22 0 0 0
SMALL
GASTEIGER

@<TRIPOS>ATOM
      1  C1         0.6110   -3.2330   22.2490 C.2   301  IVF301      0.2423
      2  O1         0.3120   -2.1560   22.7450 O.2   301  IVF301     -0.2733
      3  CH3        1.9670   -3.3970   21.5930 C.3   301  IVF301      0.0964
      4  N2        -0.2270   -4.2810   22.2440 N.am  301  IVF301     -0.1978
      5  CA2       -1.6430   -4.2330   22.6640 C.3   301  IVF301      0.1726
      6  C2        -1.9120   -4.6770   24.1030 C.2   301  IVF301      0.2616
      7  O2        -1.7170   -5.8600   24.3830 O.2   301  IVF301     -0.2715
      8  CB2       -2.5160   -5.1310   21.7410 C.3   301  IVF301      0.0290
      9  CG1       -4.0000   -4.8600   22.0070 C.3   301  IVF301      0.0023
     10  CG2       -2.1510   -4.9500   20.2450 C.3   301  IVF301      0.0023
     11  N         -2.4510   -3.7770   24.9550 N.am  301  IVF301     -0.1959
     12  CA        -2.7050   -4.0240   26.4020 C.3   301  IVF301      0.1787
     13  C         -3.1040   -5.4460   26.7450 C.2   301  IVF301      0.2809
     14  O         -4.0320   -5.9590   26.1000 O.2   301  IVF301     -0.2698
     15  CB        -3.7690   -3.0800   26.9930 C.3   301  IVF301      0.0575
     16  CG        -3.3800   -1.6170   27.0020 C.ar  301  IVF301     -0.0200
     17  CD1       -2.1440   -1.2040   27.4680 C.ar  301  IVF301     -0.0042
     18  CD2       -4.3010   -0.6420   26.6180 C.ar  301  IVF301     -0.0042
     19  CE1       -1.7970    0.1390   27.4600 C.ar  301  IVF301     -0.0003
     20  CE2       -3.9690    0.7020   26.6490 C.ar  301  IVF301     -0.0003
     21  CZ        -2.7230    1.0910   27.0830 C.ar  301  IVF301     -0.0000
     22  NXT       -2.3290   -6.1810   27.7180 N.am  301  IVF301     -0.0863
@<TRIPOS>BOND
     1    10     8    1
     2     3     1    1
     3     8     9    1
     4     8     5    1
     5     4     1   am
     6     4     5    1
     7     1     2    2
     8     5     6    1
     9     6     7    2
    10     6    11   am
    11    11    12    1
    12    14    13    2
    13    12    13    1
    14    12    15    1
    15    18    20   ar
    16    18    16   ar
    17    20    21   ar
    18    13    22   am
    19    15    16    1
    20    16    17   ar
    21    21    19   ar
    22    19    17   ar
