@<TRIPOS>MOLECULE
1qab_RTL_E_1.pdb
 21 21 0 0 0
SMALL
GASTEIGER

@<TRIPOS>ATOM
      1  C1      -120.2310   70.5680   36.3650 C.3     1  RTL1        0.0003
      2  C2      -119.9720   72.0800   36.1980 C.3     1  RTL1        0.0000
      3  C3      -118.5190   72.4710   36.0770 C.3     1  RTL1        0.0000
      4  C4      -117.6290   71.2530   36.1380 C.3     1  RTL1        0.0000
      5  C5      -118.1950   70.0600   35.3740 C.3     1  RTL1        0.0003
      6  C6      -119.5120   69.6730   35.3430 C.3     1  RTL1        0.0043
      7  C7      -119.7260   68.2010   35.3410 C.3     1  RTL1        0.0254
      8  C8      -118.7200   67.3020   35.6160 C.2     1  RTL1       -0.0346
      9  C9      -119.1080   65.8940   35.5490 C.2     1  RTL1       -0.0482
     10  C10     -118.0980   65.1940   36.1000 C.3     1  RTL1        0.0217
     11  C11     -118.4150   63.7820   36.0530 C.3     1  RTL1        0.0043
     12  C12     -117.4000   63.1020   36.6310 C.3     1  RTL1        0.0004
     13  C13     -117.4080   61.6870   36.3200 C.3     1  RTL1        0.0026
     14  C14     -116.3660   61.1300   36.9810 C.3     1  RTL1        0.0355
     15  C15     -116.3320   59.7090   36.7120 C.3     1  RTL1        0.1821
     16  O1      -115.2860   59.1790   37.3920 O.3     1  RTL1       -0.2204
     17  C16     -121.6570   70.5230   35.9400 C.3     1  RTL1        0.0000
     18  C17     -120.1310   70.2030   37.8280 C.3     1  RTL1        0.0000
     19  C18     -117.0770   69.4410   34.5720 C.3     1  RTL1        0.0000
     20  C19     -120.4700   65.7070   34.8990 C.3     1  RTL1        0.0260
     21  C20     -118.6830   60.9510   36.7540 C.3     1  RTL1        0.0001
@<TRIPOS>BOND
     1    19     5    1
     2    20     9    1
     3     7     6    1
     4     7     8    1
     5     6     5    1
     6     6     1    1
     7     5     4    1
     8     9     8    2
     9     9    10    1
    10    17     1    1
    11    11    10    1
    12    11    12    1
    13     3     4    1
    14     3     2    1
    15     2     1    1
    16    13    12    1
    17    13    21    1
    18    13    14    1
    19     1    18    1
    20    15    14    1
    21    15    16    1
