@<TRIPOS>MOLECULE
1qan_SAH_A_1.pdb
 26 28 0 0 0
SMALL
GASTEIGER

@<TRIPOS>ATOM
      1  N         12.0740   37.0810   22.6250 N.3   501  SAH501     -0.1208
      2  CA        12.9000   38.1910   22.1850 C.3   501  SAH501      0.1952
      3  CB        14.3410   37.8170   21.7690 C.3   501  SAH501      0.0422
      4  CG        14.7660   36.3330   21.8170 C.3   501  SAH501      0.0597
      5  SD        16.5060   36.0930   21.2720 S.3   501  SAH501     -0.1375
      6  C         12.3300   38.9740   20.9810 C.2   501  SAH501      0.3819
      7  O         12.0590   38.3160   19.9330 O.co2 501  SAH501     -0.2441
      8  OXT       12.1820   40.2360   21.1140 O.co2 501  SAH501     -0.2441
      9  C5'       17.3250   35.3590   22.7440 C.3   501  SAH501      0.0899
     10  C4'       17.1900   36.1740   24.0520 C.3   501  SAH501      0.1630
     11  O4'       17.4970   35.3820   25.2130 O.3   501  SAH501     -0.3153
     12  C3'       18.0460   37.4530   24.1750 C.3   501  SAH501      0.2168
     13  O3'       17.3440   38.5690   24.6940 O.3   501  SAH501     -0.2175
     14  C2'       19.2330   36.9560   24.9680 C.3   501  SAH501      0.2569
     15  O2'       19.8650   37.9860   25.7150 O.3   501  SAH501     -0.2130
     16  C1'       18.5400   36.0040   25.9740 C.3   501  SAH501      0.3185
     17  N9        19.4110   34.9330   26.5080 N.pl3 501  SAH501     -0.1439
     18  C8        20.4170   34.2340   25.9390 C.3   501  SAH501      0.3377
     19  N7        20.9900   33.3320   26.7510 N.2   501  SAH501     -0.2095
     20  C5        20.3060   33.4260   27.9560 C.2   501  SAH501      0.2526
     21  C6        20.3540   32.8200   29.2090 C.2   501  SAH501      0.4393
     22  N6        21.2690   31.8490   29.4890 N.pl3 501  SAH501      0.2180
     23  N1        19.4820   33.1840   30.2110 N.2   501  SAH501      0.0021
     24  C2        18.5680   34.1590   29.9730 C.3   501  SAH501      0.5254
     25  N3        18.4470   34.7980   28.7730 N.2   501  SAH501     -0.0055
     26  C4        19.3230   34.4390   27.8010 C.2   501  SAH501      0.3518
@<TRIPOS>BOND
     1     7     6   ar
     2     6     8   ar
     3     6     2    1
     4     5     4    1
     5     5     9    1
     6     3     4    1
     7     3     2    1
     8     2     1    1
     9     9    10    1
    10    10    12    1
    11    10    11    1
    12    12    13    1
    13    12    14    1
    14    14    15    1
    15    14    16    1
    16    11    16    1
    17    18    17    1
    18    18    19    1
    19    16    17    1
    20    17    26    1
    21    19    20    2
    22    26    20    1
    23    26    25    2
    24    20    21    1
    25    25    24    1
    26    21    22    1
    27    21    23    2
    28    24    23    1
