@<TRIPOS>MOLECULE
1qao_SAM_A_1.pdb
 27 29 0 0 0
SMALL
GASTEIGER

@<TRIPOS>ATOM
      1  N         12.3440   36.9960   22.8330 N.3   245  SAM245     -0.1208
      2  CA        13.0720   38.0390   22.1090 C.3   245  SAM245      0.1952
      3  C         12.4650   38.3730   20.7490 C.2   245  SAM245      0.3819
      4  O         11.9390   37.4350   20.1110 O.co2 245  SAM245     -0.2441
      5  OXT       12.5260   39.5660   20.3610 O.co2 245  SAM245     -0.2441
      6  CB        14.5550   37.6950   21.8430 C.3   245  SAM245      0.0414
      7  CG        14.8710   36.1870   21.6290 C.3   245  SAM245      0.0503
      8  SD        16.6290   35.8490   21.2340 S.3   245  SAM245     -0.1761
      9  CE        16.5800   34.5570   19.9620 C.3   245  SAM245      0.0590
     10  C5'       17.3510   35.1390   22.7300 C.3   245  SAM245      0.0806
     11  C4'       17.1930   36.0120   23.9810 C.3   245  SAM245      0.1622
     12  O4'       17.5350   35.3120   25.1830 O.3   245  SAM245     -0.3153
     13  C3'       17.9950   37.3110   24.0150 C.3   245  SAM245      0.2168
     14  O3'       17.2440   38.4330   24.4610 O.3   245  SAM245     -0.2175
     15  C2'       19.2130   36.8890   24.8080 C.3   245  SAM245      0.2569
     16  O2'       19.8250   37.9650   25.5050 O.3   245  SAM245     -0.2130
     17  C1'       18.5700   35.9890   25.8710 C.3   245  SAM245      0.3185
     18  N9        19.4470   34.9550   26.4430 N.pl3 245  SAM245     -0.1439
     19  C8        20.4710   34.2450   25.9320 C.3   245  SAM245      0.3377
     20  N7        21.0230   33.3850   26.7990 N.2   245  SAM245     -0.2095
     21  C5        20.3040   33.5310   27.9810 C.2   245  SAM245      0.2526
     22  C6        20.3060   32.9960   29.2620 C.2   245  SAM245      0.4393
     23  N6        21.1920   32.0410   29.6350 N.pl3 245  SAM245      0.2180
     24  N1        19.4080   33.4140   30.2030 N.2   245  SAM245      0.0021
     25  C2        18.5020   34.3620   29.8840 C.3   245  SAM245      0.5254
     26  N3        18.4340   34.9360   28.6630 N.2   245  SAM245     -0.0055
     27  C4        19.3250   34.5180   27.7430 C.2   245  SAM245      0.3518
@<TRIPOS>BOND
     1     9     8    1
     2     4     3   ar
     3     5     3   ar
     4     3     2    1
     5     8     7    1
     6     8    10    1
     7     7     6    1
     8     6     2    1
     9     2     1    1
    10    10    11    1
    11    11    13    1
    12    11    12    1
    13    13    14    1
    14    13    15    1
    15    15    16    1
    16    15    17    1
    17    12    17    1
    18    17    18    1
    19    19    18    1
    20    19    20    1
    21    18    27    1
    22    20    21    2
    23    27    21    1
    24    27    26    2
    25    21    22    1
    26    26    25    1
    27    22    23    1
    28    22    24    2
    29    25    24    1
