@<TRIPOS>MOLECULE
1qap_NTM_A_1.pdb
 12 12 0 0 0
SMALL
GASTEIGER

@<TRIPOS>ATOM
      1  N1        14.3840   28.9050   40.4830 N.ar  300  NTM300     -0.2370
      2  C2        15.3780   29.7890   40.6780 C.ar  300  NTM300      0.1671
      3  C3        16.1630   30.1880   39.5530 C.ar  300  NTM300      0.1039
      4  C4        15.8960   29.5540   38.3250 C.ar  300  NTM300      0.0099
      5  C5        15.1290   28.3950   38.3110 C.ar  300  NTM300      0.0209
      6  C6        14.2810   28.1740   39.3870 C.ar  300  NTM300      0.0991
      7  C7        15.5520   30.2300   42.1190 C.2   300  NTM300      0.4053
      8  O1        14.5520   30.4240   42.8560 O.co2 300  NTM300     -0.2388
      9  O2        16.6940   30.3910   42.5870 O.co2 300  NTM300     -0.2388
     10  C8        17.2690   31.2220   39.4870 C.2   300  NTM300      0.3894
     11  O3        17.1150   32.3390   40.0420 O.co2 300  NTM300     -0.2405
     12  O4        18.3480   30.9650   38.8830 O.co2 300  NTM300     -0.2405
@<TRIPOS>BOND
     1     5     4   ar
     2     5     6   ar
     3     4     3   ar
     4    12    10   ar
     5     6     1   ar
     6    10     3    1
     7    10    11   ar
     8     3     2   ar
     9     1     2   ar
    10     2     7    1
    11     7     9   ar
    12     7     8   ar
