@<TRIPOS>MOLECULE
1qaq_SFG_A_1.pdb
 27 29 0 0 0
SMALL
GASTEIGER

@<TRIPOS>ATOM
      1  N         12.1110   36.9810   22.6730 N.3   245  SFG245     -0.1208
      2  CA        13.0760   37.6830   21.8340 C.3   245  SFG245      0.1944
      3  C         12.5140   37.4720   20.4390 C.2   245  SFG245      0.3819
      4  O         12.1870   38.4400   19.7820 O.co2 245  SFG245     -0.2441
      5  OXT       12.4100   36.3410   19.9940 O.co2 245  SFG245     -0.2441
      6  CB        14.5510   37.2050   21.9730 C.3   245  SFG245      0.0321
      7  CG        14.7890   35.7010   21.6950 C.3   245  SFG245      0.0212
      8  CD        16.2600   35.3190   21.4260 C.3   245  SFG245      0.0944
      9  NE        16.3560   34.3510   20.3450 N.3   245  SFG245     -0.1328
     10  C5'       17.0300   34.7280   22.6350 C.3   245  SFG245      0.0514
     11  C4'       16.9900   35.5940   23.9090 C.3   245  SFG245      0.1537
     12  O4'       17.3120   34.8440   25.0610 O.3   245  SFG245     -0.3161
     13  C3'       17.9390   36.7900   23.8840 C.3   245  SFG245      0.2159
     14  O3'       17.3230   37.9760   24.4190 O.3   245  SFG245     -0.2175
     15  C2'       19.0850   36.3570   24.7890 C.3   245  SFG245      0.2569
     16  O2'       19.6350   37.4930   25.4650 O.3   245  SFG245     -0.2130
     17  C1'       18.3690   35.4470   25.7770 C.3   245  SFG245      0.3185
     18  N9        19.2690   34.4050   26.3280 N.pl3 245  SFG245     -0.1439
     19  C8        20.2890   33.7290   25.7320 C.3   245  SFG245      0.3377
     20  N7        20.9130   32.8310   26.5310 N.2   245  SFG245     -0.2095
     21  C5        20.2390   32.9270   27.7310 C.2   245  SFG245      0.2526
     22  C6        20.3470   32.3090   28.9550 C.2   245  SFG245      0.4393
     23  N6        21.2880   31.3770   29.1540 N.pl3 245  SFG245      0.2180
     24  N1        19.5340   32.5960   30.0050 N.2   245  SFG245      0.0021
     25  C2        18.5710   33.5490   29.8160 C.3   245  SFG245      0.5254
     26  N3        18.3780   34.2110   28.6580 N.2   245  SFG245     -0.0055
     27  C4        19.2110   33.9080   27.6150 C.2   245  SFG245      0.3518
@<TRIPOS>BOND
     1     4     3   ar
     2     5     3   ar
     3     9     8    1
     4     3     2    1
     5     8     7    1
     6     8    10    1
     7     7     6    1
     8     2     6    1
     9     2     1    1
    10    10    11    1
    11    13    11    1
    12    13    14    1
    13    13    15    1
    14    11    12    1
    15    15    16    1
    16    15    17    1
    17    12    17    1
    18    19    18    1
    19    19    20    1
    20    17    18    1
    21    18    27    1
    22    20    21    2
    23    27    21    1
    24    27    26    2
    25    21    22    1
    26    26    25    1
    27    22    23    1
    28    22    24    2
    29    25    24    1
