@<TRIPOS>MOLECULE
1qaw_TRP_A_1.pdb
 15 16 0 0 0
SMALL
GASTEIGER

@<TRIPOS>ATOM
      1  N         23.0760   48.5410   34.1240 N.3    81  TRP81      -0.1205
      2  CA        22.1860   47.9660   33.1400 C.3    81  TRP81       0.1987
      3  C         22.6060   48.0960   31.6650 C.2    81  TRP81       0.3822
      4  O         22.6410   49.2080   31.1040 O.co2  81  TRP81      -0.2440
      5  CB        20.7240   48.3560   33.3940 C.3    81  TRP81       0.0585
      6  CG        19.8370   47.3790   32.6320 C.2    81  TRP81       0.0001
      7  CD1       19.3060   47.6390   31.3840 C.2    81  TRP81       0.0946
      8  CD2       19.4010   46.0810   33.0200 C.2    81  TRP81       0.0113
      9  NE1       18.5720   46.5510   31.0230 N.2    81  TRP81      -0.2442
     10  CE2       18.6200   45.5800   31.9790 C.2    81  TRP81       0.0804
     11  CE3       19.6250   45.2620   34.1390 C.2    81  TRP81      -0.0202
     12  CZ2       18.0090   44.3300   32.0210 C.2    81  TRP81       0.0148
     13  CZ3       19.0510   43.9910   34.1690 C.3    81  TRP81       0.0521
     14  CH2       18.2260   43.5320   33.1320 C.2    81  TRP81      -0.0199
     15  OXT       22.8710   47.0200   31.0690 O.co2  81  TRP81      -0.2440
@<TRIPOS>BOND
     1     9     7    1
     2     9    10    2
     3    15     3   ar
     4     4     3   ar
     5     7     6    2
     6     3     2    1
     7    10    12    1
     8    10     8    1
     9    12    14    2
    10     6     8    1
    11     6     5    1
    12     8    11    2
    13    14    13    1
    14     2     5    1
    15     2     1    1
    16    11    13    1
