@<TRIPOS>MOLECULE
1qax_NAD_B_1.pdb
 44 48 0 0 0
SMALL
GASTEIGER

@<TRIPOS>ATOM
      1  PA        82.7690  139.9290  104.5000 P.3   1001  NAD1001     0.2189
      2  O1A       82.1900  140.2810  105.8240 O.3   1001  NAD1001    -0.4371
      3  O2A       81.7920  139.4800  103.4630 O.2   1001  NAD1001    -0.5170
      4  O5B       83.5900  141.1970  103.9220 O.3   1001  NAD1001    -0.3112
      5  C5B       84.3910  141.1120  102.7130 C.3   1001  NAD1001     0.1813
      6  C4B       83.6110  141.6820  101.5270 C.3   1001  NAD1001     0.1821
      7  O4B       83.4450  143.1170  101.6680 O.3   1001  NAD1001    -0.3135
      8  C3B       84.3410  141.4200  100.2210 C.3   1001  NAD1001     0.2184
      9  O3B       83.3900  140.9190   99.2580 O.3   1001  NAD1001    -0.2174
     10  C2B       84.8520  142.7710   99.7660 C.3   1001  NAD1001     0.2570
     11  O2B       84.7000  142.9190   98.3380 O.3   1001  NAD1001    -0.2130
     12  C1B       83.9730  143.7750  100.4920 C.3   1001  NAD1001     0.3186
     13  N9A       84.7340  144.9730  100.9270 N.pl3 1001  NAD1001    -0.1439
     14  C8A       84.1300  146.1890  101.0950 C.3   1001  NAD1001     0.3377
     15  N7A       85.0250  147.0420  101.6070 N.2   1001  NAD1001    -0.2095
     16  C5A       86.1080  146.3180  101.7220 C.2   1001  NAD1001     0.2526
     17  C6A       87.3110  146.8110  102.2180 C.2   1001  NAD1001     0.4393
     18  N6A       87.4060  148.0540  102.6900 N.pl3 1001  NAD1001     0.2180
     19  N1A       88.3590  145.9870  102.2700 N.2   1001  NAD1001     0.0021
     20  C2A       88.2500  144.7120  101.8600 C.3   1001  NAD1001     0.5254
     21  N3A       87.1000  144.2230  101.3910 N.2   1001  NAD1001    -0.0055
     22  C4A       86.0220  145.0190  101.3120 C.2   1001  NAD1001     0.3518
     23  O3        83.8770  138.7710  104.6920 O.3   1001  NAD1001    -0.2703
     24  PN        85.3230  138.6060  105.3650 P.3   1001  NAD1001     0.2189
     25  O1N       85.6460  139.7490  106.2650 O.3   1001  NAD1001    -0.4371
     26  O2N       86.2820  138.2800  104.2870 O.2   1001  NAD1001    -0.5170
     27  O5D       85.1320  137.3110  106.2890 O.3   1001  NAD1001    -0.3112
     28  C5D       85.0490  137.4750  107.7150 C.3   1001  NAD1001     0.1813
     29  C4D       83.8950  136.6580  108.2690 C.3   1001  NAD1001     0.1799
     30  O4D       83.8880  135.3550  107.6320 O.3   1001  NAD1001    -0.3327
     31  C3D       84.1100  136.4290  109.7750 C.3   1001  NAD1001     0.2158
     32  O3D       82.8640  136.5680  110.4740 O.3   1001  NAD1001    -0.2175
     33  C2D       84.5640  135.0100  109.8640 C.3   1001  NAD1001     0.2309
     34  O2D       84.1280  134.4190  111.0760 O.3   1001  NAD1001    -0.2158
     35  C1D       83.8950  134.3590  108.6780 C.3   1001  NAD1001     0.2263
     36  N1N       84.6310  133.1620  108.2420 N.pl3 1001  NAD1001    -0.2787
     37  C2N       85.6630  132.6750  109.0210 C.3   1001  NAD1001     0.1244
     38  C3N       86.3720  131.5590  108.6100 C.2   1001  NAD1001     0.0544
     39  C7N       87.5070  131.0360  109.4900 C.2   1001  NAD1001     0.2818
     40  O7N       87.9990  129.9200  109.3630 O.2   1001  NAD1001    -0.2670
     41  N7N       87.8900  131.9320  110.3900 N.am  1001  NAD1001    -0.0839
     42  C4N       86.0440  130.9160  107.4110 C.2   1001  NAD1001     0.0033
     43  C5N       85.0040  131.3950  106.6180 C.2   1001  NAD1001     0.0157
     44  C6N       84.2940  132.5180  107.0290 C.2   1001  NAD1001     0.0633
@<TRIPOS>BOND
     1    11    10    1
     2     9     8    1
     3    10     8    1
     4    10    12    1
     5     8     6    1
     6    12    13    1
     7    12     7    1
     8    13    14    1
     9    13    22    1
    10    14    15    1
    11    22    21    2
    12    22    16    1
    13    21    20    1
    14     6     7    1
    15     6     5    1
    16    15    16    2
    17    16    17    1
    18    20    19    1
    19    17    19    2
    20    17    18    1
    21     5     4    1
    22     3     1    2
    23     4     1    1
    24    26    24    2
    25     1    23    1
    26     1     2    1
    27    23    24    1
    28    24    25    1
    29    24    27    1
    30    27    28    1
    31    43    44    2
    32    43    42    1
    33    44    36    1
    34    42    38    2
    35    30    29    1
    36    30    35    1
    37    28    29    1
    38    36    35    1
    39    36    37    1
    40    29    31    1
    41    38    37    1
    42    38    39    1
    43    35    33    1
    44    40    39    2
    45    39    41   am
    46    31    33    1
    47    31    32    1
    48    33    34    1
