@<TRIPOS>MOLECULE
1qay_MEV_A_1.pdb
 10 9 0 0 0
SMALL
GASTEIGER

@<TRIPOS>ATOM
      1  C8        85.2220  127.6650  109.7550 C.3   1002  MEV1002     0.1846
      2  O8        84.5190  128.9060  109.6210 O.3   1002  MEV1002    -0.2203
      3  C2        85.8350  127.2560  108.4010 C.3   1002  MEV1002     0.0665
      4  C3        85.8520  125.7290  108.1520 C.3   1002  MEV1002     0.1400
      5  O7        86.5580  125.4460  106.9370 O.3   1002  MEV1002    -0.2250
      6  C4        86.5590  125.0790  109.3680 C.3   1002  MEV1002     0.1444
      7  C5        86.5280  123.5520  109.4530 C.2   1002  MEV1002     0.3674
      8  O3        86.7930  122.8690  108.4430 O.co2 1002  MEV1002    -0.2456
      9  O4        86.2570  123.0260  110.5520 O.co2 1002  MEV1002    -0.2456
     10  C6        84.4040  125.2310  107.9880 C.3   1002  MEV1002     0.0336
@<TRIPOS>BOND
     1     5     4    1
     2    10     4    1
     3     4     3    1
     4     4     6    1
     5     3     1    1
     6     8     7   ar
     7     6     7    1
     8     7     9   ar
     9     2     1    1
