@<TRIPOS>MOLECULE
1qay_NAD_B_1.pdb
 44 48 0 0 0
SMALL
GASTEIGER

@<TRIPOS>ATOM
      1  PA        82.7730  139.8160  104.3180 P.3   1001  NAD1001     0.2189
      2  O1A       81.9040  140.3700  105.3820 O.3   1001  NAD1001    -0.4371
      3  O2A       82.0820  139.4100  103.0660 O.2   1001  NAD1001    -0.5170
      4  O5B       83.8730  140.9230  103.9530 O.3   1001  NAD1001    -0.3112
      5  C5B       84.5180  140.8970  102.6750 C.3   1001  NAD1001     0.1813
      6  C4B       83.7400  141.7590  101.7020 C.3   1001  NAD1001     0.1821
      7  O4B       83.8760  143.1450  102.0730 O.3   1001  NAD1001    -0.3135
      8  C3B       84.2970  141.5820  100.3060 C.3   1001  NAD1001     0.2184
      9  O3B       83.3010  140.9940   99.4590 O.3   1001  NAD1001    -0.2174
     10  C2B       84.6470  142.9780   99.8150 C.3   1001  NAD1001     0.2570
     11  O2B       83.9360  143.2750   98.6000 O.3   1001  NAD1001    -0.2130
     12  C1B       84.1940  143.9160  100.9040 C.3   1001  NAD1001     0.3186
     13  N9A       85.2420  144.9200  101.2310 N.pl3 1001  NAD1001    -0.1439
     14  C8A       84.9110  146.2360  101.2710 C.3   1001  NAD1001     0.3377
     15  N7A       85.9760  146.9280  101.6580 N.2   1001  NAD1001    -0.2095
     16  C5A       86.8910  146.0180  101.8250 C.2   1001  NAD1001     0.2526
     17  C6A       88.1810  146.3120  102.2300 C.2   1001  NAD1001     0.4393
     18  N6A       88.5490  147.5740  102.4690 N.pl3 1001  NAD1001     0.2180
     19  N1A       89.0580  145.2990  102.3680 N.2   1001  NAD1001     0.0021
     20  C2A       88.6930  144.0350  102.1260 C.3   1001  NAD1001     0.5254
     21  N3A       87.4490  143.7380  101.7360 N.2   1001  NAD1001    -0.0055
     22  C4A       86.5330  144.7210  101.5850 C.2   1001  NAD1001     0.3518
     23  O3        83.6550  138.5740  104.8900 O.3   1001  NAD1001    -0.2703
     24  PN        85.0930  138.2860  105.5990 P.3   1001  NAD1001     0.2189
     25  O1N       85.4250  139.3470  106.5880 O.3   1001  NAD1001    -0.4371
     26  O2N       86.1210  137.9520  104.5830 O.2   1001  NAD1001    -0.5170
     27  O5D       84.8510  136.9360  106.4410 O.3   1001  NAD1001    -0.3112
     28  C5D       84.8660  136.9630  107.8870 C.3   1001  NAD1001     0.1813
     29  C4D       83.5390  136.4310  108.3940 C.3   1001  NAD1001     0.1799
     30  O4D       83.2900  135.1310  107.8140 O.3   1001  NAD1001    -0.3327
     31  C3D       83.5600  136.2660  109.8970 C.3   1001  NAD1001     0.2158
     32  O3D       82.2690  136.6250  110.3910 O.3   1001  NAD1001    -0.2175
     33  C2D       83.8080  134.7760  110.1280 C.3   1001  NAD1001     0.2309
     34  O2D       83.0490  134.2780  111.2700 O.3   1001  NAD1001    -0.2158
     35  C1D       83.3080  134.1260  108.8540 C.3   1001  NAD1001     0.2263
     36  N1N       84.1440  132.9920  108.3890 N.pl3 1001  NAD1001    -0.2787
     37  C2N       85.2720  132.5260  109.1090 C.3   1001  NAD1001     0.1244
     38  C3N       86.0330  131.4670  108.5960 C.2   1001  NAD1001     0.0544
     39  C7N       87.2760  130.9410  109.3450 C.2   1001  NAD1001     0.2818
     40  O7N       87.7030  129.8170  109.0920 O.2   1001  NAD1001    -0.2670
     41  N7N       87.8780  131.7010  110.2550 N.am  1001  NAD1001    -0.0839
     42  C4N       85.6680  130.8780  107.3780 C.2   1001  NAD1001     0.0033
     43  C5N       84.5590  131.3310  106.6680 C.2   1001  NAD1001     0.0157
     44  C6N       83.7990  132.3810  107.1660 C.2   1001  NAD1001     0.0633
@<TRIPOS>BOND
     1    11    10    1
     2     9     8    1
     3    10     8    1
     4    10    12    1
     5     8     6    1
     6    12    13    1
     7    12     7    1
     8    13    14    1
     9    13    22    1
    10    14    15    1
    11    22    21    2
    12    22    16    1
    13    15    16    2
    14     6     7    1
    15     6     5    1
    16    21    20    1
    17    16    17    1
    18    20    19    1
    19    17    19    2
    20    17    18    1
    21     5     4    1
    22     3     1    2
    23     4     1    1
    24     1    23    1
    25     1     2    1
    26    26    24    2
    27    23    24    1
    28    24    27    1
    29    24    25    1
    30    27    28    1
    31    43    44    2
    32    43    42    1
    33    44    36    1
    34    42    38    2
    35    30    29    1
    36    30    35    1
    37    28    29    1
    38    36    35    1
    39    36    37    1
    40    29    31    1
    41    38    37    1
    42    38    39    1
    43    35    33    1
    44    40    39    2
    45    39    41   am
    46    31    33    1
    47    31    32    1
    48    33    34    1
