@<TRIPOS>MOLECULE
1qb1_974_A_1.pdb
 41 45 0 0 0
SMALL
GASTEIGER

@<TRIPOS>ATOM
      1  O1        11.7250   36.6150   12.0780 O.3   300  974300     -0.4250
      2  C11       12.5520   36.1640   11.0990 C.ar  300  974300      0.1868
      3  C12       12.0470   35.9790    9.7920 C.ar  300  974300      0.0489
      4  C13       12.8580   35.5610    8.7300 C.ar  300  974300      0.1007
      5  C14       14.2070   35.2710    8.9650 C.ar  300  974300      0.0115
      6  C15       14.7550   35.4300   10.2390 C.ar  300  974300      0.0455
      7  C16       13.9470   35.8860   11.3090 C.ar  300  974300      0.2299
      8  O11       14.5420   36.0350   12.5290 O.3   300  974300     -0.2833
      9  C17       12.2060   35.3880    7.4950 C.2   300  974300      0.4767
     10  N11       10.9110   35.6540    7.2960 N.pl3 300  974300      0.2047
     11  N12       12.7900   34.9120    6.4050 N.pl3 300  974300      0.2047
     12  C1        10.9220   37.7630   13.9970 C.3   300  974300      0.2869
     13  F1        10.3100   36.7200   14.5010 F     300  974300     -0.2195
     14  C2        10.8680   39.0180   14.6700 C.2   300  974300      0.1016
     15  C3        11.5260   40.1160   14.0860 C.2   300  974300      0.2184
     16  F2        11.5090   41.2760   14.6870 F     300  974300     -0.1969
     17  C4        12.2030   39.9420   12.8720 C.2   300  974300      0.3140
     18  N5        12.2390   38.7440   12.2520 N.2   300  974300     -0.3305
     19  C6        11.6170   37.6720   12.7970 C.2   300  974300      0.2993
     20  N31       10.1960   39.1620   15.8440 N.pl3 300  974300     -0.3058
     21  C32       10.2260   38.0680   16.8050 C.3   300  974300      0.1018
     22  C33       10.4450   38.6550   18.2360 C.3   300  974300      0.1231
     23  C34        9.2830   39.6700   18.5530 C.3   300  974300      0.0147
     24  C35        9.3240   40.8200   17.4830 C.3   300  974300      0.0220
     25  C36        9.2500   40.2340   16.0490 C.3   300  974300      0.0907
     26  C37       10.5980   37.6510   19.3160 C.2   300  974300      0.3660
     27  O31        9.5750   37.3810   20.0060 O.co2 300  974300     -0.2456
     28  O32       11.7120   37.4510   19.8750 O.co2 300  974300     -0.2456
     29  O2        12.8780   40.8850   12.2280 O.3   300  974300     -0.4257
     30  C21       12.5560   42.1160   11.8290 C.ar  300  974300      0.1484
     31  C22       11.2740   42.3630   11.3400 C.ar  300  974300      0.0376
     32  C23       10.9360   43.6620   10.9170 C.ar  300  974300      0.0032
     33  C24       11.9030   44.6820   10.9950 C.ar  300  974300      0.0032
     34  C25       13.1980   44.4240   11.4880 C.ar  300  974300      0.0372
     35  C26       13.5220   43.1330   11.9250 C.ar  300  974300      0.0406
     36  C27       14.1370   45.4670   11.6050 C.ar  300  974300      0.1440
     37  N21       14.5570   46.3530   10.6670 N.ar  300  974300     -0.3082
     38  C30       14.1670   46.4610    9.2820 C.3   300  974300      0.1320
     39  N22       14.7450   45.7120   12.7870 N.ar  300  974300     -0.2252
     40  C28       15.4900   47.2540   11.2460 C.ar  300  974300      0.0980
     41  C29       15.6150   46.8110   12.7190 C.ar  300  974300      0.1192
@<TRIPOS>BOND
     1    11     9    2
     2    10     9    1
     3     9     4    1
     4     4     5   ar
     5     4     3   ar
     6     5     6   ar
     7    38    37    1
     8     3     2   ar
     9     6     7   ar
    10    37    40   ar
    11    37    36   ar
    12    32    33   ar
    13    32    31   ar
    14    33    34   ar
    15     2     7   ar
    16     2     1    1
    17    40    41   ar
    18     7     8    1
    19    31    30   ar
    20    34    36    1
    21    34    35   ar
    22    36    39   ar
    23    30    35   ar
    24    30    29    1
    25     1    19    1
    26    29    17    1
    27    18    19    2
    28    18    17    2
    29    41    39   ar
    30    19    12    1
    31    17    15    1
    32    12    13    1
    33    12    14    1
    34    15    14    2
    35    15    16    1
    36    14    20    1
    37    20    25    1
    38    20    21    1
    39    25    24    1
    40    21    22    1
    41    24    23    1
    42    22    23    1
    43    22    26    1
    44    26    28   ar
    45    26    27   ar
