@<TRIPOS>MOLECULE
1qb6_623_A_1.pdb
 29 31 0 0 0
SMALL
GASTEIGER

@<TRIPOS>ATOM
      1  C1         8.9010   25.1190   20.0180 C.3   300  623300      0.2700
      2  F1         7.6380   25.2630   20.3870 F     300  623300     -0.2213
      3  C2         9.7590   26.2110   19.7440 C.2   300  623300      0.0315
      4  C3        11.0890   25.9250   19.3520 C.2   300  623300      0.2013
      5  F3        11.9410   26.8980   19.0900 F     300  623300     -0.1986
      6  C4        11.5310   24.5740   19.2450 C.2   300  623300      0.3124
      7  N5        10.6810   23.5470   19.5070 N.2   300  623300     -0.3306
      8  C6         9.4110   23.8090   19.8800 C.2   300  623300      0.2975
      9  C7         9.2320   27.6020   19.8710 C.3   300  623300      0.0322
     10  O1        12.7750   24.2960   18.8630 O.3   300  623300     -0.4258
     11  O2         8.5610   22.7850   20.1740 O.3   300  623300     -0.4283
     12  C21        9.0790   21.5800   20.5750 C.ar  300  623300      0.1482
     13  C22        8.8030   20.5380   19.6860 C.ar  300  623300      0.0456
     14  C23        9.2670   19.2450   19.9590 C.ar  300  623300      0.1005
     15  C24       10.0360   18.9970   21.1150 C.ar  300  623300      0.0082
     16  C25       10.3390   20.0510   22.0110 C.ar  300  623300      0.0034
     17  C26        9.8580   21.3480   21.7070 C.ar  300  623300      0.0376
     18  C27        8.9950   18.2340   19.0120 C.2   300  623300      0.4767
     19  N21        8.2300   18.4260   17.9630 N.pl3 300  623300      0.2047
     20  N22        9.3620   16.9880   19.1360 N.pl3 300  623300      0.2047
     21  C11       13.9450   24.9590   18.7290 C.ar  300  623300      0.1485
     22  C12       14.2760   25.8810   19.7320 C.ar  300  623300      0.0376
     23  C13       15.4920   26.5820   19.6820 C.ar  300  623300      0.0034
     24  C14       16.3970   26.3530   18.6330 C.ar  300  623300      0.0082
     25  C15       16.1070   25.4160   17.6080 C.ar  300  623300      0.1005
     26  C16       14.8720   24.7250   17.6820 C.ar  300  623300      0.0456
     27  C17       17.0270   25.1780   16.5630 C.2   300  623300      0.4767
     28  N11       18.2080   25.7980   16.4030 N.pl3 300  623300      0.2047
     29  N12       16.7940   24.3050   15.5860 N.pl3 300  623300      0.2047
@<TRIPOS>BOND
     1    29    27    2
     2    28    27    1
     3    27    25    1
     4    25    26   ar
     5    25    24   ar
     6    26    21   ar
     7    19    18    2
     8    24    23   ar
     9    21    10    1
    10    21    22   ar
    11    10     6    1
    12    18    20    1
    13    18    14    1
    14     5     4    1
    15     6     4    1
    16     6     7    2
    17     4     3    2
    18     7     8    2
    19    23    22   ar
    20    13    14   ar
    21    13    12   ar
    22     3     9    1
    23     3     1    1
    24     8     1    1
    25     8    11    1
    26    14    15   ar
    27     1     2    1
    28    11    12    1
    29    12    17   ar
    30    15    16   ar
    31    17    16   ar
