@<TRIPOS>MOLECULE
1qb7_CIT_A_1.pdb
 13 12 0 0 0
SMALL
GASTEIGER

@<TRIPOS>ATOM
      1  C1        31.8940   26.3890   15.8860 C.2   325  CIT325      0.3680
      2  O1        32.8710   25.9450   15.2230 O.co2 325  CIT325     -0.2455
      3  O2        31.1220   27.2590   15.3510 O.co2 325  CIT325     -0.2455
      4  C2        31.3810   25.5920   17.0770 C.3   325  CIT325      0.1560
      5  C3        30.4810   24.3580   16.7360 C.3   325  CIT325      0.2402
      6  O7        31.1450   23.3720   15.9360 O.3   325  CIT325     -0.2129
      7  C4        29.1920   24.8980   16.0250 C.3   325  CIT325      0.1560
      8  C5        28.3100   23.7600   15.4580 C.2   325  CIT325      0.3680
      9  O3        28.4140   22.5710   15.8960 O.co2 325  CIT325     -0.2455
     10  O4        27.2330   24.0790   14.8640 O.co2 325  CIT325     -0.2455
     11  C6        30.0090   23.7010   18.0210 C.2   325  CIT325      0.3927
     12  O5        30.5370   22.6320   18.3860 O.co2 325  CIT325     -0.2429
     13  O6        29.4870   24.4490   18.8760 O.co2 325  CIT325     -0.2429
@<TRIPOS>BOND
     1    10     8   ar
     2     2     1   ar
     3     3     1   ar
     4     8     9   ar
     5     8     7    1
     6     1     4    1
     7     6     5    1
     8     7     5    1
     9     5     4    1
    10     5    11    1
    11    11    12   ar
    12    11    13   ar
