@<TRIPOS>MOLECULE
1qb7_ADE_A_1.pdb
 10 11 0 0 0
SMALL
GASTEIGER

@<TRIPOS>ATOM
      1  N9        27.0430   31.9110   14.5860 N.2   300  ADE300     -0.1914
      2  C8        27.4820   30.7020   14.9690 C.3   300  ADE300      0.2618
      3  N7        26.7420   30.1440   15.9330 N.2   300  ADE300     -0.2267
      4  C5        25.7630   31.0770   16.1700 C.2   300  ADE300      0.2303
      5  C6        24.6790   31.1130   17.0550 C.2   300  ADE300      0.4393
      6  N6        24.4200   30.1110   17.8920 N.pl3 300  ADE300      0.2185
      7  N1        23.8950   32.2250   17.0190 N.2   300  ADE300     -0.0265
      8  C2        24.1810   33.2150   16.1660 C.3   300  ADE300      0.4008
      9  N3        25.1850   33.2850   15.2850 N.2   300  ADE300     -0.1640
     10  C4        25.9380   32.1680   15.3490 C.1   300  ADE300      0.0579
@<TRIPOS>BOND
     1     1     2    1
     2     1    10    2
     3     2     3    1
     4     9    10    2
     5     9     8    1
     6    10     4    1
     7     3     4    2
     8     8     7    1
     9     4     5    1
    10     7     5    2
    11     5     6    1
