@<TRIPOS>MOLECULE
1qb8_CIT_A_1.pdb
 13 12 0 0 0
SMALL
GASTEIGER

@<TRIPOS>ATOM
      1  C1        32.2890   26.6440   16.0100 C.2   325  CIT325      0.3680
      2  O1        33.5070   26.3510   15.8350 O.co2 325  CIT325     -0.2455
      3  O2        31.6840   27.4120   15.1890 O.co2 325  CIT325     -0.2455
      4  C2        31.5260   26.0690   17.1920 C.3   325  CIT325      0.1560
      5  C3        30.7620   24.7150   16.9590 C.3   325  CIT325      0.2402
      6  O7        31.4450   23.7930   16.0940 O.3   325  CIT325     -0.2129
      7  C4        29.3150   25.0580   16.4240 C.3   325  CIT325      0.1560
      8  C5        28.5850   23.8050   15.8630 C.2   325  CIT325      0.3680
      9  O3        28.5900   22.7330   16.5300 O.co2 325  CIT325     -0.2455
     10  O4        27.6120   23.9750   15.0630 O.co2 325  CIT325     -0.2455
     11  C6        30.5710   24.0450   18.2940 C.2   325  CIT325      0.3927
     12  O5        30.5200   22.8040   18.3590 O.co2 325  CIT325     -0.2429
     13  O6        30.0200   24.7260   19.1680 O.co2 325  CIT325     -0.2429
@<TRIPOS>BOND
     1    10     8   ar
     2     3     1   ar
     3     2     1   ar
     4     8     7    1
     5     8     9   ar
     6     1     4    1
     7     6     5    1
     8     7     5    1
     9     5     4    1
    10     5    11    1
    11    11    12   ar
    12    11    13   ar
