@<TRIPOS>MOLECULE
1qb8_AMP_A_1.pdb
 23 25 0 0 0
SMALL
GASTEIGER

@<TRIPOS>ATOM
      1  P         28.6520   29.0350    9.7650 P.3   300  AMP300      0.5327
      2  O1P       29.7100   28.1470    9.2270 O.3   300  AMP300     -0.1145
      3  O2P       27.2950   28.9470    9.1900 O.2   300  AMP300     -0.2224
      4  O3P       29.1570   30.5460    9.6960 O.3   300  AMP300     -0.1145
      5  O5'       28.5390   28.8250   11.2630 O.3   300  AMP300     -0.2675
      6  C5'       29.4610   27.8700   12.0090 C.3   300  AMP300      0.1860
      7  C4'       28.8380   27.3590   13.2980 C.3   300  AMP300      0.1823
      8  O4'       28.9970   28.3800   14.2800 O.3   300  AMP300     -0.3135
      9  C3'       27.3170   27.0590   13.1960 C.3   300  AMP300      0.2184
     10  O3'       27.0160   25.6820   13.1150 O.3   300  AMP300     -0.2174
     11  C2'       26.6910   27.5280   14.4720 C.3   300  AMP300      0.2570
     12  O2'       26.8260   26.4720   15.4190 O.3   300  AMP300     -0.2130
     13  C1'       27.7010   28.6500   14.7330 C.3   300  AMP300      0.3186
     14  N9        27.2760   30.0010   14.9780 N.pl3 300  AMP300     -0.1439
     15  C8        27.3670   31.0790   14.1450 C.3   300  AMP300      0.3377
     16  N7        26.6290   32.0740   14.5430 N.2   300  AMP300     -0.2095
     17  C5        25.9970   31.6610   15.7110 C.2   300  AMP300      0.2526
     18  C6        25.0910   32.2600   16.6090 C.2   300  AMP300      0.4393
     19  N6        24.6280   33.5180   16.4440 N.pl3 300  AMP300      0.2180
     20  N1        24.6970   31.5010   17.6650 N.2   300  AMP300      0.0021
     21  C2        25.1570   30.2640   17.8190 C.3   300  AMP300      0.5254
     22  N3        26.0130   29.5770   17.0490 N.2   300  AMP300     -0.0055
     23  C4        26.4200   30.3310   15.9790 C.2   300  AMP300      0.3518
@<TRIPOS>BOND
     1     3     1    2
     2     2     1    1
     3     4     1    1
     4     1     5    1
     5     5     6    1
     6     6     7    1
     7    10     9    1
     8     9     7    1
     9     9    11    1
    10     7     8    1
    11    15    16    1
    12    15    14    1
    13     8    13    1
    14    11    13    1
    15    11    12    1
    16    16    17    2
    17    13    14    1
    18    14    23    1
    19    17    23    1
    20    17    18    1
    21    23    22    2
    22    19    18    1
    23    18    20    2
    24    22    21    1
    25    20    21    1
