@<TRIPOS>MOLECULE
1qb9_806_A_1.pdb
 37 42 0 0 0
SMALL
GASTEIGER

@<TRIPOS>ATOM
      1  N1        19.6800    2.1500   53.8100 N.pl3 300  806300      0.2047
      2  C1        19.9090    1.5210   54.9540 C.2   300  806300      0.4766
      3  N2        18.8690    0.7860   55.3640 N.pl3 300  806300      0.2047
      4  C2        21.0750    1.6030   55.7630 C.ar  300  806300      0.0975
      5  C3        22.2160    2.3270   55.3700 C.ar  300  806300      0.0080
      6  C4        23.3650    2.3730   56.2070 C.ar  300  806300     -0.0000
      7  C5        24.5020    3.1220   55.8000 C.ar  300  806300     -0.0024
      8  C6        25.6700    3.1410   56.6190 C.ar  300  806300      0.0004
      9  C7        25.6610    2.4280   57.8380 C.ar  300  806300     -0.0024
     10  C8        24.5350    1.7160   58.2620 C.ar  300  806300     -0.0003
     11  C9        23.3760    1.6660   57.4410 C.ar  300  806300     -0.0000
     12  C10       22.2570    0.9260   57.8630 C.ar  300  806300      0.0003
     13  C11       21.1210    0.9080   57.0200 C.ar  300  806300      0.0080
     14  C12       26.9010    3.9020   56.1750 C.3   300  806300      0.1327
     15  N21       28.1230    3.1900   56.5870 N.ar  300  806300     -0.3229
     16  C21       28.8770    3.5270   57.6880 C.ar  300  806300      0.0601
     17  C22       29.9340    2.6340   57.8400 C.ar  300  806300      0.0172
     18  C23       29.8170    1.7300   56.8040 C.ar  300  806300      0.0174
     19  C24       28.6860    2.0890   56.0410 C.ar  300  806300      0.0632
     20  C25       30.6510    0.6320   56.5360 C.ar  300  806300      0.0046
     21  C26       30.3180   -0.1420   55.4170 C.ar  300  806300      0.0370
     22  C27       29.1710    0.1870   54.6210 C.ar  300  806300      0.1398
     23  C28       28.3620    1.2810   54.9170 C.ar  300  806300      0.0541
     24  C29       30.8970    2.6960   58.8640 C.ar  300  806300      0.0015
     25  C30       30.7770    3.7480   59.7920 C.ar  300  806300      0.0001
     26  C31       29.7080    4.6710   59.6700 C.ar  300  806300      0.0015
     27  C32       28.7530    4.5750   58.6320 C.ar  300  806300      0.0172
     28  O         28.9380   -0.6660   53.5510 O.3   300  806300     -0.4790
     29  C41       29.8570   -1.8200   53.3930 C.3   300  806300      0.1687
     30  C42       31.3180   -1.3350   53.1880 C.3   300  806300      0.0609
     31  C43       31.6910   -1.3610   51.6590 C.3   300  806300      0.0770
     32  N41       31.7100   -2.7510   51.2380 N.3   300  806300     -0.2588
     33  C44       30.4790   -3.4770   51.5120 C.3   300  806300      0.0770
     34  C45       29.3770   -2.6870   52.2250 C.3   300  806300      0.0609
     35  C46       32.7940   -3.3460   50.6280 C.3   300  806300      0.1511
     36  N42       32.7680   -4.6500   50.2360 N.3   300  806300     -0.1150
     37  C47       34.0800   -2.6720   50.3310 C.3   300  806300      0.0386
@<TRIPOS>BOND
     1    36    35    1
     2    37    35    1
     3    35    32    1
     4    32    33    1
     5    32    31    1
     6    33    34    1
     7    31    30    1
     8    34    29    1
     9    30    29    1
    10    29    28    1
    11    28    22    1
    12     1     2    2
    13    22    23   ar
    14    22    21   ar
    15    23    19   ar
    16     2     3    1
    17     2     4    1
    18     5     4   ar
    19     5     6   ar
    20    21    20   ar
    21     4    13   ar
    22     7     6   ar
    23     7     8   ar
    24    19    15   ar
    25    19    18   ar
    26    14    15    1
    27    14     8    1
    28     6    11   ar
    29    20    18   ar
    30    15    16   ar
    31     8     9   ar
    32    18    17   ar
    33    13    12   ar
    34    11    12   ar
    35    11    10   ar
    36    16    17   ar
    37    16    27   ar
    38     9    10   ar
    39    17    24   ar
    40    27    26   ar
    41    24    25   ar
    42    26    25   ar
