@<TRIPOS>MOLECULE
1qbb_CBS_A_1.pdb
 29 30 0 0 0
SMALL
GASTEIGER

@<TRIPOS>ATOM
      1  C1A       27.2460   56.3210   23.3070 C.3   891  CBS891      0.2586
      2  C2A       26.7530   54.9100   23.4670 C.3   891  CBS891      0.1842
      3  C3A       25.3150   54.6720   23.3160 C.3   891  CBS891      0.2094
      4  C4A       24.5030   55.9490   23.1630 C.3   891  CBS891      0.2136
      5  C5A       25.1600   56.8430   22.1180 C.3   891  CBS891      0.1834
      6  C6A       24.3560   58.1100   21.9350 C.3   891  CBS891      0.2142
      7  C7A       27.8620   53.9440   21.5130 C.2   891  CBS891      0.2420
      8  C8A       28.6710   52.8350   20.9750 C.3   891  CBS891      0.0964
      9  N2A       27.5790   53.9080   22.8050 N.am  891  CBS891     -0.1992
     10  O1A       27.1750   56.9790   24.6160 O.3   891  CBS891     -0.3264
     11  O3A       24.6380   53.8620   24.2170 O.3   891  CBS891     -0.2183
     12  O4A       23.1650   55.7790   22.8000 O.3   891  CBS891     -0.2176
     13  O5A       26.4750   57.0960   22.4560 O.3   891  CBS891     -0.3262
     14  O6A       24.9480   58.8670   20.8540 O.3   891  CBS891     -0.2176
     15  O7A       27.7040   55.0150   20.8820 O.2   891  CBS891     -0.2733
     16  C1B       28.0310   60.6480   26.5400 C.3   891  CBS891      0.2917
     17  C2B       26.6460   60.4780   25.9540 C.3   891  CBS891      0.1870
     18  C3B       26.3530   58.9500   25.7630 C.3   891  CBS891      0.2063
     19  C4B       27.4200   58.3750   24.8150 C.3   891  CBS891      0.1795
     20  C5B       28.7790   58.7030   25.3310 C.3   891  CBS891      0.1803
     21  C6B       29.9970   58.3480   24.4650 C.3   891  CBS891      0.2141
     22  C7B       24.9560   62.2400   26.5060 C.2   891  CBS891      0.2420
     23  C8B       23.9180   62.6760   27.5000 C.3   891  CBS891      0.0964
     24  N2B       25.6380   61.0920   26.7590 N.am  891  CBS891     -0.1991
     25  O1B       27.9690   60.1520   27.8360 O.3   891  CBS891     -0.1879
     26  O3B       25.0700   58.9460   25.0570 O.3   891  CBS891     -0.2184
     27  O5B       29.0180   59.9930   25.8320 O.3   891  CBS891     -0.3243
     28  O6B       31.1980   58.4760   25.2560 O.3   891  CBS891     -0.2176
     29  O7B       25.2180   62.9510   25.5480 O.2   891  CBS891     -0.2733
@<TRIPOS>BOND
     1    14     6    1
     2    15     7    2
     3     8     7    1
     4     7     9   am
     5     6     5    1
     6     5    13    1
     7     5     4    1
     8    13     1    1
     9    12     4    1
    10     9     2    1
    11     4     3    1
    12     1     2    1
    13     1    10    1
    14     3     2    1
    15     3    11    1
    16    21    28    1
    17    21    20    1
    18    10    19    1
    19    19    20    1
    20    19    18    1
    21    26    18    1
    22    20    27    1
    23    29    22    2
    24    18    17    1
    25    27    16    1
    26    17    16    1
    27    17    24    1
    28    22    24   am
    29    22    23    1
    30    16    25    1
