@<TRIPOS>MOLECULE
1qbk_GNP_C_1.pdb
 32 34 0 0 0
SMALL
GASTEIGER

@<TRIPOS>ATOM
      1  PG       -36.4260  126.0820   42.7130 P.3   218  GNP218      0.4884
      2  O1G      -37.6720  126.7420   42.3510 O.2   218  GNP218     -0.2331
      3  O2G      -36.5730  124.6480   42.8190 O.3   218  GNP218     -0.1240
      4  O3G      -36.0960  126.4590   44.2400 O.3   218  GNP218     -0.1240
      5  N3B      -35.2230  126.5960   41.7410 N.3   218  GNP218     -0.0163
      6  PB       -33.6790  126.0610   41.8270 P.3   218  GNP218      0.4669
      7  O1B      -33.0580  126.2640   43.1500 O.3   218  GNP218     -0.1253
      8  O2B      -33.4920  124.7020   41.3030 O.2   218  GNP218     -0.2351
      9  O3A      -32.8460  127.0100   40.8420 O.3   218  GNP218     -0.2360
     10  PA       -32.6740  126.8120   39.1990 P.3   218  GNP218      0.2220
     11  O1A      -31.8830  125.5780   38.8860 O.3   218  GNP218     -0.4370
     12  O2A      -33.9610  127.0080   38.4790 O.2   218  GNP218     -0.5170
     13  O5'      -31.7360  128.0820   38.9290 O.3   218  GNP218     -0.3111
     14  C5'      -32.1990  129.4490   38.9470 C.3   218  GNP218      0.1813
     15  C4'      -31.3900  130.3600   37.9830 C.3   218  GNP218      0.1799
     16  O4'      -29.9940  130.4620   38.3960 O.3   218  GNP218     -0.3326
     17  C3'      -31.3860  129.7870   36.5340 C.3   218  GNP218      0.2158
     18  O3'      -31.4300  130.8080   35.4840 O.3   218  GNP218     -0.2175
     19  C2'      -30.0540  129.0430   36.5140 C.3   218  GNP218      0.2310
     20  O2'      -29.4870  128.8400   35.2180 O.3   218  GNP218     -0.2158
     21  C1'      -29.1560  130.0080   37.3140 C.3   218  GNP218      0.2293
     22  N9       -27.9360  129.3530   37.8800 N.pl3 218  GNP218     -0.2354
     23  C8       -27.8710  128.2210   38.6540 C.3   218  GNP218      0.2246
     24  N7       -26.7010  127.8800   39.0080 N.2   218  GNP218     -0.2322
     25  C5       -25.8900  128.8260   38.4510 C.2   218  GNP218      0.2182
     26  C6       -24.4840  128.9500   38.5190 C.1   218  GNP218      0.2372
     27  O6       -23.7090  128.2040   39.1100 O.2   218  GNP218     -0.2069
     28  N1       -24.0130  130.0790   37.8030 N.2   218  GNP218     -0.2485
     29  C2       -24.8020  130.9780   37.1070 C.1   218  GNP218      0.2531
     30  N2       -24.1810  131.9860   36.4910 N.pl3 218  GNP218     -0.0226
     31  N3       -26.1470  130.8450   37.0540 N.2   218  GNP218     -0.3074
     32  C4       -26.6200  129.7520   37.7460 C.2   218  GNP218      0.2300
@<TRIPOS>BOND
     1    20    19    1
     2    18    17    1
     3    30    29    1
     4    19    17    1
     5    19    21    1
     6    17    15    1
     7    31    29    2
     8    31    32    2
     9    29    28    2
    10    21    22    1
    11    21    16    1
    12    32    22    1
    13    32    25    1
    14    28    26    2
    15    22    23    1
    16    15    16    1
    17    15    14    1
    18    25    26    1
    19    25    24    2
    20    12    10    2
    21    26    27    2
    22    23    24    1
    23    11    10    1
    24    13    14    1
    25    13    10    1
    26    10     9    1
    27     9     6    1
    28     8     6    2
    29     5     6    1
    30     5     1    1
    31     6     7    1
    32     2     1    2
    33     1     3    1
    34     1     4    1
