@<TRIPOS>MOLECULE
1qbn_688_A_1.pdb
 32 35 0 0 0
SMALL
GASTEIGER

@<TRIPOS>ATOM
      1  C1         8.4360   25.0980   19.7900 C.3   300  688300      0.1326
      2  C2         9.2620   26.1940   19.3850 C.2   300  688300      0.0738
      3  C3        10.6500   25.9330   19.2850 C.2   300  688300      0.0749
      4  C4        11.0780   24.5730   19.2860 C.2   300  688300      0.2845
      5  N5        10.2640   23.5490   19.5690 N.2   300  688300     -0.3352
      6  C6         8.9360   23.7950   19.7040 C.2   300  688300      0.2648
      7  O1        12.3380   24.2640   18.8910 O.3   300  688300     -0.4273
      8  O2         8.1790   22.7170   20.0600 O.3   300  688300     -0.4268
      9  C7         8.7860   27.4790   19.4860 C.2   300  688300      0.3846
     10  O3         9.5170   28.4530   19.4130 O.co2 300  688300     -0.2409
     11  O4         7.4780   27.6860   19.6860 O.co2 300  688300     -0.2409
     12  C11        8.7770   21.5570   20.5010 C.ar  300  688300      0.1867
     13  C12        8.5490   20.4910   19.6100 C.ar  300  688300      0.0489
     14  C13        9.0190   19.2080   19.8720 C.ar  300  688300      0.1007
     15  C14        9.7720   18.9710   21.0620 C.ar  300  688300      0.0115
     16  C15       10.0260   20.0430   21.9510 C.ar  300  688300      0.0455
     17  C16        9.5140   21.3370   21.6660 C.ar  300  688300      0.2299
     18  C17        8.7720   18.1590   18.9400 C.2   300  688300      0.4767
     19  N11        8.0230   18.2430   17.8670 N.pl3 300  688300      0.2047
     20  N12        9.3080   16.9500   19.0890 N.pl3 300  688300      0.2047
     21  O11        9.8170   22.3350   22.5530 O.3   300  688300     -0.2833
     22  C21       13.4420   25.0430   18.8220 C.ar  300  688300      0.1488
     23  C22       13.5780   26.0610   19.7880 C.ar  300  688300      0.0376
     24  C23       14.7230   26.8870   19.7690 C.ar  300  688300      0.0038
     25  C24       15.6630   26.6870   18.7470 C.ar  300  688300      0.0102
     26  C25       15.5200   25.6990   17.7620 C.ar  300  688300      0.0648
     27  C26       14.3780   24.8600   17.7760 C.ar  300  688300      0.0476
     28  C27       16.4350   25.4490   16.7160 C.1   300  688300      0.0265
     29  N21       17.5250   26.1450   16.3940 N.2   300  688300     -0.2181
     30  N22       16.5180   24.2260   16.1370 N.2   300  688300     -0.2181
     31  C28       17.6700   24.1240   15.3190 C.3   300  688300      0.1634
     32  C29       18.2440   25.5550   15.3330 C.3   300  688300      0.1634
@<TRIPOS>BOND
     1    31    32    1
     2    31    30    1
     3    32    29    1
     4    30    28    2
     5    29    28    2
     6    28    26    1
     7    26    27   ar
     8    26    25   ar
     9    27    22   ar
    10    19    18    2
    11    25    24   ar
    12    22     7    1
    13    22    23   ar
    14     7     4    1
    15    18    20    1
    16    18    14    1
    17     3     4    1
    18     3     2    2
    19     4     5    2
    20     2     9    1
    21     2     1    1
    22    10     9   ar
    23     9    11   ar
    24     5     6    2
    25    13    14   ar
    26    13    12   ar
    27     6     1    1
    28     6     8    1
    29    24    23   ar
    30    14    15   ar
    31     8    12    1
    32    12    17   ar
    33    15    16   ar
    34    17    16   ar
    35    17    21    1
