@<TRIPOS>MOLECULE
1qbo_711_A_1.pdb
 34 38 0 0 0
SMALL
GASTEIGER

@<TRIPOS>ATOM
      1  N1        19.9720    2.2570   54.3110 N.pl3 300  711300      0.2047
      2  C1        20.0620    1.5510   55.3560 C.2   300  711300      0.4766
      3  N2        18.9850    0.7930   55.7530 N.pl3 300  711300      0.2047
      4  C2        21.1670    1.5710   56.1090 C.ar  300  711300      0.0975
      5  C3        22.2750    2.3240   55.6880 C.ar  300  711300      0.0080
      6  C4        23.4470    2.3680   56.4640 C.ar  300  711300     -0.0000
      7  C5        24.4830    3.1160   56.0120 C.ar  300  711300     -0.0026
      8  C6        25.6730    3.1150   56.7850 C.ar  300  711300     -0.0020
      9  C7        25.7470    2.3730   57.9730 C.ar  300  711300     -0.0026
     10  C8        24.6480    1.6250   58.4160 C.ar  300  711300     -0.0003
     11  C9        23.5150    1.6290   57.6640 C.ar  300  711300     -0.0000
     12  C10       22.4050    0.8770   58.0950 C.ar  300  711300      0.0003
     13  C11       21.2260    0.8620   57.3340 C.ar  300  711300      0.0080
     14  C12       26.7860    3.8890   56.3190 C.3   300  711300      0.1242
     15  N21       28.0440    3.2560   56.7410 N.pl3 300  711300     -0.2598
     16  C21       28.9560    3.6620   57.8740 C.2   300  711300      0.1641
     17  C22       28.7270    4.7860   58.7280 C.3   300  711300      0.0840
     18  N22       30.0210    2.8670   57.9880 N.2   300  711300     -0.3939
     19  C23       29.9120    1.9710   57.0550 C.2   300  711300      0.1283
     20  C24       30.7690    0.9040   56.7730 C.3   300  711300      0.0894
     21  C25       30.5030    0.0380   55.7080 C.2   300  711300      0.0183
     22  C26       29.3430    0.2150   54.9280 C.2   300  711300      0.1359
     23  C27       28.4660    1.2800   55.2080 C.2   300  711300      0.0537
     24  C28       28.7530    2.1720   56.2730 C.2   300  711300      0.0825
     25  O         29.2120   -0.7000   53.9230 O.2   300  711300     -0.4793
     26  C31       30.3250   -1.5990   53.9140 C.3   300  711300      0.1687
     27  C32       31.4760   -1.0950   53.0590 C.3   300  711300      0.0609
     28  C33       31.4740   -1.5830   51.6030 C.3   300  711300      0.0770
     29  N31       31.2110   -3.0350   51.5630 N.3   300  711300     -0.2588
     30  C34       29.9460   -3.4930   52.1910 C.3   300  711300      0.0770
     31  C35       29.8670   -3.0210   53.6270 C.3   300  711300      0.0609
     32  C36       32.0730   -3.8860   50.9870 C.3   300  711300      0.1511
     33  N32       31.8250   -5.3090   50.9520 N.3   300  711300     -0.1150
     34  C37       33.2880   -3.3880   50.4050 C.3   300  711300      0.0386
@<TRIPOS>BOND
     1    34    32    1
     2    33    32    1
     3    32    29    1
     4    29    28    1
     5    29    30    1
     6    28    27    1
     7    30    31    1
     8    27    26    1
     9    31    26    1
    10    26    25    1
    11    25    22    1
    12     1     2    2
    13    22    23    1
    14    22    21    2
    15    23    24    2
    16     2     3    1
    17     2     4    1
    18     5     4   ar
    19     5     6   ar
    20    21    20    1
    21     7     6   ar
    22     7     8   ar
    23     4    13   ar
    24    24    15    1
    25    24    19    1
    26    14    15    1
    27    14     8    1
    28     6    11   ar
    29    15    16    1
    30    20    19    1
    31     8     9   ar
    32    19    18    2
    33    13    12   ar
    34    11    12   ar
    35    11    10   ar
    36    16    18    2
    37    16    17    1
    38     9    10   ar
