@<TRIPOS>MOLECULE
1qbq_III_P_1.pdb
 33 32 0 0 0
SMALL
GASTEIGER

@<TRIPOS>ATOM
      1  C        194.1700  132.2280   35.3790 C.2     0  ACE0        0.0000
      2  O        195.2100  131.9320   34.7720 O.2     0  ACE0        0.0000
      3  CH3      194.0530  133.4980   36.2030 C.3     0  ACE0        0.0000
      4  N        193.1020  131.4540   35.3680 N.am    1  CYS1        0.0000
      5  CA       193.1240  130.2380   34.6210 C.3     1  CYS1        0.0000
      6  C        192.1040  130.3420   33.5210 C.2     1  CYS1        0.0000
      7  O        190.9210  130.5440   33.7730 O.2     1  CYS1        0.0000
      8  CB       192.8580  129.0730   35.5600 C.3     1  CYS1        0.0000
      9  SG       194.0240  129.0260   36.9480 S.3     1  CYS1        0.0000
     10  N        192.5940  130.3040   32.2910 N.am    2  VAL2        0.0000
     11  CA       191.7510  130.3930   31.1100 C.3     2  VAL2        0.0000
     12  C        191.3210  128.9710   30.7220 C.2     2  VAL2        0.0000
     13  O        192.1650  128.1530   30.3520 O.2     2  VAL2        0.0000
     14  CB       192.5470  131.0520   29.9600 C.3     2  VAL2        0.0000
     15  CG1      191.7400  131.0900   28.6870 C.3     2  VAL2        0.0000
     16  CG2      192.9420  132.4610   30.3670 C.3     2  VAL2        0.0000
     17  N        190.0250  128.6690   30.8580 N.am    3  ILE3        0.0000
     18  CA       189.4780  127.3330   30.5230 C.3     3  ILE3        0.0000
     19  C        188.6550  127.2740   29.2060 C.2     3  ILE3        0.0000
     20  O        188.1470  126.2090   28.8250 O.2     3  ILE3        0.0000
     21  CB       188.6210  126.7270   31.7240 C.3     3  ILE3        0.0000
     22  CG1      187.3550  127.5540   31.9930 C.3     3  ILE3        0.0000
     23  CG2      189.4520  126.6720   32.9640 C.3     3  ILE3        0.0000
     24  CD1      186.4360  126.9520   33.0480 C.3     3  ILE3        0.0000
     25  N        188.6870  128.3670   28.4450 N.am    4  MET4        0.0000
     26  CA       187.9310  128.4830   27.2040 C.3     4  MET4        0.0000
     27  C        188.4410  129.7030   26.4020 C.2     4  MET4        0.0000
     28  O        188.2030  129.8040   25.1780 O.co2   4  MET4        0.0000
     29  OXT      189.0990  130.5720   27.0030 O.co2   4  MET4        0.0000
     30  CB       186.4870  128.6800   27.5970 C.3     4  MET4        0.0000
     31  CG       185.6050  129.1710   26.5470 C.3     4  MET4        0.0000
     32 SE        184.1190  129.8610   27.2780 Se      4  MET4        0.0000
     33  CE       183.3700  130.4080   25.7670 C.3     4  MET4        0.0000
@<TRIPOS>BOND
     1    28    27   ar
     2    33    32    1
     3    27    29   ar
     4    27    26    1
     5    31    32    1
     6    31    30    1
     7    26    30    1
     8    26    25    1
     9    25    19   am
    10    15    14    1
    11    20    19    2
    12    19    18    1
    13    14    16    1
    14    14    11    1
    15    13    12    2
    16    18    17    1
    17    18    21    1
    18    12    17   am
    19    12    11    1
    20    11    10    1
    21    21    22    1
    22    21    23    1
    23    22    24    1
    24    10     6   am
    25     6     7    2
    26     6     5    1
    27     5     4    1
    28     5     8    1
    29     2     1    2
    30     4     1   am
    31     1     3    1
    32     8     9    1
