@<TRIPOS>MOLECULE
1qbq_HFP_B_1.pdb
 20 19 0 0 0
SMALL
GASTEIGER

@<TRIPOS>ATOM
      1  P        197.7660  126.0930   32.6320 P.3   2001  HFP2001     0.1516
      2  O1P      198.9400  126.9520   32.6260 O.2   2001  HFP2001    -0.4573
      3  O2P      198.0850  124.6460   33.1350 O.3   2001  HFP2001    -0.3553
      4  O3P      196.6260  126.6790   33.4890 O.3   2001  HFP2001    -0.3553
      5  C1       197.1530  125.9630   30.9050 C.3   2001  HFP2001     0.2242
      6  O1       197.3570  127.2210   30.2330 O.3   2001  HFP2001    -0.2104
      7  C2       195.6740  125.6470   30.9190 C.2   2001  HFP2001     0.0051
      8  C3       195.1050  124.7900   30.0580 C.2   2001  HFP2001    -0.0450
      9  C4       195.9350  124.0970   29.0060 C.3   2001  HFP2001     0.0261
     10  C5       193.6120  124.5120   30.1220 C.3   2001  HFP2001     0.0264
     11  C6       193.1310  124.2850   31.5860 C.3   2001  HFP2001     0.0297
     12  C7       191.9070  123.3810   31.6060 C.2   2001  HFP2001    -0.0342
     13  C8       191.0900  123.3030   32.6730 C.2   2001  HFP2001    -0.0478
     14  C9       191.3850  124.1140   33.9120 C.3   2001  HFP2001     0.0260
     15  C10      189.8710  122.3880   32.6710 C.3   2001  HFP2001     0.0263
     16  C11      188.7720  122.9300   31.7860 C.3   2001  HFP2001     0.0297
     17  C12      187.5110  122.0950   31.9720 C.2   2001  HFP2001    -0.0342
     18  C13      186.3380  122.3820   31.3550 C.2   2001  HFP2001    -0.0478
     19  C14      186.2070  123.5610   30.4170 C.3   2001  HFP2001     0.0260
     20  C15      185.1120  121.5150   31.5740 C.3   2001  HFP2001     0.0260
@<TRIPOS>BOND
     1     9     8    1
     2     8    10    1
     3     8     7    2
     4    10    11    1
     5     6     5    1
     6    19    18    1
     7     5     7    1
     8     5     1    1
     9    18    20    1
    10    18    17    2
    11    11    12    1
    12    12    13    2
    13    16    17    1
    14    16    15    1
    15     2     1    2
    16     1     3    1
    17     1     4    1
    18    15    13    1
    19    13    14    1
