@<TRIPOS>MOLECULE
1qbs_DMP_A_1.pdb
 42 46 0 0 0
SMALL
GASTEIGER

@<TRIPOS>ATOM
      1  C1        -8.8240   15.2890   27.7960 C.2   323  DMP323      0.3077
      2  C3        -8.7650   17.6120   26.8940 C.3   323  DMP323      0.1144
      3  C4       -10.1510   18.1420   27.1200 C.3   323  DMP323      0.2021
      4  C5       -10.6110   17.8660   28.5290 C.3   323  DMP323      0.2021
      5  C6       -10.8730   16.3920   28.7780 C.3   323  DMP323      0.1144
      6  C20       -7.8950   15.6060   25.6580 C.3   323  DMP323      0.1217
      7  C21       -8.3940   16.0040   24.3140 C.ar  323  DMP323     -0.0023
      8  C22       -9.7620   16.0350   23.9810 C.ar  323  DMP323     -0.0029
      9  C23      -10.1750   16.3420   22.6670 C.ar  323  DMP323     -0.0020
     10  C24       -9.1890   16.6000   21.7020 C.ar  323  DMP323      0.0106
     11  C25       -7.8260   16.5690   22.0380 C.ar  323  DMP323     -0.0020
     12  C26       -7.4240   16.2810   23.3540 C.ar  323  DMP323     -0.0029
     13  C27       -9.5830   16.8780   20.2990 C.3   323  DMP323      0.2086
     14  C30       -7.6750   18.1900   27.7820 C.3   323  DMP323      0.0489
     15  C31       -6.3090   18.0780   27.1330 C.ar  323  DMP323     -0.0204
     16  C32       -5.3710   17.1390   27.6170 C.ar  323  DMP323     -0.0042
     17  C33       -4.1150   17.0170   27.0020 C.ar  323  DMP323     -0.0003
     18  C34       -3.7920   17.8380   25.9060 C.ar  323  DMP323     -0.0000
     19  C35       -4.7220   18.7820   25.4150 C.ar  323  DMP323     -0.0003
     20  C36       -5.9870   18.8970   26.0350 C.ar  323  DMP323     -0.0042
     21  C60      -11.9890   15.7360   27.9350 C.3   323  DMP323      0.0489
     22  C61      -12.5340   14.4820   28.5860 C.ar  323  DMP323     -0.0204
     23  C62      -13.2610   14.5870   29.8040 C.ar  323  DMP323     -0.0042
     24  C63      -13.6010   13.4140   30.5130 C.ar  323  DMP323     -0.0003
     25  C64      -13.2390   12.1520   29.9960 C.ar  323  DMP323     -0.0000
     26  C65      -12.5480   12.0500   28.7750 C.ar  323  DMP323     -0.0003
     27  C66      -12.1950   13.2160   28.0670 C.ar  323  DMP323     -0.0042
     28  C70       -9.5160   14.6730   30.0030 C.3   323  DMP323      0.1217
     29  C71       -9.6180   15.2850   31.3760 C.ar  323  DMP323     -0.0023
     30  C72      -10.2970   14.5400   32.3750 C.ar  323  DMP323     -0.0029
     31  C73      -10.3520   15.0360   33.6820 C.ar  323  DMP323     -0.0020
     32  C74       -9.7350   16.2670   33.9880 C.ar  323  DMP323      0.0106
     33  C75       -9.0700   17.0220   32.9890 C.ar  323  DMP323     -0.0020
     34  C76       -9.0140   16.5230   31.6810 C.ar  323  DMP323     -0.0029
     35  C77       -9.7360   16.7740   35.4100 C.3   323  DMP323      0.2086
     36  N2        -8.6000   16.1560   26.8220 N.am  323  DMP323     -0.2586
     37  N7        -9.6940   15.5050   28.8070 N.am  323  DMP323     -0.2586
     38  O1        -8.1740   14.2590   27.7580 O.2   323  DMP323     -0.2523
     39  O4       -10.0250   19.4970   26.8340 O.3   323  DMP323     -0.2186
     40  O5       -11.8020   18.5230   28.8520 O.3   323  DMP323     -0.2186
     41  O27       -9.0170   18.1250   19.9200 O.3   323  DMP323     -0.2152
     42  O77      -11.0720   16.7380   35.8800 O.3   323  DMP323     -0.2152
@<TRIPOS>BOND
     1    41    13    1
     2    13    10    1
     3    10    11   ar
     4    10     9   ar
     5    11    12   ar
     6     9     8   ar
     7    12     7   ar
     8     8     7   ar
     9     7     6    1
    10    19    18   ar
    11    19    20   ar
    12     6    36    1
    13    18    17   ar
    14    20    15   ar
    15    36     2    1
    16    36     1   am
    17    39     3    1
    18     2     3    1
    19     2    14    1
    20    17    16   ar
    21     3     4    1
    22    15    16   ar
    23    15    14    1
    24    38     1    2
    25     1    37   am
    26    21    22    1
    27    21     5    1
    28    27    22   ar
    29    27    26   ar
    30     4     5    1
    31     4    40    1
    32    22    23   ar
    33    26    25   ar
    34     5    37    1
    35    37    28    1
    36    23    24   ar
    37    25    24   ar
    38    28    29    1
    39    29    34   ar
    40    29    30   ar
    41    34    33   ar
    42    30    31   ar
    43    33    32   ar
    44    31    32   ar
    45    32    35    1
    46    35    42    1
