@<TRIPOS>MOLECULE
1qbu_846_B_1.pdb
 43 48 0 0 0
SMALL
GASTEIGER

@<TRIPOS>ATOM
      1  C1        -8.4310   14.9430   27.8830 C.2   300  846300      0.3075
      2  C2        -9.1410   14.2310   30.1170 C.3   300  846300      0.1217
      3  C3       -10.5030   15.9410   28.9030 C.3   300  846300      0.1144
      4  C4       -10.3490   17.4280   28.6090 C.3   300  846300      0.2021
      5  C5       -10.0200   17.6840   27.1590 C.3   300  846300      0.2021
      6  C6        -8.6250   17.2010   26.8480 C.3   300  846300      0.1141
      7  C7        -7.9940   15.1790   25.4800 C.3   300  846300      0.0949
      8  C20       -9.1650   14.8710   31.5030 C.ar  300  846300     -0.0021
      9  C21      -10.0010   14.3590   32.5370 C.ar  300  846300      0.0020
     10  C22       -9.9670   14.9410   33.8310 C.ar  300  846300      0.0552
     11  C23       -9.1170   16.0360   34.0690 C.ar  300  846300      0.0046
     12  C24       -8.2910   16.5500   33.0550 C.ar  300  846300     -0.0001
     13  C25       -8.3180   15.9630   31.7790 C.ar  300  846300     -0.0026
     14  C26      -10.7490   14.4020   35.0090 C.2   300  846300      0.2707
     15  C27      -11.5060   12.2730   36.1660 C.ar  300  846300      0.1861
     16  C28      -12.0960   10.4150   37.3810 C.ar  300  846300      0.1079
     17  C29      -12.6050   11.3770   38.2760 C.ar  300  846300      0.0588
     18  C31      -11.6160   15.2050   28.1360 C.3   300  846300      0.0489
     19  C32      -12.2960   14.1520   28.9750 C.ar  300  846300     -0.0204
     20  C33      -12.1790   12.7890   28.6390 C.ar  300  846300     -0.0042
     21  C34      -12.8140   11.8170   29.4460 C.ar  300  846300     -0.0003
     22  C35      -13.5600   12.2170   30.5750 C.ar  300  846300     -0.0000
     23  C36      -13.6810   13.5810   30.9060 C.ar  300  846300     -0.0003
     24  C37      -13.0500   14.5510   30.1050 C.ar  300  846300     -0.0042
     25  C61       -7.4930   17.8340   27.6890 C.3   300  846300      0.0489
     26  C62       -6.1330   17.7080   27.0430 C.ar  300  846300     -0.0204
     27  C63       -5.8060   18.5480   25.9500 C.ar  300  846300     -0.0042
     28  C64       -4.5720   18.4030   25.2950 C.ar  300  846300     -0.0003
     29  C65       -3.6600   17.4230   25.7340 C.ar  300  846300     -0.0000
     30  C66       -3.9840   16.5900   26.8310 C.ar  300  846300     -0.0003
     31  C67       -5.2240   16.7320   27.4940 C.ar  300  846300     -0.0042
     32  C70       -8.7080   15.8910   24.3120 C.3   300  846300      0.0199
     33  C71       -8.4800   15.2400   22.9400 C.3   300  846300      0.0018
     34  C72       -9.8120   15.0370   23.6850 C.3   300  846300      0.0018
     35  N2        -9.2970   15.0920   28.9270 N.am  300  846300     -0.2586
     36  N7        -8.4300   15.7430   26.7810 N.am  300  846300     -0.2627
     37  N26      -10.9260   13.0660   35.0450 N.am  300  846300     -0.1505
     38  N27      -11.5000   10.9190   36.2370 N.ar  300  846300     -0.2209
     39  O1        -7.6190   14.0300   27.9240 O.2   300  846300     -0.2523
     40  O4       -11.5760   18.0250   28.9640 O.3   300  846300     -0.2186
     41  O5       -10.0070   19.0630   26.8620 O.3   300  846300     -0.2186
     42  O26      -11.1540   15.1220   35.9060 O.2   300  846300     -0.2679
     43  S29      -12.2660   12.8630   37.5590 S.2   300  846300     -0.0491
@<TRIPOS>BOND
     1    33    34    1
     2    33    32    1
     3    34    32    1
     4    32     7    1
     5    28    29   ar
     6    28    27   ar
     7     7    36    1
     8    29    30   ar
     9    27    26   ar
    10    36     6    1
    11    36     1   am
    12    30    31   ar
    13     6     5    1
    14     6    25    1
    15    41     5    1
    16    26    31   ar
    17    26    25    1
    18     5     4    1
    19     1    39    2
    20     1    35   am
    21    18     3    1
    22    18    19    1
    23     4     3    1
    24     4    40    1
    25    20    19   ar
    26    20    21   ar
    27     3    35    1
    28    35     2    1
    29    19    24   ar
    30    21    22   ar
    31    24    23   ar
    32     2     8    1
    33    22    23   ar
    34     8    13   ar
    35     8     9   ar
    36    13    12   ar
    37     9    10   ar
    38    12    11   ar
    39    10    11   ar
    40    10    14    1
    41    14    37   am
    42    14    42    2
    43    37    15    1
    44    15    38   ar
    45    15    43   ar
    46    38    16   ar
    47    16    17   ar
    48    43    17   ar
