@<TRIPOS>MOLECULE
1qbv_PPX_H_1.pdb
 28 26 0 0 0
SMALL
GASTEIGER

@<TRIPOS>ATOM
      1  N1        16.5750  -16.9570   23.5180 N.3   907  PPX907     -0.1231
      2  C2        17.8510  -16.1860   23.6670 C.3   907  PPX907      0.1679
      3  C10       17.6040  -14.8370   22.9630 C.2   907  PPX907      0.2434
      4  O11       16.5700  -14.2150   23.1900 O.2   907  PPX907     -0.2733
      5  C3        18.1370  -15.9710   25.1610 C.3   907  PPX907      0.0304
      6  C4        22.2570  -14.8100   25.4970 C.3   907  PPX907      0.0000
      7  C5        19.9340  -14.3910   25.9840 C.3   907  PPX907      0.0307
      8  C6        20.5860  -16.4500   24.9930 C.3   907  PPX907      0.0000
      9  C7        21.2600  -13.9890   26.0220 C.2   907  PPX907     -0.0258
     10  C8        21.9240  -16.0560   25.0270 C.3   907  PPX907      0.0000
     11  C9        22.2510  -14.8020   25.5410 C.2   907  PPX907     -0.0049
     12  N12       18.5200  -14.4270   22.0640 N.am  907  PPX907     -0.2718
     13  C14       18.3790  -13.1430   21.3490 C.3   907  PPX907      0.1535
     14  C17       17.0600  -13.0640   20.5960 C.2   907  PPX907      0.2595
     15  O18       16.7200  -13.9660   19.8340 O.2   907  PPX907     -0.2716
     16  C15       19.5820  -13.1550   20.3720 C.3   907  PPX907      0.0310
     17  C16       20.5100  -14.2340   20.9120 C.3   907  PPX907      0.0237
     18  C13       19.5980  -15.2610   21.4760 C.3   907  PPX907      0.0939
     19  N19       16.3020  -11.9960   20.8110 N.am  907  PPX907     -0.2021
     20  C20       14.9960  -11.7850   20.1770 C.3   907  PPX907      0.1385
     21  C30       14.0530  -11.0400   21.0760 C.3   907  PPX907      0.1356
     22  N27       13.1720  -11.9830   21.6650 N.pl3 907  PPX907     -0.2356
     23  C21       12.3720  -11.6560   22.6740 C.ar  907  PPX907      0.0685
     24  C22       11.4520  -12.6130   23.0630 C.ar  907  PPX907      0.0368
     25  C23       10.6030  -12.3620   24.1440 C.ar  907  PPX907      0.1002
     26  N24       10.6820  -11.2130   24.8140 N.ar  907  PPX907     -0.2422
     27  C25       11.5670  -10.2590   24.4560 C.ar  907  PPX907      0.1002
     28  C26       12.4380  -10.4570   23.3840 C.ar  907  PPX907      0.0368
@<TRIPOS>BOND
     1    15    14    2
     2    20    19    1
     3    20    21    1
     4    16    17    1
     5    16    13    1
     6    14    19   am
     7    14    13    1
     8    17    18    1
     9    21    22    1
    10    13    12    1
    11    18    12    1
    12    22    23    1
    13    12     3   am
    14    23    24   ar
    15    23    28   ar
    16     3     4    2
    17     3     2    1
    18    24    25   ar
    19    28    27   ar
    20     1     2    1
    21     2     5    1
    22    25    26   ar
    23    27    26   ar
    24    10     6    1
    25    11     9    2
    26     7     9    1
