@<TRIPOS>MOLECULE
1qc6_III_D_1.pdb
 39 43 0 0 0
SMALL
GASTEIGER

@<TRIPOS>ATOM
      1  N         35.2620   14.0210   -2.2720 N.3   2203  PHE2203    -0.1228
      2  CA        36.0650   13.9330   -1.0180 C.3   2203  PHE2203     0.1721
      3  C         37.3750   14.6860   -1.1610 C.2   2203  PHE2203     0.2437
      4  O         38.0590   14.5790   -2.1820 O.2   2203  PHE2203    -0.2733
      5  CB        36.3660   12.4730   -0.6710 C.3   2203  PHE2203     0.0547
      6  CG        35.3310   11.8350    0.1990 C.ar  2203  PHE2203    -0.0202
      7  CD1       34.7770   10.6080   -0.1490 C.ar  2203  PHE2203    -0.0042
      8  CD2       34.8890   12.4720    1.3560 C.ar  2203  PHE2203    -0.0042
      9  CE1       33.7940   10.0240    0.6370 C.ar  2203  PHE2203    -0.0003
     10  CE2       33.9070   11.8950    2.1520 C.ar  2203  PHE2203    -0.0003
     11  CZ        33.3560   10.6650    1.7890 C.ar  2203  PHE2203    -0.0000
     12  N         37.7430   15.4620   -0.1360 N.am  2204  PRO2204    -0.2718
     13  CA        38.9900   16.2270   -0.1730 C.3   2204  PRO2204     0.1520
     14  C         40.1490   15.3750    0.3450 C.2   2204  PRO2204     0.2440
     15  O         39.9340   14.2850    0.8850 O.2   2204  PRO2204    -0.2731
     16  CB        38.7040   17.4260    0.7350 C.3   2204  PRO2204     0.0310
     17  CG        37.4840   17.0390    1.5470 C.3   2204  PRO2204     0.0237
     18  CD        37.0180   15.6750    1.1240 C.3   2204  PRO2204     0.0939
     19  N         41.3950   15.8460    0.1650 N.am  2205  PRO2205    -0.2717
     20  CA        42.5400   15.0660    0.6530 C.3   2205  PRO2205     0.1521
     21  C         42.6310   15.2050    2.1810 C.2   2205  PRO2205     0.2440
     22  O         42.3260   16.2700    2.7220 O.2   2205  PRO2205    -0.2731
     23  CB        43.7430   15.6910   -0.0700 C.3   2205  PRO2205     0.0310
     24  CG        43.1570   16.7090   -1.0450 C.3   2205  PRO2205     0.0237
     25  CD        41.8220   17.0860   -0.5010 C.3   2205  PRO2205     0.0939
     26  N         43.0530   14.1420    2.8930 N.am  2206  PRO2206    -0.2717
     27  CA        43.1430   14.2460    4.3540 C.3   2206  PRO2206     0.1521
     28  C         44.0290   15.4190    4.7300 C.2   2206  PRO2206     0.2440
     29  O         44.9160   15.8000    3.9670 O.2   2206  PRO2206    -0.2731
     30  CB        43.7470   12.9100    4.7840 C.3   2206  PRO2206     0.0310
     31  CG        44.3400   12.3380    3.5550 C.3   2206  PRO2206     0.0237
     32  CD        43.5050   12.8270    2.4140 C.3   2206  PRO2206     0.0939
     33  N         43.8050   16.0080    5.9130 N.am  2207  PRO2207    -0.2727
     34  CA        44.6180   17.1470    6.3390 C.3   2207  PRO2207     0.1402
     35  C         46.0910   16.7870    6.2800 C.2   2207  PRO2207     0.2269
     36  O         46.7750   17.2840    5.3610 O.2   2207  PRO2207    -0.2865
     37  CB        44.1410   17.4240    7.7660 C.3   2207  PRO2207     0.0296
     38  CG        43.3950   16.2010    8.1780 C.3   2207  PRO2207     0.0237
     39  CD        42.8180   15.6320    6.9290 C.3   2207  PRO2207     0.0939
@<TRIPOS>BOND
     1     1     2    1
     2     4     3    2
     3     3     2    1
     4     3    12   am
     5    24    25    1
     6    24    23    1
     7     2     5    1
     8     5     6    1
     9    25    19    1
    10    13    12    1
    11    13    14    1
    12    13    16    1
    13     7     6   ar
    14     7     9   ar
    15    12    18    1
    16    23    20    1
    17    19    14   am
    18    19    20    1
    19     6     8   ar
    20    14    15    2
    21     9    11   ar
    22    20    21    1
    23    16    17    1
    24    18    17    1
    25     8    10   ar
    26    11    10   ar
    27    21    22    2
    28    21    26   am
    29    32    26    1
    30    32    31    1
    31    26    27    1
    32    31    30    1
    33    29    28    2
    34    27    28    1
    35    27    30    1
    36    28    33   am
    37    36    35    2
    38    33    34    1
    39    33    39    1
    40    35    34    1
    41    34    37    1
    42    39    38    1
    43    37    38    1
