@<TRIPOS>MOLECULE
1qca_FUA_A_1.pdb
 37 40 0 0 0
SMALL
GASTEIGER

@<TRIPOS>ATOM
      1  C1        -0.2410   16.4710   15.9770 C.3   221  FUA221      0.0027
      2  C2        -1.2180   16.0020   17.0800 C.3   221  FUA221      0.0329
      3  C3        -1.7290   14.6010   16.9690 C.3   221  FUA221      0.1519
      4  C4        -0.6090   13.5550   16.4850 C.3   221  FUA221      0.0304
      5  C5         0.1980   14.1680   15.3940 C.3   221  FUA221      0.0025
      6  C6         0.9790   13.1370   14.6140 C.3   221  FUA221      0.0001
      7  C7         1.8780   13.6690   13.4630 C.3   221  FUA221      0.0001
      8  C8         1.6100   15.1440   13.1120 C.3   221  FUA221      0.0028
      9  C9         1.7570   15.9960   14.4160 C.3   221  FUA221      0.0305
     10  C10        0.8500   15.4800   15.6280 C.3   221  FUA221      0.0025
     11  C11        1.5380   17.5540   14.0620 C.3   221  FUA221      0.1523
     12  C12        2.6000   18.0240   13.0630 C.3   221  FUA221      0.0370
     13  C13        2.5610   17.1960   11.7450 C.3   221  FUA221      0.0242
     14  C14        2.7330   15.6930   12.0730 C.3   221  FUA221      0.0075
     15  C15        2.7120   15.1100   10.7000 C.3   221  FUA221      0.0483
     16  C16        3.4150   16.1260    9.7730 C.3   221  FUA221      0.1871
     17  C17        3.4310   17.4300   10.5910 C.2   221  FUA221     -0.0028
     18  C18       -1.4160   12.3510   16.1600 C.3   221  FUA221      0.0026
     19  C19        1.7630   15.2600   16.8810 C.3   221  FUA221      0.0001
     20  C20        0.2620   15.2980   12.5590 C.3   221  FUA221      0.0001
     21  C21        4.2240   15.5230   12.4730 C.3   221  FUA221      0.0004
     22  C22        4.2290   18.3590   10.0920 C.2   221  FUA221      0.0533
     23  C23        4.4120   19.7030   10.7610 C.3   221  FUA221      0.0372
     24  C24        5.5740   20.6240   10.3970 C.3   221  FUA221      0.0303
     25  C25        6.0130   21.7040   11.3200 C.2   221  FUA221     -0.0342
     26  C26        5.3030   22.5780   11.8380 C.2   221  FUA221     -0.0478
     27  C27        5.4330   23.7750   12.8540 C.3   221  FUA221      0.0260
     28  C28        3.7270   22.6820   11.5350 C.3   221  FUA221      0.0260
     29  C29        5.0180   18.1410    8.8800 C.2   221  FUA221      0.3834
     30  C31        5.3920   14.9770    8.9030 C.2   221  FUA221      0.3177
     31  C32        6.7890   14.8630    9.1190 C.3   221  FUA221      0.1212
     32  O1         0.2370   17.6070   13.4510 O.3   221  FUA221     -0.2231
     33  O2         4.8790   15.8570    9.7960 O.3   221  FUA221     -0.4480
     34  O3         4.7480   14.4230    8.1390 O.2   221  FUA221     -0.2501
     35  O4         6.2070   18.5770    8.8280 O.co2 221  FUA221     -0.2409
     36  O5         4.6050   17.6150    7.7740 O.co2 221  FUA221     -0.2409
     37  O6        -2.8510   14.6200   16.0410 O.3   221  FUA221     -0.2232
@<TRIPOS>BOND
     1    36    29   ar
     2    34    30    2
     3    35    29   ar
     4    29    22    1
     5    30    31    1
     6    30    33    1
     7    16    33    1
     8    16    17    1
     9    16    15    1
    10    22    17    2
    11    22    23    1
    12    24    23    1
    13    24    25    1
    14    17    13    1
    15    15    14    1
    16    25    26    2
    17    28    26    1
    18    13    14    1
    19    13    12    1
    20    26    27    1
    21    14    21    1
    22    14     8    1
    23    20     8    1
    24    12    11    1
    25     8     7    1
    26     8     9    1
    27    32    11    1
    28     7     6    1
    29    11     9    1
    30     9    10    1
    31     6     5    1
    32     5    10    1
    33     5     4    1
    34    10     1    1
    35    10    19    1
    36     1     2    1
    37    37     3    1
    38    18     4    1
    39     4     3    1
    40     3     2    1
