@<TRIPOS>MOLECULE
1qcc_CIT_A_1.pdb
 13 12 0 0 0
SMALL
GASTEIGER

@<TRIPOS>ATOM
      1  C1        32.1270   26.7680   16.0850 C.2   325  CIT325      0.3680
      2  O1        33.1610   26.4580   15.4320 O.co2 325  CIT325     -0.2455
      3  O2        31.2940   27.5940   15.5960 O.co2 325  CIT325     -0.2455
      4  C2        31.6950   25.9130   17.2580 C.3   325  CIT325      0.1560
      5  C3        30.7600   24.7070   16.9260 C.3   325  CIT325      0.2402
      6  O7        31.3640   23.7030   16.1000 O.3   325  CIT325     -0.2129
      7  C4        29.4630   25.2780   16.2580 C.3   325  CIT325      0.1560
      8  C5        28.6130   24.1360   15.6610 C.2   325  CIT325      0.3680
      9  O3        28.7850   22.9540   16.0720 O.co2 325  CIT325     -0.2455
     10  O4        27.4920   24.4120   15.1210 O.co2 325  CIT325     -0.2455
     11  C6        30.3240   24.0410   18.2200 C.2   325  CIT325      0.3927
     12  O5        30.4470   22.8070   18.3520 O.co2 325  CIT325     -0.2429
     13  O6        29.4850   24.6420   18.9160 O.co2 325  CIT325     -0.2429
@<TRIPOS>BOND
     1    10     8   ar
     2     2     1   ar
     3     3     1   ar
     4     8     9   ar
     5     8     7    1
     6     1     4    1
     7     6     5    1
     8     7     5    1
     9     5     4    1
    10     5    11    1
    11    11    12   ar
    12    11    13   ar
