@<TRIPOS>MOLECULE
1qcf_PP1_A_1.pdb
 21 23 0 0 0
SMALL
GASTEIGER

@<TRIPOS>ATOM
      1  N1        26.4280   31.4610   39.6680 N.pl3 532  PP1532     -0.0877
      2  C2        26.4660   28.9640   36.8630 C.3   532  PP1532      0.5248
      3  N3        26.8600   30.0840   37.5840 N.2   532  PP1532     -0.0088
      4  C4        26.2270   30.4170   38.7760 C.2   532  PP1532      0.3404
      5  C5        25.1860   29.6320   39.2570 C.3   532  PP1532      0.2639
      6  C6        24.7890   28.5060   38.5210 C.2   532  PP1532      0.4081
      7  N7        25.4280   28.1830   37.3360 N.2   532  PP1532     -0.0027
      8  N8        25.5200   31.3110   40.6990 N.2   532  PP1532     -0.0915
      9  C9        24.7540   30.1870   40.4540 C.2   532  PP1532      0.1226
     10  N10       23.7760   27.7240   38.9450 N.pl3 532  PP1532      0.2118
     11  C11       23.7500   29.8980   41.4850 C.ar  532  PP1532      0.0182
     12  C12       23.7840   28.6450   42.1270 C.ar  532  PP1532      0.0010
     13  C13       22.8520   28.3310   43.1240 C.ar  532  PP1532     -0.0042
     14  C14       21.8750   29.2650   43.4940 C.ar  532  PP1532     -0.0218
     15  C15       21.8270   30.5270   42.8570 C.ar  532  PP1532     -0.0042
     16  C16       22.7690   30.8460   41.8470 C.ar  532  PP1532      0.0010
     17  C24       20.8820   28.9100   44.5720 C.3   532  PP1532      0.0310
     18  C28       27.3650   32.5990   39.4610 C.3   532  PP1532      0.1509
     19  C29       27.1890   33.7010   40.5090 C.3   532  PP1532      0.0491
     20  C33       27.1830   33.2930   38.1110 C.3   532  PP1532      0.0491
     21  C37       28.8370   32.1700   39.5350 C.3   532  PP1532      0.0491
@<TRIPOS>BOND
     1     2     7    1
     2     2     3    1
     3     7     6    2
     4     3     4    2
     5    20    18    1
     6     6    10    1
     7     6     5    1
     8     4     5    1
     9     4     1    1
    10     5     9    1
    11    18    21    1
    12    18     1    1
    13    18    19    1
    14     1     8    1
    15     9     8    2
    16     9    11    1
    17    11    16   ar
    18    11    12   ar
    19    16    15   ar
    20    12    13   ar
    21    15    14   ar
    22    13    14   ar
    23    14    17    1
