@<TRIPOS>MOLECULE
1qci_ADE_A_1.pdb
 12 13 0 0 0
SMALL
GASTEIGER

@<TRIPOS>ATOM
      1  N9        -4.2710   10.8520   30.5970 N.2   902  ADE902     -0.1914
      2  C8        -5.1770   11.6180   31.2900 C.3   902  ADE902      0.2618
      3  N7        -5.2670   12.8520   30.8560 N.2   902  ADE902     -0.2269
      4  C5        -4.3550   12.9070   29.8080 C.2   902  ADE902      0.2215
      5  C6        -3.9610   13.9510   28.9340 C.2   902  ADE902      0.3424
      6  N6        -4.4490   15.1880   28.9900 N.pl3 902  ADE902     -0.2446
      7  N1        -3.0330   13.6690   27.9990 N.2   902  ADE902     -0.0339
      8  C2        -2.5290   12.4250   27.9490 C.3   902  ADE902      0.4005
      9  N3        -2.8100   11.3690   28.7140 N.2   902  ADE902     -0.1640
     10  C4        -3.7400   11.6790   29.6340 C.1   902  ADE902      0.0576
     11 HN61       -4.1110   15.8980   28.3560 H     902  ADE902      0.2885
     12 HN62       -5.1580   15.4120   29.6700 H     902  ADE902      0.2885
@<TRIPOS>BOND
     1     8     7    1
     2     8     9    1
     3     7     5    2
     4    11     6    1
     5     9    10    2
     6     5     6    1
     7     5     4    1
     8     6    12    1
     9    10     4    1
    10    10     1    2
    11     4     3    2
    12     1     2    1
    13     3     2    1
