@<TRIPOS>MOLECULE
1qcj_APT_A_1.pdb
 34 36 0 0 0
SMALL
GASTEIGER

@<TRIPOS>ATOM
      1  C8        -4.8500   11.8990   33.6490 C.3   901  APT901      0.0652
      2  N9        -3.7740   10.7460   30.2370 N.2   901  APT901     -0.3893
      3  C9        -3.5080   11.8260   29.5520 C.2   901  APT901      0.2280
      4  N3        -3.0660   11.8250   28.3090 N.pl3 901  APT901     -0.2484
      5  C10       -2.8090   12.9680   27.7160 C.cat 901  APT901      0.2495
      6  N2        -2.3630   12.8750   26.5270 N.pl3 901  APT901     -0.3201
      7  N1        -2.9460   14.1740   28.1920 N.2   901  APT901     -0.3000
      8  C11       -3.3920   14.3220   29.4240 C.1   901  APT901      0.2416
      9  O6        -3.5020   15.6280   29.8240 O.2   901  APT901     -0.2064
     10  C12       -3.7110   13.1500   30.2450 C.2   901  APT901      0.2684
     11  N7        -4.1470   13.1740   31.5350 N.2   901  APT901     -0.3869
     12  C13       -4.3840   11.9850   32.1720 C.2   901  APT901      0.1397
     13  C14       -4.1870   10.7700   31.4790 C.2   901  APT901      0.1150
     14  N4        -6.1400   11.2790   33.8960 N.pl3 901  APT901     -0.3371
     15  C1        -7.9580    9.7360   33.8640 C.ar  901  APT901     -0.0401
     16  C2        -8.5530    8.5070   33.6410 C.ar  901  APT901     -0.0459
     17  C3        -7.8320    7.4140   33.1980 C.ar  901  APT901      0.0633
     18  C4        -6.4500    7.5600   32.9810 C.ar  901  APT901     -0.0459
     19  C5        -5.8410    8.8170   33.2050 C.ar  901  APT901     -0.0401
     20  C6        -6.6230    9.9200   33.6520 C.ar  901  APT901      0.0275
     21  C7        -8.5660    6.1440   32.9720 C.2   901  APT901      0.3865
     22  O2        -7.9660    5.1230   32.5690 O.co2 901  APT901     -0.2406
     23  O3        -9.8080    6.1220   33.1940 O.co2 901  APT901     -0.2406
     24  H82       -4.0740   11.3640   34.2340 H     901  APT901      0.0538
     25  H81       -4.9180   12.9490   34.0210 H     901  APT901      0.0538
     26  H3        -3.0250   10.9490   27.7800 H     901  APT901      0.1583
     27  H21       -2.2710   11.9870   26.1900 H     901  APT901      0.1459
     28  H22       -2.1610   13.6980   26.0730 H     901  APT901      0.1459
     29  H9        -4.3670    9.8350   31.9710 H     901  APT901      0.1000
     30  HN4       -6.8840   11.8600   34.2560 H     901  APT901      0.1465
     31  H1        -8.5760   10.5520   34.2010 H     901  APT901      0.0636
     32  H2        -9.6080    8.3890   33.8080 H     901  APT901      0.0626
     33  H4        -5.8640    6.7200   32.6380 H     901  APT901      0.0626
     34  H5        -4.7830    8.9170   33.0250 H     901  APT901      0.0636
@<TRIPOS>BOND
     1    28     6    1
     2    27     6    1
     3     6     5    1
     4     5     7    2
     5     5     4    1
     6    26     4    1
     7     7     8    2
     8     4     3    1
     9     8     9    2
    10     8    10    1
    11     3     2    2
    12     3    10    1
    13     2    13    2
    14    10    11    2
    15    13    29    1
    16    13    12    1
    17    11    12    2
    18    12     1    1
    19    22    21   ar
    20    33    18    1
    21    21    23   ar
    22    21    17    1
    23    18    17   ar
    24    18    19   ar
    25    34    19    1
    26    17    16   ar
    27    19    20   ar
    28    16    32    1
    29    16    15   ar
    30     1    14    1
    31     1    25    1
    32     1    24    1
    33    20    15   ar
    34    20    14    1
    35    15    31    1
    36    14    30    1
