@<TRIPOS>MOLECULE
1qcp_RWJ_A_1.pdb
 27 29 0 0 0
SMALL
GASTEIGER

@<TRIPOS>ATOM
      1  C51       42.5780   24.5400   50.1400 C.2   300  RWJ300      0.0372
      2  C52       42.4600   25.9900   49.9070 C.2   300  RWJ300      0.0003
      3  C53       40.9830   26.2770   49.7880 C.2   300  RWJ300     -0.0044
      4  C54       40.2300   24.9390   49.9820 C.2   300  RWJ300     -0.0213
      5  C55       41.2720   23.8560   50.1580 C.3   300  RWJ300      0.0570
      6  CP        43.7960   23.8010   49.6310 C.2   300  RWJ300      0.2611
      7  OP        44.9000   24.3400   49.6020 O.2   300  RWJ300     -0.2687
      8  N         43.6020   22.5540   49.2140 N.am  300  RWJ300     -0.2006
      9  CA        44.6940   21.6910   48.7430 C.3   300  RWJ300      0.1334
     10  CB        44.6670   20.4120   49.5810 C.3   300  RWJ300      0.0285
     11  CG        45.5690   20.3120   50.7810 C.3   300  RWJ300      0.0488
     12  CD        45.3570   18.9440   51.4400 C.3   300  RWJ300      0.2205
     13  NE        45.7970   18.9510   52.8320 N.pl3 300  RWJ300     -0.0865
     14  CZ        45.8730   17.8830   53.6230 C.cat 300  RWJ300      0.5346
     15  NH1       45.5360   16.6800   53.1820 N.pl3 300  RWJ300      0.1354
     16  NH2       46.3080   18.0280   54.8680 N.pl3 300  RWJ300      0.1354
     17  O         45.4720   20.4110   46.8570 O.3   300  RWJ300     -0.2130
     18  N5        43.3920   23.1090   45.7860 N.2   300  RWJ300     -0.4006
     19  C5        44.5070   22.5840   46.3940 C.2   300  RWJ300      0.1700
     20  S5        45.8900   23.5580   46.1550 S.3   300  RWJ300     -0.0550
     21  C61       43.6080   24.2810   45.1280 C.2   300  RWJ300      0.1196
     22  C62       44.9700   24.7220   45.2100 C.2   300  RWJ300      0.0573
     23  C63       45.3600   25.8960   44.5780 C.2   300  RWJ300      0.0085
     24  C64       44.4360   26.6540   43.8570 C.2   300  RWJ300     -0.0036
     25  C65       43.1030   26.2430   43.7750 C.2   300  RWJ300     -0.0186
     26  C66       42.6950   25.0580   44.4110 C.3   300  RWJ300      0.0855
     27  C         44.4710   21.3240   47.2760 C.3   300  RWJ300      0.2294
@<TRIPOS>BOND
     1    25    24    2
     2    25    26    1
     3    24    23    1
     4    26    21    1
     5    23    22    2
     6    21    22    1
     7    21    18    2
     8    22    20    1
     9    18    19    2
    10    20    19    1
    11    19    27    1
    12    17    27    1
    13    27     9    1
    14     9     8    1
    15     9    10    1
    16     8     6   am
    17    10    11    1
    18     7     6    2
    19     6     1    1
    20     3     2    1
    21     3     4    2
    22     2     1    2
    23     4     5    1
    24     1     5    1
    25    11    12    1
    26    12    13    1
    27    13    14    2
    28    15    14    1
    29    14    16    1
