@<TRIPOS>MOLECULE
1qcr_HEM_C_1.pdb
 43 50 0 0 0
SMALL
GASTEIGER

@<TRIPOS>ATOM
      1 FE         67.2080   63.7040  146.7350 Fe    609  HEM609      0.0000
      2  CHA       65.7170   63.8450  143.7570 C.2   609  HEM609      0.0000
      3  CHB       66.1650   66.9210  147.5630 C.2   609  HEM609      0.0000
      4  CHC       68.1870   63.2010  150.0020 C.2   609  HEM609      0.0000
      5  CHD       67.9780   60.3000  146.0760 C.2   609  HEM609      0.0000
      6  NA        66.3510   65.0390  145.7990 N.2   609  HEM609      0.0000
      7  C1A       65.7550   64.9450  144.5890 C.2   609  HEM609      0.0000
      8  C2A       64.9930   66.0770  144.2310 C.2   609  HEM609      0.0000
      9  C3A       65.0800   66.9410  145.2150 C.2   609  HEM609      0.0000
     10  C4A       65.9820   66.3290  146.2220 C.2   609  HEM609      0.0000
     11  CMA       64.2480   68.2340  145.2800 C.3   609  HEM609      0.0000
     12  CAA       64.2460   66.2900  142.9380 C.3   609  HEM609      0.0000
     13  CBA       63.2110   65.2360  142.5430 C.3   609  HEM609      0.0000
     14  CGA       62.1080   65.1470  143.5700 C.2   609  HEM609      0.0000
     15  O1A       62.3880   64.7870  144.7390 O.co2 609  HEM609      0.0000
     16  O2A       60.9540   65.4580  143.2130 O.co2 609  HEM609      0.0000
     17  NB        67.2330   64.8240  148.4040 N.ar  609  HEM609      0.0000
     18  C1B       66.7500   66.1800  148.6310 C.ar  609  HEM609      0.0000
     19  C2B       66.9560   66.5570  150.0490 C.ar  609  HEM609      0.0000
     20  C3B       67.7250   65.5560  150.5690 C.ar  609  HEM609      0.0000
     21  C4B       67.7710   64.4860  149.6290 C.ar  609  HEM609      0.0000
     22  CMB       66.2740   67.5840  150.9540 C.3   609  HEM609      0.0000
     23  CAB       68.5120   65.4930  151.7210 C.3   609  HEM609      0.0000
     24  CBB       69.3030   66.6210  152.3610 C.3   609  HEM609      0.0000
     25  NC        67.8250   62.0970  147.7510 N.2   609  HEM609      0.0000
     26  C1C       68.1400   62.0270  149.1630 C.2   609  HEM609      0.0000
     27  C2C       68.4700   60.5800  149.6590 C.2   609  HEM609      0.0000
     28  C3C       68.4400   59.8090  148.5880 C.2   609  HEM609      0.0000
     29  C4C       68.0880   60.7220  147.3700 C.2   609  HEM609      0.0000
     30  CMC       68.8720   60.0070  151.0510 C.3   609  HEM609      0.0000
     31  CAC       68.5380   58.4370  148.7560 C.3   609  HEM609      0.0000
     32  CBC       69.8280   57.6570  148.8900 C.3   609  HEM609      0.0000
     33  ND        66.8730   62.4170  145.2990 N.ar  609  HEM609      0.0000
     34  C1D       67.4370   61.1080  145.0910 C.ar  609  HEM609      0.0000
     35  C2D       67.3480   60.6340  143.6830 C.ar  609  HEM609      0.0000
     36  C3D       66.5530   61.5110  143.0290 C.ar  609  HEM609      0.0000
     37  C4D       66.2480   62.6110  144.0410 C.ar  609  HEM609      0.0000
     38  CMD       68.2150   59.4760  143.0870 C.3   609  HEM609      0.0000
     39  CAD       66.0240   61.2410  141.6250 C.3   609  HEM609      0.0000
     40  CBD       64.6500   61.8470  141.6630 C.3   609  HEM609      0.0000
     41  CGD       63.7370   61.5000  140.4970 C.2   609  HEM609      0.0000
     42  O1D       64.0180   61.9540  139.3730 O.co2 609  HEM609      0.0000
     43  O2D       62.7220   60.7880  140.7170 O.co2 609  HEM609      0.0000
@<TRIPOS>BOND
     1    42    41   ar
     2    41    43   ar
     3    41    40    1
     4    39    40    1
     5    39    36    1
     6    13    12    1
     7    13    14    1
     8    12     8    1
     9    36    35   ar
    10    36    37   ar
    11    38    35    1
    12    16    14   ar
    13    14    15   ar
    14    35    34   ar
    15     2    37    2
    16     2     7    1
    17    37    33   ar
    18     8     7    1
    19     8     9    2
    20     7     6    2
    21    34    33   ar
    22    34     5    2
    23     9    11    1
    24     9    10    1
    25    33     1    1
    26     6    10    1
    27     6     1    1
    28     5    29    1
    29    10     3    2
    30     1    25    1
    31     1    17    1
    32    29    25    2
    33    29    28    1
    34     3    18    1
    35    25    26    1
    36    17    18   ar
    37    17    21   ar
    38    28    31    1
    39    28    27    2
    40    18    19   ar
    41    31    32    1
    42    26    27    1
    43    26     4    2
    44    21     4    1
    45    21    20   ar
    46    27    30    1
    47    19    20   ar
    48    19    22    1
    49    20    23    1
    50    23    24    1
