@<TRIPOS>MOLECULE
1qcw_FNS_A_1.pdb
 35 37 0 0 0
SMALL
GASTEIGER

@<TRIPOS>ATOM
      1  N1        69.0080   56.7380    1.1990 N.2   570  FNS570     -0.2939
      2  C2        70.2900   56.4850    1.6140 C.1   570  FNS570      0.3663
      3  O2        71.1410   57.3760    1.5250 O.2   570  FNS570     -0.1745
      4  N3        70.5080   55.1430    2.0830 N.2   570  FNS570     -0.2348
      5  C4        69.5590   54.1340    2.0510 C.1   570  FNS570      0.2213
      6  O4        69.9150   52.9860    2.2460 O.2   570  FNS570     -0.2111
      7  C4A       68.2350   54.6340    1.7860 C.3   570  FNS570      0.2808
      8  N5        67.1520   53.9890    2.2650 N.pl3 570  FNS570     -0.1643
      9  S         67.0470   53.4340    4.0580 S.3   570  FNS570      0.0952
     10  O1S       65.9060   54.1780    4.8140 O.3   570  FNS570     -0.0500
     11  O2S       68.3770   53.7200    4.8190 O.3   570  FNS570     -0.0500
     12  O3S       66.7660   51.9210    4.1190 O.3   570  FNS570     -0.0500
     13  C5A       66.1120   53.8430    1.3910 C.ar  570  FNS570      0.0839
     14  C6        65.3220   52.7410    1.3530 C.ar  570  FNS570      0.0129
     15  C7        64.0500   52.8750    0.8090 C.ar  570  FNS570     -0.0244
     16  C7M       63.1390   51.6780    0.7320 C.3   570  FNS570      0.0307
     17  C8        63.6180   54.0780    0.2520 C.ar  570  FNS570     -0.0245
     18  C8M       62.2910   54.1840   -0.3910 C.3   570  FNS570      0.0307
     19  C9        64.4410   55.1590    0.2180 C.ar  570  FNS570      0.0116
     20  C9A       65.7060   55.0310    0.7630 C.ar  570  FNS570      0.0681
     21  N10       66.6530   56.0780    0.7680 N.pl3 570  FNS570     -0.2592
     22  C10       67.9540   55.8680    1.2060 C.2   570  FNS570      0.2166
     23  C1'       66.3240   57.2790    0.3440 C.3   570  FNS570      0.1333
     24  C2'       66.6250   57.4510   -1.1160 C.3   570  FNS570      0.2048
     25  O2'       68.0200   57.5960   -1.3240 O.3   570  FNS570     -0.2185
     26  C3'       65.8760   58.6420   -1.6560 C.3   570  FNS570      0.2165
     27  O3'       66.2040   59.8470   -0.9220 O.3   570  FNS570     -0.2175
     28  C4'       64.4040   58.4000   -1.5820 C.3   570  FNS570      0.2147
     29  O4'       63.9420   57.0840   -1.9180 O.3   570  FNS570     -0.2176
     30  C5'       63.8710   59.4310   -2.4680 C.3   570  FNS570      0.1892
     31  O5'       62.4890   59.4990   -2.2520 O.3   570  FNS570     -0.2674
     32  P         61.4470   58.9090   -3.2920 P.3   570  FNS570      0.5327
     33  O1P       61.4850   57.4550   -3.0210 O.3   570  FNS570     -0.1145
     34  O2P       61.9900   59.3280   -4.6180 O.2   570  FNS570     -0.2224
     35  O3P       60.2170   59.6020   -2.8740 O.3   570  FNS570     -0.1145
@<TRIPOS>BOND
     1    34    32    2
     2    32    33    1
     3    32    35    1
     4    32    31    1
     5    30    31    1
     6    30    28    1
     7    29    28    1
     8    26    28    1
     9    26    24    1
    10    26    27    1
    11    25    24    1
    12    24    23    1
    13    18    17    1
    14    19    17   ar
    15    19    20   ar
    16    17    15   ar
    17    23    21    1
    18    16    15    1
    19    20    21    1
    20    20    13   ar
    21    21    22    1
    22    15    14   ar
    23     1    22    2
    24     1     2    2
    25    22     7    1
    26    14    13   ar
    27    13     8    1
    28     3     2    2
    29     2     4    2
    30     7     5    1
    31     7     8    1
    32     5     4    2
    33     5     6    2
    34     8     9    1
    35     9    12    1
    36     9    10    1
    37     9    11    1
