@<TRIPOS>MOLECULE
1qd1_FON_A_1.pdb
 34 36 0 0 0
SMALL
GASTEIGER

@<TRIPOS>ATOM
      1  N1         6.5650   31.8650   42.0760 N.2   330  FON330     -0.2726
      2  C2         6.9910   31.0390   43.0590 C.1   330  FON330      0.2603
      3  NA2        8.4480   30.9130   43.1980 N.pl3 330  FON330     -0.0221
      4  N3         6.4260   30.3430   43.8960 N.2   330  FON330     -0.2515
      5  C4         5.0380   30.2760   43.7460 C.1   330  FON330      0.2219
      6  O4         4.2260   29.3400   44.3640 O.2   330  FON330     -0.2109
      7  C4A        4.4230   31.2170   42.9020 C.3   330  FON330      0.2781
      8  N5         3.0820   31.2410   42.6130 N.3   330  FON330     -0.2165
      9  C6         2.6260   30.7100   41.2460 C.3   330  FON330      0.1084
     10  C7         3.6650   31.0060   40.1800 C.3   330  FON330      0.1548
     11  N8         4.6630   31.8060   40.6430 N.2   330  FON330     -0.2096
     12  C8A        5.2070   31.8450   41.9080 C.1   330  FON330      0.1050
     13  C9         2.2340   29.2610   41.3360 C.3   330  FON330      0.1302
     14  N10        1.1970   28.9790   40.3260 N.pl3 330  FON330     -0.2361
     15  C11       -2.9610   30.0980   40.0960 C.ar  330  FON330      0.0551
     16  C12       -2.2330   29.4430   39.0400 C.ar  330  FON330      0.0059
     17  C13       -0.9140   28.9580   39.1910 C.ar  330  FON330      0.0162
     18  C14       -0.2180   29.3510   40.3460 C.ar  330  FON330      0.0654
     19  C15       -0.8960   29.9410   41.4740 C.ar  330  FON330      0.0162
     20  C16       -2.3050   30.2530   41.3770 C.ar  330  FON330      0.0059
     21  C         -4.3380   30.5150   39.7670 C.2   330  FON330      0.2652
     22  O         -5.0070   31.1120   40.6390 O.2   330  FON330     -0.2684
     23  N         -4.9000   30.2480   38.5250 N.am  330  FON330     -0.1918
     24  CA        -6.3490   30.0760   38.2880 C.3   330  FON330      0.1986
     25  CB        -6.6440   30.5570   36.9270 C.3   330  FON330      0.0451
     26  CG        -8.1490   30.8340   36.7330 C.3   330  FON330      0.1164
     27  CD        -8.6680   31.0450   35.2810 C.2   330  FON330      0.3649
     28  OE1       -9.9020   30.9620   35.0610 O.co2 330  FON330     -0.2457
     29  OE2       -7.8600   31.2900   34.3600 O.co2 330  FON330     -0.2457
     30  CT        -6.9500   28.6220   38.4720 C.2   330  FON330      0.3842
     31  O1        -7.8630   28.4660   39.3120 O.co2 330  FON330     -0.2437
     32  O2        -6.5470   27.6640   37.7670 O.co2 330  FON330     -0.2437
     33  CP1        2.0240   31.7250   43.5690 C.3   330  FON330      0.2606
     34  O3         2.1720   31.4140   44.9840 O.3   330  FON330     -0.2005
@<TRIPOS>BOND
     1    29    27   ar
     2    28    27   ar
     3    27    26    1
     4    26    25    1
     5    25    24    1
     6    32    30   ar
     7    24    30    1
     8    24    23    1
     9    30    31   ar
    10    23    21   am
    11    16    17   ar
    12    16    15   ar
    13    17    18   ar
    14    21    15    1
    15    21    22    2
    16    15    20   ar
    17    10    11    1
    18    10     9    1
    19    14    18    1
    20    14    13    1
    21    18    19   ar
    22    11    12    2
    23     9    13    1
    24     9     8    1
    25    20    19   ar
    26    12     1    2
    27    12     7    1
    28     1     2    2
    29     8     7    1
    30     8    33    1
    31     7     5    1
    32     2     3    1
    33     2     4    2
    34    33    34    1
    35     5     4    2
    36     5     6    2
