@<TRIPOS>MOLECULE
1qd2_ADE_A_1.pdb
 10 11 0 0 0
SMALL
GASTEIGER

@<TRIPOS>ATOM
      1  N9        14.7130   -5.2270   39.8410 N.2   280  ADE280     -0.1914
      2  C8        15.9600   -5.0110   40.4030 C.3   280  ADE280      0.2618
      3  N7        16.3230   -3.7400   40.4200 N.2   280  ADE280     -0.2267
      4  C5        15.2660   -3.1050   39.8030 C.2   280  ADE280      0.2303
      5  C6        15.1260   -1.7360   39.5650 C.2   280  ADE280      0.4393
      6  N6        16.0610   -0.8020   39.8280 N.pl3 280  ADE280      0.2185
      7  N1        13.9530   -1.3150   39.0470 N.2   280  ADE280     -0.0265
      8  C2        12.9970   -2.2150   38.7910 C.3   280  ADE280      0.4008
      9  N3        13.0960   -3.5340   38.9550 N.2   280  ADE280     -0.1640
     10  C4        14.2520   -3.9900   39.4780 C.1   280  ADE280      0.0579
@<TRIPOS>BOND
     1     8     9    1
     2     8     7    1
     3     9    10    2
     4     7     5    2
     5    10     4    1
     6    10     1    2
     7     5     4    1
     8     5     6    1
     9     4     3    2
    10     1     2    1
    11     2     3    1
