@<TRIPOS>MOLECULE
1qd6_HDS_C_1.pdb
 20 19 0 0 0
SMALL
GASTEIGER

@<TRIPOS>ATOM
      1  C1        11.0630    0.4520   28.2410 C.3   270  HDS270      0.1052
      2  C2         9.6500   -0.1000   28.3310 C.3   270  HDS270      0.0215
      3  C3         8.7750    0.4830   27.2400 C.3   270  HDS270      0.0017
      4  C4         7.4100   -0.1590   27.2340 C.3   270  HDS270      0.0001
      5  C5         6.7190    0.1840   25.9280 C.3   270  HDS270      0.0000
      6  C6         5.2090    0.2500   26.0920 C.3   270  HDS270      0.0000
      7  C7         4.6560    1.1510   25.0080 C.3   270  HDS270      0.0000
      8  C8         3.1430    1.0960   24.9210 C.3   270  HDS270      0.0000
      9  C9         2.6930    1.6580   23.5690 C.3   270  HDS270      0.0000
     10  C10        1.2550    2.1380   23.6220 C.3   270  HDS270      0.0000
     11  C11        0.5780    1.9390   22.2740 C.3   270  HDS270      0.0000
     12  C12       -0.9290    1.8730   22.4520 C.3   270  HDS270      0.0000
     13  C13       -1.5220    0.7720   21.5960 C.3   270  HDS270      0.0000
     14  C14       -2.3010   -0.2010   22.4570 C.3   270  HDS270      0.0000
     15  C15       -3.2130   -1.1080   21.6430 C.3   270  HDS270      0.0000
     16  C16       -4.2410   -1.8010   22.5410 C.3   270  HDS270      0.0000
     17  S1        12.1110   -0.2680   29.4700 S.3   270  HDS270     -0.1960
     18  O1S       11.8420   -1.6710   29.5970 O.3   270  HDS270     -0.3075
     19  O2S       13.4520    0.1550   29.2300 O.3   270  HDS270     -0.3075
     20  O3S       11.5910    0.4560   30.7800 O.3   270  HDS270     -0.3075
@<TRIPOS>BOND
     1    13    12    1
     2    13    14    1
     3    15    14    1
     4    15    16    1
     5    11    12    1
     6    11    10    1
     7     9    10    1
     8     9     8    1
     9     8     7    1
    10     7     6    1
    11     5     6    1
    12     5     4    1
    13     4     3    1
    14     3     2    1
    15     1     2    1
    16     1    17    1
    17    19    17    1
    18    17    18    1
    19    17    20    1
