@<TRIPOS>MOLECULE
1qdb_HEM_A_1.pdb
 43 50 0 0 0
SMALL
GASTEIGER

@<TRIPOS>ATOM
      1 FE         36.0770   36.6550   68.1250 Fe    515  HEM515      0.0000
      2  CHA       34.3590   34.8890   65.7150 C.2   515  HEM515      0.0000
      3  CHB       37.4970   38.5450   65.7620 C.2   515  HEM515      0.0000
      4  CHC       37.3610   38.7790   70.5720 C.2   515  HEM515      0.0000
      5  CHD       34.7980   34.7150   70.4530 C.2   515  HEM515      0.0000
      6  NA        35.9710   36.6570   66.1910 N.ar  515  HEM515      0.0000
      7  C1A       35.2540   35.8590   65.3230 C.ar  515  HEM515      0.0000
      8  C2A       35.5180   36.2040   63.9350 C.ar  515  HEM515      0.0000
      9  C3A       36.3930   37.2100   63.9680 C.ar  515  HEM515      0.0000
     10  C4A       36.6740   37.5050   65.3470 C.ar  515  HEM515      0.0000
     11  CMA       37.0740   37.8470   62.7650 C.3   515  HEM515      0.0000
     12  CAA       34.8960   35.5590   62.7130 C.3   515  HEM515      0.0000
     13  CBA       33.5420   36.2050   62.4250 C.3   515  HEM515      0.0000
     14  CGA       33.6620   37.6650   62.0240 C.2   515  HEM515      0.0000
     15  O1A       34.0710   37.9300   60.8810 O.co2 515  HEM515      0.0000
     16  O2A       33.3630   38.5450   62.8490 O.co2 515  HEM515      0.0000
     17  NB        37.1890   38.2940   68.1760 N.2   515  HEM515      0.0000
     18  C1B       37.7060   38.9590   67.0620 C.2   515  HEM515      0.0000
     19  C2B       38.3800   40.1940   67.4500 C.2   515  HEM515      0.0000
     20  C3B       38.3050   40.2900   68.8090 C.2   515  HEM515      0.0000
     21  C4B       37.5840   39.1000   69.2490 C.2   515  HEM515      0.0000
     22  CMB       39.0020   41.2490   66.5210 C.3   515  HEM515      0.0000
     23  CAB       38.7110   41.3520   69.6030 C.3   515  HEM515      0.0000
     24  CBB       37.8360   42.4420   69.8890 C.3   515  HEM515      0.0000
     25  NC        36.1240   36.7350   70.0740 N.ar  515  HEM515      0.0000
     26  C1C       36.6700   37.6240   70.9490 C.ar  515  HEM515      0.0000
     27  C2C       36.5890   37.1350   72.3270 C.ar  515  HEM515      0.0000
     28  C3C       35.9540   35.9250   72.3170 C.ar  515  HEM515      0.0000
     29  C4C       35.6240   35.7260   70.8980 C.ar  515  HEM515      0.0000
     30  CMC       37.1130   37.9190   73.5320 C.3   515  HEM515      0.0000
     31  CAC       35.7510   35.0140   73.4010 C.3   515  HEM515      0.0000
     32  CBC       35.3320   35.4000   74.7150 C.3   515  HEM515      0.0000
     33  ND        34.8000   35.1840   68.0940 N.2   515  HEM515      0.0000
     34  C1D       34.3820   34.4800   69.1780 C.2   515  HEM515      0.0000
     35  C2D       33.4210   33.4770   68.8220 C.2   515  HEM515      0.0000
     36  C3D       33.2170   33.5780   67.4890 C.2   515  HEM515      0.0000
     37  C4D       34.1170   34.6080   67.0440 C.2   515  HEM515      0.0000
     38  CMD       32.7070   32.5440   69.7930 C.3   515  HEM515      0.0000
     39  CAD       32.2430   32.7920   66.6580 C.3   515  HEM515      0.0000
     40  CBD       30.7640   33.1810   66.8150 C.3   515  HEM515      0.0000
     41  CGD       30.3750   34.4370   66.0310 C.2   515  HEM515      0.0000
     42  O1D       31.1780   34.9070   65.1950 O.co2 515  HEM515      0.0000
     43  O2D       29.2530   34.9470   66.2470 O.co2 515  HEM515      0.0000
@<TRIPOS>BOND
     1    15    14   ar
     2    14    13    1
     3    14    16   ar
     4    13    12    1
     5    12     8    1
     6    11     9    1
     7     8     9   ar
     8     8     7   ar
     9     9    10   ar
    10    42    41   ar
    11     7     2    2
    12     7     6   ar
    13    10     3    2
    14    10     6   ar
    15     2    37    1
    16     3    18    1
    17    41    43   ar
    18    41    40    1
    19     6     1    1
    20    22    19    1
    21    39    40    1
    22    39    36    1
    23    37    36    1
    24    37    33    2
    25    18    19    1
    26    18    17    2
    27    19    20    2
    28    36    35    2
    29    33     1    1
    30    33    34    1
    31     1    17    1
    32     1    25    1
    33    17    21    1
    34    20    21    1
    35    20    23    1
    36    35    34    1
    37    35    38    1
    38    34     5    2
    39    21     4    2
    40    23    24    1
    41    25    29   ar
    42    25    26   ar
    43     5    29    1
    44     4    26    1
    45    29    28   ar
    46    26    27   ar
    47    28    27   ar
    48    28    31    1
    49    27    30    1
    50    31    32    1
