@<TRIPOS>MOLECULE
1qdc_MAN_A_1.pdb
 11 11 0 0 0
SMALL
GASTEIGER

@<TRIPOS>ATOM
      1  C1        28.6780   48.2240    8.0260 C.3   238  MAN238      0.1777
      2  C2        27.1790   48.1100    7.7460 C.3   238  MAN238      0.2141
      3  C3        26.4100   48.3150    9.0610 C.3   238  MAN238      0.2173
      4  C4        26.9000   47.3350   10.1210 C.3   238  MAN238      0.2142
      5  C5        28.4100   47.4650   10.2820 C.3   238  MAN238      0.1810
      6  C6        28.9890   46.4490   11.2460 C.3   238  MAN238      0.2141
      7  O2        26.8920   46.8330    7.1850 O.3   238  MAN238     -0.2176
      8  O3        25.0140   48.1410    8.8560 O.3   238  MAN238     -0.2175
      9  O4        26.2640   47.6390   11.3500 O.3   238  MAN238     -0.2176
     10  O5        29.0560   47.2690    9.0090 O.3   238  MAN238     -0.3481
     11  O6        28.8660   45.1360   10.7320 O.3   238  MAN238     -0.2176
@<TRIPOS>BOND
     1     7     2    1
     2     2     1    1
     3     2     3    1
     4     1    10    1
     5     8     3    1
     6    10     5    1
     7     3     4    1
     8     4     5    1
     9     4     9    1
    10     5     6    1
    11    11     6    1
