@<TRIPOS>MOLECULE
1qdc_MMA_A_1.pdb
 13 13 0 0 0
SMALL
GASTEIGER

@<TRIPOS>ATOM
      1  C1        30.3690   53.4360    8.9450 C.3   239  MMA239      0.2695
      2  C2        30.1100   53.5020   10.4420 C.3   239  MMA239      0.2406
      3  C3        30.7870   52.3310   11.1660 C.3   239  MMA239      0.2198
      4  C4        30.4720   50.9860   10.5060 C.3   239  MMA239      0.2144
      5  C5        30.7580   51.0760    9.0190 C.3   239  MMA239      0.1835
      6  C6        30.4010   49.8060    8.2800 C.3   239  MMA239      0.2142
      7  C7        31.9910   53.8080    7.3090 C.3   239  MMA239      0.1769
      8  O1        31.7170   53.6800    8.6780 O.3   239  MMA239     -0.3259
      9  O2        28.7130   53.5100   10.6770 O.3   239  MMA239     -0.2149
     10  O3        30.4310   52.3170   12.5430 O.3   239  MMA239     -0.2174
     11  O4        31.3130   49.9850   11.0650 O.3   239  MMA239     -0.2176
     12  O5        30.0100   52.1450    8.4220 O.3   239  MMA239     -0.3256
     13  O6        28.9950   49.5370    8.4150 O.3   239  MMA239     -0.2176
@<TRIPOS>BOND
     1     7     8    1
     2     6    13    1
     3     6     5    1
     4    12     1    1
     5    12     5    1
     6     8     1    1
     7     1     2    1
     8     5     4    1
     9     2     9    1
    10     2     3    1
    11     4    11    1
    12     4     3    1
    13     3    10    1
