@<TRIPOS>MOLECULE
1qdd_GAL_A_1.pdb
 11 11 0 0 0
SMALL
GASTEIGER

@<TRIPOS>ATOM
      1  C1        58.3580   12.4650   48.9590 C.3   602  GAL602      0.1777
      2  C2        57.2070   13.4220   49.1140 C.3   602  GAL602      0.2141
      3  C3        56.4900   13.3440   47.9540 C.3   602  GAL602      0.2173
      4  C4        57.3710   13.8560   46.7410 C.3   602  GAL602      0.2142
      5  C5        58.5280   12.8710   46.6010 C.3   602  GAL602      0.1810
      6  C6        59.6190   13.5840   45.8100 C.3   602  GAL602      0.2141
      7  O2        56.3810   12.9320   50.1690 O.3   602  GAL602     -0.2176
      8  O3        55.2640   14.2060   47.9120 O.3   602  GAL602     -0.2175
      9  O4        57.9310   15.1420   47.0900 O.3   602  GAL602     -0.2176
     10  O5        59.1810   12.6300   47.8470 O.3   602  GAL602     -0.3481
     11  O6        60.1180   12.7250   44.7910 O.3   602  GAL602     -0.2176
@<TRIPOS>BOND
     1    11     6    1
     2     6     5    1
     3     5     4    1
     4     5    10    1
     5     4     9    1
     6     4     3    1
     7    10     1    1
     8     8     3    1
     9     3     2    1
    10     1     2    1
    11     2     7    1
