@<TRIPOS>MOLECULE
1qdo_MAN_A_1.pdb
 11 11 0 0 0
SMALL
GASTEIGER

@<TRIPOS>ATOM
      1  C1        25.8920  -26.9530    9.1220 C.3   238  MAN238      0.1777
      2  C2        25.4710  -25.5300    8.7280 C.3   238  MAN238      0.2141
      3  C3        25.6220  -24.6070    9.9280 C.3   238  MAN238      0.2173
      4  C4        24.8270  -25.1220   11.1340 C.3   238  MAN238      0.2142
      5  C5        25.1710  -26.5940   11.4150 C.3   238  MAN238      0.1810
      6  C6        24.2830  -27.2380   12.4790 C.3   238  MAN238      0.2141
      7  O2        24.1270  -25.5170    8.2580 O.3   238  MAN238     -0.2176
      8  O3        25.1970  -23.3020    9.5910 O.3   238  MAN238     -0.2175
      9  O4        25.1540  -24.3350   12.2790 O.3   238  MAN238     -0.2176
     10  O5        25.0780  -27.4060   10.2130 O.3   238  MAN238     -0.3481
     11  O6        22.9000  -27.0960   12.1850 O.3   238  MAN238     -0.2176
@<TRIPOS>BOND
     1     7     2    1
     2     2     1    1
     3     2     3    1
     4     1    10    1
     5     8     3    1
     6     3     4    1
     7    10     5    1
     8     4     5    1
     9     4     9    1
    10     5     6    1
    11    11     6    1
