@<TRIPOS>MOLECULE
1qdo_MMA_C_1.pdb
 13 13 0 0 0
SMALL
GASTEIGER

@<TRIPOS>ATOM
      1  C1        26.3430   29.9600   55.6230 C.3   2239  MMA2239     0.2695
      2  C2        25.8070   28.5320   55.7460 C.3   2239  MMA2239     0.2406
      3  C3        25.0270   28.4060   57.0550 C.3   2239  MMA2239     0.2198
      4  C4        25.8990   28.8420   58.2470 C.3   2239  MMA2239     0.2144
      5  C5        26.5420   30.2290   57.9930 C.3   2239  MMA2239     0.1835
      6  C6        27.5800   30.6170   59.0420 C.3   2239  MMA2239     0.2142
      7  C7        25.6430   32.1290   55.1310 C.3   2239  MMA2239     0.1769
      8  O1        25.2880   30.8740   55.6460 O.3   2239  MMA2239    -0.3259
      9  O2        26.8820   27.5860   55.7040 O.3   2239  MMA2239    -0.2149
     10  O3        24.5920   27.0590   57.2240 O.3   2239  MMA2239    -0.2174
     11  O4        25.1020   28.8930   59.4310 O.3   2239  MMA2239    -0.2176
     12  O5        27.2180   30.2580   56.7170 O.3   2239  MMA2239    -0.3256
     13  O6        28.8010   29.8670   58.8440 O.3   2239  MMA2239    -0.2176
@<TRIPOS>BOND
     1     7     8    1
     2     1     8    1
     3     1     2    1
     4     1    12    1
     5     9     2    1
     6     2     3    1
     7    12     5    1
     8     3    10    1
     9     3     4    1
    10     5     4    1
    11     5     6    1
    12     4    11    1
    13    13     6    1
