@<TRIPOS>MOLECULE
1qdq_074_A_1.pdb
 27 27 0 0 0
SMALL
GASTEIGER

@<TRIPOS>ATOM
      1  C1        17.2180   20.4750   -3.8160 C.3   254  074254      0.0019
      2  C2        16.0270   20.4360   -4.7800 C.3   254  074254      0.0234
      3  C3        15.7860   18.9930   -5.1200 C.3   254  074254      0.1152
      4  N1        14.4420   18.7650   -5.6290 N.am  254  074254     -0.2033
      5  C4        14.1730   18.8180   -6.9320 C.2   254  074254      0.2723
      6  O1        15.0190   19.1370   -7.7660 O.2   254  074254     -0.2706
      7  C5        12.7520   18.5140   -7.4120 C.3   254  074254      0.2381
      8  C6        11.8700   19.8160   -7.2090 C.3   254  074254      0.1292
      9  O2        12.0770   17.3820   -6.8350 O.3   254  074254     -0.2127
     10  C7        10.5020   19.6070   -7.8440 C.2   254  074254      0.2449
     11  O3        10.3040   19.9040   -9.0300 O.2   254  074254     -0.2732
     12  N2         9.6040   19.1370   -6.9500 N.am  254  074254     -0.1978
     13  C8         8.2240   18.7670   -7.2510 C.3   254  074254      0.1712
     14  C9         7.3650   18.5050   -5.9670 C.3   254  074254      0.0289
     15  C10        7.9140   17.2280   -5.3330 C.3   254  074254      0.0023
     16  C11        7.3940   19.6620   -4.9720 C.3   254  074254      0.0022
     17  C12        6.1730   19.6290   -4.0260 C.3   254  074254      0.0001
     18  C13        7.4060   19.7480   -8.0690 C.2   254  074254      0.2458
     19  O4         7.5290   20.9720   -7.9310 O.2   254  074254     -0.2730
     20  N3         6.5640   19.1950   -8.9540 N.am  254  074254     -0.2699
     21  C14        6.6890   17.8240   -9.4860 C.3   254  074254      0.0940
     22  C15        5.6120   17.6990  -10.5420 C.3   254  074254      0.0238
     23  C16        5.4220   19.1480  -10.9420 C.3   254  074254      0.0332
     24  C17        5.5670   19.9740   -9.6630 C.3   254  074254      0.1791
     25  C18        4.2960   20.1680   -8.7950 C.2   254  074254      0.3825
     26  O          4.2210   19.6550   -7.6690 O.co2 254  074254     -0.2438
     27  OT         3.4130   20.9280   -9.1820 O.co2 254  074254     -0.2438
@<TRIPOS>BOND
     1    23    22    1
     2    23    24    1
     3    22    21    1
     4    24    20    1
     5    24    25    1
     6    21    20    1
     7    27    25   ar
     8    11    10    2
     9    20    18   am
    10    25    26   ar
    11    18    19    2
    12    18    13    1
    13    10     8    1
    14    10    12   am
    15     6     5    2
    16     7     8    1
    17     7     5    1
    18     7     9    1
    19    13    12    1
    20    13    14    1
    21     5     4   am
    22    14    15    1
    23    14    16    1
    24     4     3    1
    25     3     2    1
    26    16    17    1
    27     2     1    1
