@<TRIPOS>MOLECULE
1qdu_III_T_1.pdb
 35 35 0 0 0
SMALL
GASTEIGER

@<TRIPOS>ATOM
      1  C1       -11.7000   22.1270   54.7900 C.2   4100  PHQ4100     0.4218
      2  O1       -12.8750   22.3230   55.0970 O.2   4100  PHQ4100    -0.2245
      3  O2       -11.0430   22.9850   53.8920 O.3   4100  PHQ4100    -0.4285
      4  C2       -11.8230   24.0870   53.3720 C.3   4100  PHQ4100     0.2368
      5  C3       -10.9970   24.9640   52.4580 C.ar  4100  PHQ4100     0.0213
      6  C4       -10.1670   24.4120   51.4350 C.ar  4100  PHQ4100    -0.0007
      7  C5        -9.3980   25.2780   50.5880 C.ar  4100  PHQ4100    -0.0002
      8  C6        -9.4530   26.6930   50.7560 C.ar  4100  PHQ4100    -0.0000
      9  C7       -10.2790   27.2540   51.7760 C.ar  4100  PHQ4100    -0.0002
     10  C8       -11.0450   26.3890   52.6190 C.ar  4100  PHQ4100    -0.0007
     11  N        -10.8820   21.1710   55.2150 N.am  4101  GLU4101    -0.1611
     12  CA       -11.2700   20.1430   56.2130 C.3   4101  GLU4101     0.1767
     13  C        -10.6250   20.5550   57.5700 C.2   4101  GLU4101     0.2617
     14  O         -9.9000   21.5620   57.6440 O.2   4101  GLU4101    -0.2715
     15  CB       -10.7370   18.7450   55.8590 C.3   4101  GLU4101     0.0430
     16  CG       -11.2540   18.1210   54.5480 C.3   4101  GLU4101     0.1163
     17  CD       -10.8970   16.6130   54.4270 C.2   4101  GLU4101     0.3649
     18  OE1      -10.2830   15.9410   55.2340 O.co2 4101  GLU4101    -0.2457
     19  OE2      -11.3710   16.1210   53.2800 O.co2 4101  GLU4101    -0.2457
     20  N        -10.8830   19.7710   58.6430 N.am  4102  VAL4102    -0.1963
     21  CA       -10.6240   20.1590   60.0530 C.3   4102  VAL4102     0.1727
     22  C         -9.7800   19.0160   60.6620 C.2   4102  VAL4102     0.2616
     23  O         -9.8450   17.8580   60.2100 O.2   4102  VAL4102    -0.2715
     24  CB       -11.9500   20.4010   60.8620 C.3   4102  VAL4102     0.0290
     25  CG1      -12.7470   21.5680   60.2800 C.3   4102  VAL4102     0.0023
     26  CG2      -12.9040   19.1830   60.8800 C.3   4102  VAL4102     0.0023
     27  N         -8.9840   19.3560   61.6930 N.am  4103  ASP4103    -0.1976
     28  CA        -8.0940   18.4340   62.4120 C.3   4103  ASP4103     0.1635
     29  C         -8.5950   18.1680   63.8740 C.2   4103  ASP4103     0.1713
     30  O         -7.9900   17.5000   64.6760 O.2   4103  ASP4103    -0.2942
     31  CB        -6.6570   19.0260   62.4500 C.3   4103  ASP4103     0.1432
     32  CG        -5.8760   18.9430   61.1140 C.2   4103  ASP4103     0.3671
     33  OD1       -5.9120   18.0430   60.3060 O.co2 4103  ASP4103    -0.2456
     34  OD2       -5.1220   20.0220   60.9570 O.co2 4103  ASP4103    -0.2456
     35  C1        -9.7610   18.7850   64.1340 C.3   4104  0QE4104     0.0741
@<TRIPOS>BOND
     1     7     8   ar
     2     7     6   ar
     3     8     9   ar
     4     6     5   ar
     5     9    10   ar
     6     5    10   ar
     7     5     4    1
     8    19    17   ar
     9     4     3    1
    10     3     1    1
    11    17    16    1
    12    17    18   ar
    13    16    15    1
    14     1     2    2
    15     1    11   am
    16    11    12    1
    17    15    12    1
    18    12    13    1
    19    13    14    2
    20    13    20   am
    21    20    21    1
    22    21    22    1
    23    21    24    1
    24    23    22    2
    25    25    24    1
    26    33    32   ar
    27    22    27   am
    28    24    26    1
    29    34    32   ar
    30    32    31    1
    31    27    28    1
    32    28    31    1
    33    28    29    1
    34    29    35    1
    35    29    30    2
