@<TRIPOS>MOLECULE
1qf0_TI2_A_1.pdb
 35 37 0 0 0
SMALL
GASTEIGER

@<TRIPOS>ATOM
      1  SG        34.2260   43.1720   -6.9870 S.3   317  TI2317     -0.0729
      2  CA1       34.6030   41.5420   -6.2280 C.3   317  TI2317      0.1400
      3  CB1       35.0560   40.5030   -7.2400 C.3   317  TI2317      0.0473
      4  CG1       33.9310   39.7730   -7.8610 C.ar  317  TI2317     -0.0208
      5  CD1       33.4910   40.1050   -9.1270 C.ar  317  TI2317     -0.0042
      6  CD2       33.2620   38.7820   -7.1420 C.ar  317  TI2317     -0.0042
      7  CE1       32.3900   39.4670   -9.6770 C.ar  317  TI2317     -0.0003
      8  CE2       32.1680   38.1390   -7.6770 C.ar  317  TI2317     -0.0003
      9  CZ1       31.7230   38.4810   -8.9510 C.ar  317  TI2317     -0.0000
     10  C1        35.7580   41.9180   -5.3220 C.2   317  TI2317      0.2526
     11  O1        36.8010   42.3790   -5.7990 O.2   317  TI2317     -0.2724
     12  N2        35.5420   41.8020   -4.0220 N.am  317  TI2317     -0.1967
     13  CA2       36.5570   42.1750   -3.0600 C.3   317  TI2317      0.1771
     14  CB2       35.9360   42.2750   -1.6710 C.3   317  TI2317      0.0574
     15  CG2       36.8080   42.9630   -0.6820 C.ar  317  TI2317     -0.0200
     16  CD3       37.1480   44.3040   -0.8620 C.ar  317  TI2317     -0.0042
     17  CD4       37.3170   42.2770    0.4140 C.ar  317  TI2317     -0.0042
     18  CE3       37.9910   44.9590    0.0440 C.ar  317  TI2317     -0.0003
     19  CE4       38.1610   42.9220    1.3260 C.ar  317  TI2317     -0.0003
     20  CZ2       38.4980   44.2650    1.1400 C.ar  317  TI2317     -0.0000
     21  C2        37.7240   41.2050   -3.0120 C.2   317  TI2317      0.2620
     22  O2        38.8880   41.6100   -2.9040 O.2   317  TI2317     -0.2715
     23  N3        37.3860   39.9280   -3.1110 N.am  317  TI2317     -0.1938
     24  CA3       38.3190   38.8210   -3.0360 C.3   317  TI2317      0.2021
     25  CB3       37.6990   37.8180   -2.0690 C.3   317  TI2317      0.0596
     26  CG3       38.5660   36.7060   -1.5080 C.ar  317  TI2317     -0.0197
     27  CD5       39.9190   36.9140   -1.2320 C.ar  317  TI2317     -0.0009
     28  CE5       40.6780   35.8700   -0.6830 C.ar  317  TI2317      0.0417
     29  CD6       37.9620   35.4710   -1.2490 C.ar  317  TI2317     -0.0009
     30  CE6       38.7180   34.4310   -0.6980 C.ar  317  TI2317      0.0417
     31  CZ3       40.0750   34.6300   -0.4140 C.ar  317  TI2317      0.1957
     32  OH        40.8060   33.6190    0.1270 O.3   317  TI2317     -0.2866
     33  C3        38.4740   38.2180   -4.4360 C.2   317  TI2317      0.3845
     34  O3        37.4580   38.0600   -5.1470 O.co2 317  TI2317     -0.2437
     35  OXT       39.6150   37.9430   -4.8370 O.co2 317  TI2317     -0.2437
@<TRIPOS>BOND
     1     7     5   ar
     2     7     9   ar
     3     5     4   ar
     4     9     8   ar
     5     4     3    1
     6     4     6   ar
     7     8     6   ar
     8     3     2    1
     9     1     2    1
    10     2    10    1
    11    11    10    2
    12    10    12   am
    13    34    33   ar
    14    35    33   ar
    15    33    24    1
    16    12    13    1
    17    23    24    1
    18    23    21   am
    19    13    21    1
    20    13    14    1
    21    24    25    1
    22    21    22    2
    23    25    26    1
    24    14    15    1
    25    26    29   ar
    26    26    27   ar
    27    29    30   ar
    28    27    28   ar
    29    16    15   ar
    30    16    18   ar
    31    30    31   ar
    32    28    31   ar
    33    15    17   ar
    34    31    32    1
    35    18    20   ar
    36    17    19   ar
    37    20    19   ar
