@<TRIPOS>MOLECULE
1qf1_TI1_A_1.pdb
 26 26 0 0 0
SMALL
GASTEIGER

@<TRIPOS>ATOM
      1  SG        34.1310   43.3010   -7.0630 S.3   317  TI1317     -0.0732
      2  CA1       34.4690   41.5490   -6.5380 C.3   317  TI1317      0.1356
      3  CB1       35.1010   40.6960   -7.6440 C.3   317  TI1317      0.0209
      4  CG1       34.1900   39.6960   -8.2710 C.3   317  TI1317      0.0014
      5  CD1       33.8010   38.6400   -7.2630 C.3   317  TI1317      0.0000
      6  CE1       32.7830   37.6990   -7.8710 C.3   317  TI1317      0.0000
      7  CF1       32.4120   36.6230   -6.9030 C.3   317  TI1317      0.0000
      8  C1        35.5610   41.8690   -5.5230 C.2   317  TI1317      0.2523
      9  O1        36.6450   42.3190   -5.9160 O.2   317  TI1317     -0.2724
     10  N2        35.2970   41.6760   -4.2370 N.am  317  TI1317     -0.1967
     11  CA2       36.3130   42.0200   -3.2480 C.3   317  TI1317      0.1771
     12  CB2       35.7380   42.0520   -1.8300 C.3   317  TI1317      0.0574
     13  CG2       36.6050   42.7960   -0.8590 C.ar  317  TI1317     -0.0200
     14  CD3       36.9100   44.1430   -1.0760 C.ar  317  TI1317     -0.0042
     15  CD4       37.1720   42.1470    0.2340 C.ar  317  TI1317     -0.0042
     16  CE3       37.7740   44.8300   -0.2190 C.ar  317  TI1317     -0.0003
     17  CE4       38.0400   42.8280    1.0980 C.ar  317  TI1317     -0.0003
     18  CZ2       38.3400   44.1690    0.8660 C.ar  317  TI1317     -0.0000
     19  C2        37.5570   41.1310   -3.2890 C.2   317  TI1317      0.2620
     20  O2        38.6880   41.6340   -3.2900 O.2   317  TI1317     -0.2715
     21  N3        37.3470   39.8200   -3.3240 N.am  317  TI1317     -0.1941
     22  CA3       38.4450   38.8600   -3.3560 C.3   317  TI1317      0.1979
     23  CB3       38.3580   37.9350   -2.1490 C.3   317  TI1317      0.0356
     24  C3        38.4340   38.0570   -4.6560 C.2   317  TI1317      0.3842
     25  O3        37.3870   38.0180   -5.3340 O.co2 317  TI1317     -0.2437
     26  OXT       39.4860   37.5040   -5.0180 O.co2 317  TI1317     -0.2437
@<TRIPOS>BOND
     1     4     3    1
     2     4     5    1
     3     6     5    1
     4     6     7    1
     5     3     2    1
     6     1     2    1
     7     2     8    1
     8     9     8    2
     9     8    10   am
    10    25    24   ar
    11    26    24   ar
    12    24    22    1
    13    10    11    1
    14    22    21    1
    15    22    23    1
    16    21    19   am
    17    20    19    2
    18    19    11    1
    19    11    12    1
    20    12    13    1
    21    14    13   ar
    22    14    16   ar
    23    13    15   ar
    24    16    18   ar
    25    15    17   ar
    26    18    17   ar
