@<TRIPOS>MOLECULE
1qf2_TI3_A_1.pdb
 29 31 0 0 0
SMALL
GASTEIGER

@<TRIPOS>ATOM
      1  SG        36.1630   42.4450   -6.1130 S.3   317  TI3317     -0.0729
      2  CA1       36.8570   42.4760   -4.3810 C.3   317  TI3317      0.1400
      3  CB1       35.7910   42.4910   -3.2890 C.3   317  TI3317      0.0473
      4  CG1       36.3600   42.5880   -1.8980 C.ar  317  TI3317     -0.0208
      5  CD1       37.0910   43.7140   -1.5100 C.ar  317  TI3317     -0.0042
      6  CD2       36.1980   41.5450   -0.9900 C.ar  317  TI3317     -0.0042
      7  CE1       37.6510   43.7920   -0.2420 C.ar  317  TI3317     -0.0003
      8  CE2       36.7550   41.6130    0.2810 C.ar  317  TI3317     -0.0003
      9  CZ1       37.4820   42.7320    0.6580 C.ar  317  TI3317     -0.0000
     10  C1        37.8660   41.3970   -4.0130 C.2   317  TI3317      0.2526
     11  O1        39.0490   41.6790   -3.8340 O.2   317  TI3317     -0.2724
     12  N2        37.3580   40.1930   -3.7970 N.am  317  TI3317     -0.1948
     13  CA2       38.2040   39.0630   -3.4860 C.3   317  TI3317      0.1998
     14  C2        38.2310   38.2730   -4.7800 C.2   317  TI3317      0.2483
     15  O2        37.3010   38.3880   -5.5820 O.2   317  TI3317     -0.2729
     16  N3        39.2610   37.4550   -5.0190 N.am  317  TI3317     -0.2677
     17  CD3       40.3860   37.0580   -4.1410 C.3   317  TI3317      0.0984
     18  CA3       39.2670   36.7060   -6.2840 C.3   317  TI3317      0.1793
     19  CB3       40.7070   36.2070   -6.3690 C.3   317  TI3317      0.0335
     20  CG3       41.0540   35.9540   -4.9460 C.3   317  TI3317      0.0267
     21  CG4       40.0020   36.5450   -2.7660 C.ar  317  TI3317     -0.0043
     22  CD5       38.7600   35.9420   -2.5460 C.ar  317  TI3317     -0.0027
     23  CD4       40.9070   36.6040   -1.7130 C.ar  317  TI3317     -0.0027
     24  CE5       38.4290   35.4090   -1.3070 C.ar  317  TI3317     -0.0003
     25  CE4       40.5880   36.0710   -0.4680 C.ar  317  TI3317     -0.0003
     26  CZ3       39.3480   35.4720   -0.2650 C.ar  317  TI3317     -0.0000
     27  C3        38.2320   35.5680   -6.3930 C.2   317  TI3317      0.3825
     28  O3        37.8780   34.9710   -5.3490 O.co2 317  TI3317     -0.2438
     29  OXT       37.7500   35.3150   -7.5250 O.co2 317  TI3317     -0.2438
@<TRIPOS>BOND
     1    29    27   ar
     2    27    18    1
     3    27    28   ar
     4    19    18    1
     5    19    20    1
     6    18    16    1
     7     1     2    1
     8    15    14    2
     9    16    14   am
    10    16    17    1
    11    20    17    1
    12    14    13    1
    13     2    10    1
    14     2     3    1
    15    17    21    1
    16    10    11    2
    17    10    12   am
    18    12    13    1
    19     3     4    1
    20    21    22   ar
    21    21    23   ar
    22    22    24   ar
    23     4     5   ar
    24     4     6   ar
    25    23    25   ar
    26     5     7   ar
    27    24    26   ar
    28     6     8   ar
    29    25    26   ar
    30     7     9   ar
    31     8     9   ar
