@<TRIPOS>MOLECULE
1qf3_MBG_A_1.pdb
 13 13 0 0 0
SMALL
GASTEIGER

@<TRIPOS>ATOM
      1  C1        54.7060   26.2490   64.6430 C.3   439  MBG439      0.2695
      2  C2        53.3190   26.1430   64.1820 C.3   439  MBG439      0.2406
      3  C3        52.9360   24.6740   63.9440 C.3   439  MBG439      0.2198
      4  C4        53.9920   23.9920   62.9980 C.3   439  MBG439      0.2144
      5  C5        55.3490   24.1380   63.6610 C.3   439  MBG439      0.1835
      6  C6        56.5910   23.4590   63.1620 C.3   439  MBG439      0.2142
      7  C7        56.0660   27.9150   65.7460 C.3   439  MBG439      0.1769
      8  O1        54.9860   27.6500   64.8380 O.3   439  MBG439     -0.3259
      9  O2        52.5400   26.7360   65.2080 O.3   439  MBG439     -0.2149
     10  O3        51.6520   24.6930   63.3740 O.3   439  MBG439     -0.2174
     11  O4        53.9570   24.6430   61.7680 O.3   439  MBG439     -0.2176
     12  O5        55.5670   25.5620   63.7260 O.3   439  MBG439     -0.3256
     13  O6        57.6130   23.7190   64.1090 O.3   439  MBG439     -0.2176
@<TRIPOS>BOND
     1    11     4    1
     2     4     5    1
     3     4     3    1
     4     6     5    1
     5     6    13    1
     6    10     3    1
     7     5    12    1
     8    12     1    1
     9     3     2    1
    10     2     1    1
    11     2     9    1
    12     1     8    1
    13     8     7    1
