@<TRIPOS>MOLECULE
1qf4_GDP_A_1.pdb
 28 30 0 0 0
SMALL
GASTEIGER

@<TRIPOS>ATOM
      1  PB        37.9320   19.7630   18.5480 P.3   434  GDP434      0.5373
      2  O1B       38.7860   19.1840   17.5190 O.2   434  GDP434     -0.2221
      3  O2B       36.5570   19.2600   18.6790 O.3   434  GDP434     -0.1143
      4  O3B       38.6990   19.6810   19.8900 O.3   434  GDP434     -0.1143
      5  O3A       37.8530   21.3390   18.2520 O.3   434  GDP434     -0.2261
      6  PA        36.5930   22.3240   18.0540 P.3   434  GDP434      0.2231
      7  O1A       36.6020   22.8080   16.6560 O.2   434  GDP434     -0.5169
      8  O2A       35.3770   21.7530   18.6040 O.3   434  GDP434     -0.4370
      9  O5'       37.1020   23.5300   18.9980 O.3   434  GDP434     -0.3111
     10  C5'       38.3660   24.1550   18.7520 C.3   434  GDP434      0.1813
     11  C4'       38.1470   25.5540   18.1750 C.3   434  GDP434      0.1799
     12  O4'       39.2800   26.3250   18.5100 O.3   434  GDP434     -0.3326
     13  C3'       38.0800   25.5890   16.6730 C.3   434  GDP434      0.2158
     14  O3'       37.1300   26.5380   16.2780 O.3   434  GDP434     -0.2175
     15  C2'       39.4700   25.9630   16.1900 C.3   434  GDP434      0.2310
     16  O2'       39.5350   26.6610   14.9360 O.3   434  GDP434     -0.2158
     17  C1'       39.9420   26.8230   17.3400 C.3   434  GDP434      0.2293
     18  N9        41.3450   26.7010   17.6820 N.pl3 434  GDP434     -0.2354
     19  C8        42.1670   25.6200   17.6760 C.3   434  GDP434      0.2246
     20  N7        43.3730   25.8420   18.0700 N.2   434  GDP434     -0.2322
     21  C5        43.3520   27.2070   18.3680 C.2   434  GDP434      0.2182
     22  C6        44.3950   28.0550   18.8710 C.1   434  GDP434      0.2372
     23  O6        45.5460   27.7520   19.1560 O.2   434  GDP434     -0.2069
     24  N1        43.9630   29.3730   19.0330 N.2   434  GDP434     -0.2485
     25  C2        42.6850   29.8310   18.7510 C.1   434  GDP434      0.2531
     26  N2        42.4510   31.1250   18.9630 N.pl3 434  GDP434     -0.0226
     27  N3        41.7030   29.0390   18.2880 N.2   434  GDP434     -0.3074
     28  C4        42.1150   27.7420   18.1230 C.2   434  GDP434      0.2300
@<TRIPOS>BOND
     1    16    15    1
     2    15    13    1
     3    15    17    1
     4    14    13    1
     5     7     6    2
     6    13    11    1
     7    17    18    1
     8    17    12    1
     9     2     1    2
    10    19    18    1
    11    19    20    1
    12    18    28    1
    13     6     5    1
    14     6     8    1
    15     6     9    1
    16    20    21    2
    17    28    27    2
    18    28    21    1
    19    11    12    1
    20    11    10    1
    21     5     1    1
    22    27    25    2
    23    21    22    1
    24     1     3    1
    25     1     4    1
    26    25    26    1
    27    25    24    2
    28    10     9    1
    29    22    24    2
    30    22    23    2
