@<TRIPOS>MOLECULE
1qf4_RPD_A_1.pdb
 30 31 0 0 0
SMALL
GASTEIGER

@<TRIPOS>ATOM
      1  O1P       25.2120   11.7480   23.7840 O.3   435  RPD435     -0.1145
      2  O2P       27.2380   12.8770   23.0980 O.3   435  RPD435     -0.1145
      3  O3P       25.0680   13.5940   22.2750 O.2   435  RPD435     -0.2224
      4  P         25.7800   13.0510   23.4200 P.3   435  RPD435      0.5327
      5  O5'       25.6680   14.0530   24.6980 O.3   435  RPD435     -0.2675
      6  C5'       26.2400   13.7950   25.9570 C.3   435  RPD435      0.1859
      7  C4'       27.0530   14.9860   26.4370 C.3   435  RPD435      0.1807
      8  O4'       28.2890   15.0460   25.7440 O.3   435  RPD435     -0.3260
      9  C3'       26.3860   16.3200   26.2030 C.3   435  RPD435      0.2165
     10  O3'       26.8060   17.2530   27.2110 O.3   435  RPD435     -0.2175
     11  C2'       26.9580   16.7470   24.8050 C.3   435  RPD435      0.2402
     12  O2'       27.1060   18.1810   24.7780 O.3   435  RPD435     -0.2150
     13  C1'       28.3510   16.0740   24.6910 C.3   435  RPD435      0.2891
     14  N1        28.4020   15.4320   23.4830 N.2   435  RPD435     -0.1539
     15  C2        29.5070   15.8380   22.7560 C.1   435  RPD435      0.2196
     16  O2        29.7870   15.4390   21.6860 O.2   435  RPD435     -0.2059
     17  N3        30.2130   16.7690   23.4730 N.am  435  RPD435     -0.1824
     18  C4        29.5130   16.9360   24.6750 C.2   435  RPD435      0.2885
     19  O4        29.9090   17.7310   25.5420 O.2   435  RPD435     -0.2690
     20  C5A       31.4540   17.4470   23.0390 C.3   435  RPD435      0.1110
     21  C6A       31.1480   18.8920   22.5950 C.3   435  RPD435      0.0248
     22  C7A       30.0010   18.9310   21.5550 C.3   435  RPD435      0.0319
     23  C8A       29.7780   20.4020   21.1120 C.3   435  RPD435      0.1925
     24  C9A       28.3310   20.6550   20.7000 C.2   435  RPD435      0.3814
     25  OJA       27.3080   20.0360   21.3320 O.co2 435  RPD435     -0.2441
     26  OKA       28.0870   21.5190   19.6850 O.co2 435  RPD435     -0.2441
     27  NAA       30.6230   20.7980   19.9310 N.4   435  RPD435     -0.0908
     28  OAA       31.4190   21.9640   20.2970 O.3   435  RPD435     -0.1151
     29  CBA       31.5140   19.7160   19.4970 C.3   435  RPD435      0.2861
     30  OBA       32.3020   20.1140   18.3790 O.3   435  RPD435     -0.1982
@<TRIPOS>BOND
     1    30    29    1
     2    29    27    1
     3    26    24   ar
     4    27    28    1
     5    27    23    1
     6    24    23    1
     7    24    25   ar
     8    23    22    1
     9    22    21    1
    10    16    15    2
    11     3     4    2
    12    21    20    1
    13    15    17   am
    14    15    14    2
    15    20    17    1
    16     2     4    1
    17     4     1    1
    18     4     5    1
    19    17    18   am
    20    14    13    1
    21    18    13    1
    22    18    19    2
    23    13    11    1
    24    13     8    1
    25     5     6    1
    26    12    11    1
    27    11     9    1
    28     8     7    1
    29     6     7    1
    30     9     7    1
    31     9    10    1
