@<TRIPOS>MOLECULE
1qf5_GDP_A_1.pdb
 28 30 0 0 0
SMALL
GASTEIGER

@<TRIPOS>ATOM
      1  PB        38.2200   19.8960   18.3720 P.3   434  GDP434      0.5373
      2  O1B       39.2390   19.3700   17.4850 O.2   434  GDP434     -0.2221
      3  O2B       36.8570   19.4040   18.2280 O.3   434  GDP434     -0.1143
      4  O3B       38.7250   19.7420   19.8200 O.3   434  GDP434     -0.1143
      5  O3A       38.1640   21.4730   18.1600 O.3   434  GDP434     -0.2261
      6  PA        36.9200   22.4250   17.8110 P.3   434  GDP434      0.2231
      7  O1A       37.0510   22.9060   16.4180 O.2   434  GDP434     -0.5169
      8  O2A       35.6700   21.8300   18.2630 O.3   434  GDP434     -0.4370
      9  O5'       37.3440   23.6240   18.8020 O.3   434  GDP434     -0.3111
     10  C5'       38.6110   24.2530   18.6070 C.3   434  GDP434      0.1813
     11  C4'       38.4100   25.6290   17.9820 C.3   434  GDP434      0.1799
     12  O4'       39.5110   26.3970   18.3850 O.3   434  GDP434     -0.3326
     13  C3'       38.4340   25.6420   16.4720 C.3   434  GDP434      0.2158
     14  O3'       37.4610   26.5400   15.9930 O.3   434  GDP434     -0.2175
     15  C2'       39.8270   26.0830   16.0630 C.3   434  GDP434      0.2310
     16  O2'       39.9040   26.8620   14.8520 O.3   434  GDP434     -0.2158
     17  C1'       40.2540   26.8800   17.2730 C.3   434  GDP434      0.2293
     18  N9        41.6390   26.7040   17.6750 N.pl3 434  GDP434     -0.2354
     19  C8        42.4300   25.5960   17.7180 C.3   434  GDP434      0.2246
     20  N7        43.6350   25.7920   18.1480 N.2   434  GDP434     -0.2322
     21  C5        43.6490   27.1650   18.4200 C.2   434  GDP434      0.2182
     22  C6        44.6990   28.0070   18.9270 C.1   434  GDP434      0.2372
     23  O6        45.8320   27.6960   19.2540 O.2   434  GDP434     -0.2069
     24  N1        44.2860   29.3380   19.0460 N.2   434  GDP434     -0.2485
     25  C2        43.0340   29.8180   18.7130 C.1   434  GDP434      0.2531
     26  N2        42.8330   31.1150   18.8900 N.pl3 434  GDP434     -0.0226
     27  N3        42.0430   29.0450   18.2430 N.2   434  GDP434     -0.3074
     28  C4        42.4300   27.7350   18.1120 C.2   434  GDP434      0.2300
@<TRIPOS>BOND
     1    16    15    1
     2    14    13    1
     3    15    13    1
     4    15    17    1
     5     7     6    2
     6    13    11    1
     7    17    18    1
     8    17    12    1
     9     2     1    2
    10    18    19    1
    11    18    28    1
    12    19    20    1
    13     6     5    1
    14     6     8    1
    15     6     9    1
    16    11    12    1
    17    11    10    1
    18    28    27    2
    19    28    21    1
    20    20    21    2
    21     5     1    1
    22     3     1    1
    23    27    25    2
    24     1     4    1
    25    21    22    1
    26    10     9    1
    27    25    26    1
    28    25    24    2
    29    22    24    2
    30    22    23    2
