@<TRIPOS>MOLECULE
1qf5_RPL_A_1.pdb
 30 31 0 0 0
SMALL
GASTEIGER

@<TRIPOS>ATOM
      1  O1P       25.2110   11.8440   23.9120 O.3   435  RPL435     -0.1145
      2  O2P       27.2260   12.7610   23.0160 O.3   435  RPL435     -0.1145
      3  O3P       25.0750   13.5570   22.2830 O.2   435  RPL435     -0.2224
      4  P         25.8210   13.0640   23.4200 P.3   435  RPL435      0.5327
      5  O5'       25.8650   14.1420   24.6270 O.3   435  RPL435     -0.2675
      6  C5'       26.3270   13.8490   25.9290 C.3   435  RPL435      0.1859
      7  C4'       27.1680   14.9930   26.4930 C.3   435  RPL435      0.1807
      8  O4'       28.4210   15.0700   25.8250 O.3   435  RPL435     -0.3260
      9  C3'       26.5510   16.3600   26.2920 C.3   435  RPL435      0.2165
     10  O3'       27.1360   17.3120   27.1880 O.3   435  RPL435     -0.2175
     11  C2'       27.0050   16.6590   24.8400 C.3   435  RPL435      0.2402
     12  O2'       27.0320   18.0710   24.6620 O.3   435  RPL435     -0.2150
     13  C1'       28.4450   16.0750   24.7460 C.3   435  RPL435      0.2891
     14  N1        28.5530   15.4530   23.5410 N.2   435  RPL435     -0.1539
     15  C2        29.6160   15.9590   22.8240 C.1   435  RPL435      0.2196
     16  O2        29.9260   15.5830   21.7460 O.2   435  RPL435     -0.2059
     17  N3        30.2370   16.9470   23.5760 N.am  435  RPL435     -0.1824
     18  C4        29.5210   17.0280   24.7520 C.2   435  RPL435      0.2885
     19  O4        29.8460   17.8340   25.6210 O.2   435  RPL435     -0.2690
     20  C5A       31.4080   17.7670   23.2140 C.3   435  RPL435      0.1110
     21  C6A       31.1690   18.4570   21.8620 C.3   435  RPL435      0.0248
     22  C7A       30.0270   19.5020   21.9470 C.3   435  RPL435      0.0319
     23  C8A       29.5780   19.9160   20.5100 C.3   435  RPL435      0.1925
     24  C9A       28.2700   20.7080   20.5480 C.2   435  RPL435      0.3814
     25  OJA       27.9690   21.5230   19.5170 O.co2 435  RPL435     -0.2441
     26  OKA       27.4300   20.6180   21.5970 O.co2 435  RPL435     -0.2441
     27  NAA       30.5980   20.7990   19.8170 N.4   435  RPL435     -0.0908
     28  OAA       31.1570   21.7600   20.7650 O.3   435  RPL435     -0.1151
     29  CBA       31.6790   19.9990   19.2370 C.3   435  RPL435      0.2861
     30  OBA       32.3850   20.7200   18.2300 O.3   435  RPL435     -0.1982
@<TRIPOS>BOND
     1    30    29    1
     2    29    27    1
     3    25    24   ar
     4    27    23    1
     5    27    28    1
     6    23    24    1
     7    23    22    1
     8    24    26   ar
     9    16    15    2
    10    21    22    1
    11    21    20    1
    12     3     4    2
    13    15    14    2
    14    15    17   am
    15     2     4    1
    16    20    17    1
    17     4     1    1
    18     4     5    1
    19    14    13    1
    20    17    18   am
    21     5     6    1
    22    12    11    1
    23    13    18    1
    24    13    11    1
    25    13     8    1
    26    18    19    2
    27    11     9    1
    28     8     7    1
    29     6     7    1
    30     9     7    1
    31     9    10    1
