@<TRIPOS>MOLECULE
1qf6_AMP_A_1.pdb
 23 25 0 0 0
SMALL
GASTEIGER

@<TRIPOS>ATOM
      1  P         37.5290   72.3820   47.3700 P.3   1002  AMP1002     0.5327
      2  O1P       37.2950   70.9120   47.2740 O.3   1002  AMP1002    -0.1145
      3  O2P       37.1570   73.2610   46.2440 O.2   1002  AMP1002    -0.2224
      4  O3P       36.8110   72.8780   48.6940 O.3   1002  AMP1002    -0.1145
      5  O5'       39.0690   72.6590   47.6330 O.3   1002  AMP1002    -0.2675
      6  C5'       39.5780   74.0020   47.7020 C.3   1002  AMP1002     0.1860
      7  C4'       41.0880   73.9930   47.5500 C.3   1002  AMP1002     0.1823
      8  O4'       41.7210   73.3070   48.6750 O.3   1002  AMP1002    -0.3135
      9  C3'       41.5810   73.2420   46.3290 C.3   1002  AMP1002     0.2184
     10  O3'       41.4520   74.1220   45.2290 O.3   1002  AMP1002    -0.2174
     11  C2'       43.0020   72.8730   46.7330 C.3   1002  AMP1002     0.2570
     12  O2'       43.8810   73.9720   46.6840 O.3   1002  AMP1002    -0.2130
     13  C1'       42.8160   72.5320   48.2110 C.3   1002  AMP1002     0.3186
     14  N9        42.5330   71.1100   48.4660 N.pl3 1002  AMP1002    -0.1439
     15  C8        41.4100   70.3780   48.1530 C.3   1002  AMP1002     0.3377
     16  N7        41.4790   69.1210   48.5210 N.2   1002  AMP1002    -0.2095
     17  C5        42.7310   69.0160   49.1130 C.2   1002  AMP1002     0.2526
     18  C6        43.4160   67.9390   49.7090 C.2   1002  AMP1002     0.4393
     19  N6        42.9360   66.7110   49.8170 N.pl3 1002  AMP1002     0.2180
     20  N1        44.6360   68.1740   50.2010 N.2   1002  AMP1002     0.0021
     21  C2        45.1340   69.4100   50.1120 C.3   1002  AMP1002     0.5254
     22  N3        44.5970   70.5000   49.5820 N.2   1002  AMP1002    -0.0055
     23  C4        43.3830   70.2310   49.0890 C.2   1002  AMP1002     0.3518
@<TRIPOS>BOND
     1    10     9    1
     2     3     1    2
     3     9    11    1
     4     9     7    1
     5    12    11    1
     6    11    13    1
     7     2     1    1
     8     1     5    1
     9     1     4    1
    10     7     6    1
    11     7     8    1
    12     5     6    1
    13    15    14    1
    14    15    16    1
    15    13    14    1
    16    13     8    1
    17    14    23    1
    18    16    17    2
    19    23    17    1
    20    23    22    2
    21    17    18    1
    22    22    21    1
    23    18    19    1
    24    18    20    2
    25    21    20    1
