@<TRIPOS>MOLECULE
1qf7_HEM_A_1.pdb
 43 50 0 0 0
SMALL
GASTEIGER

@<TRIPOS>ATOM
      1  CHA        1.6200   -3.1180   20.8960 C.2   754  HEM754      0.0000
      2  CHB       -2.2140   -3.8690   23.6980 C.2   754  HEM754      0.0000
      3  CHC       -4.2190    0.2280   22.0000 C.2   754  HEM754      0.0000
      4  CHD       -0.6270    0.6000   18.7490 C.2   754  HEM754      0.0000
      5  C1A        0.7800   -3.6630   21.8370 C.2   754  HEM754      0.0000
      6  C2A        1.0730   -4.8100   22.6740 C.2   754  HEM754      0.0000
      7  C3A        0.0160   -5.0100   23.4680 C.2   754  HEM754      0.0000
      8  C4A       -0.9660   -3.9990   23.1390 C.2   754  HEM754      0.0000
      9  CMA       -0.1820   -6.1000   24.5270 C.3   754  HEM754      0.0000
     10  CAA        2.3950   -5.6150   22.6280 C.3   754  HEM754      0.0000
     11  CBA        2.3450   -6.9420   21.8100 C.3   754  HEM754      0.0000
     12  CGA        3.6560   -7.6770   21.9140 C.2   754  HEM754      0.0000
     13  O1A        3.9080   -8.1720   23.0270 O.co2 754  HEM754      0.0000
     14  O2A        4.3740   -7.6880   20.8850 O.co2 754  HEM754      0.0000
     15  C1B       -3.0990   -2.8350   23.4630 C.ar  754  HEM754      0.0000
     16  C2B       -4.3910   -2.7060   24.0690 C.ar  754  HEM754      0.0000
     17  C3B       -4.9290   -1.5680   23.6250 C.ar  754  HEM754      0.0000
     18  C4B       -3.9900   -0.9560   22.7170 C.ar  754  HEM754      0.0000
     19  CMB       -5.0090   -3.7670   25.0360 C.3   754  HEM754      0.0000
     20  CAB       -6.3000   -0.9580   23.9670 C.2   754  HEM754      0.0000
     21  CBB       -7.3010   -1.6340   24.4220 C.2   754  HEM754      0.0000
     22  C1C       -3.4600    0.6200   20.9240 C.2   754  HEM754      0.0000
     23  C2C       -3.7880    1.6860   20.0170 C.2   754  HEM754      0.0000
     24  C3C       -2.7970    1.7790   19.1110 C.2   754  HEM754      0.0000
     25  C4C       -1.8050    0.7700   19.4390 C.2   754  HEM754      0.0000
     26  CMC       -5.0880    2.5310   20.0920 C.3   754  HEM754      0.0000
     27  CAC       -2.6440    2.7500   17.9240 C.2   754  HEM754      0.0000
     28  CBC       -3.7870    3.1920   17.3440 C.2   754  HEM754      0.0000
     29  C1D        0.3100   -0.3700   19.0840 C.ar  754  HEM754      0.0000
     30  C2D        1.5590   -0.5820   18.3980 C.ar  754  HEM754      0.0000
     31  C3D        2.1850   -1.5880   19.0030 C.ar  754  HEM754      0.0000
     32  C4D        1.3260   -2.0700   20.0400 C.ar  754  HEM754      0.0000
     33  CMD        2.0230    0.2780   17.1790 C.3   754  HEM754      0.0000
     34  CAD        3.5570   -2.2380   18.6690 C.3   754  HEM754      0.0000
     35  CBD        3.3300   -3.5160   17.8370 C.3   754  HEM754      0.0000
     36  CGD        4.5480   -4.1030   17.1770 C.2   754  HEM754      0.0000
     37  O1D        5.6010   -3.4260   17.0410 O.co2 754  HEM754      0.0000
     38  O2D        4.4500   -5.2980   16.7660 O.co2 754  HEM754      0.0000
     39  NA        -0.4630   -3.1840   22.1330 N.2   754  HEM754      0.0000
     40  NB        -2.8820   -1.7760   22.6170 N.ar  754  HEM754      0.0000
     41  NC        -2.2270    0.0760   20.5570 N.2   754  HEM754      0.0000
     42  ND         0.1930   -1.2960   20.1000 N.ar  754  HEM754      0.0000
     43 FE         -1.4520   -1.7080   21.1730 Fe    754  HEM754      0.0000
@<TRIPOS>BOND
     1    38    36   ar
     2    37    36   ar
     3    36    35    1
     4    33    30    1
     5    28    27    2
     6    35    34    1
     7    27    24    1
     8    30    31   ar
     9    30    29   ar
    10    34    31    1
    11     4    29    2
    12     4    25    1
    13    31    32   ar
    14    29    42   ar
    15    24    25    1
    16    24    23    2
    17    25    41    2
    18    23    26    1
    19    23    22    1
    20    32    42   ar
    21    32     1    2
    22    42    43    1
    23    41    22    1
    24    41    43    1
    25    14    12   ar
    26     1     5    1
    27    22     3    2
    28    43    39    1
    29    43    40    1
    30    11    12    1
    31    11    10    1
    32     5    39    2
    33     5     6    1
    34    12    13   ar
    35     3    18    1
    36    39     8    1
    37    40    18   ar
    38    40    15   ar
    39    10     6    1
    40     6     7    2
    41    18    17   ar
    42     8     7    1
    43     8     2    2
    44    15     2    1
    45    15    16   ar
    46     7     9    1
    47    17    20    1
    48    17    16   ar
    49    20    21    2
    50    16    19    1
