@<TRIPOS>MOLECULE
1qf9_ADP_A_1.pdb
 27 29 0 0 0
SMALL
GASTEIGER

@<TRIPOS>ATOM
      1  PB        38.0670   65.1560  -11.7130 P.3   195  ADP195      0.5373
      2  O1B       38.4980   64.0930  -12.6160 O.2   195  ADP195     -0.2221
      3  O2B       39.1200   65.8880  -11.0410 O.3   195  ADP195     -0.1143
      4  O3B       37.1500   66.1560  -12.4900 O.3   195  ADP195     -0.1143
      5  PA        37.1090   64.4550   -9.0310 P.3   195  ADP195      0.2231
      6  O1A       38.3440   63.8160   -8.5840 O.2   195  ADP195     -0.5169
      7  O2A       36.7850   65.7670   -8.4840 O.3   195  ADP195     -0.4370
      8  O3A       37.1300   64.5580  -10.6100 O.3   195  ADP195     -0.2261
      9  O5'       35.9040   63.4670   -8.7920 O.3   195  ADP195     -0.3111
     10  C5'       34.5880   63.8300   -9.2000 C.3   195  ADP195      0.1813
     11  C4'       33.6360   63.3660   -8.1470 C.3   195  ADP195      0.1821
     12  O4'       33.5010   61.9310   -8.1430 O.3   195  ADP195     -0.3135
     13  C3'       33.9730   63.8120   -6.7290 C.3   195  ADP195      0.2184
     14  O3'       32.8120   64.1350   -6.0190 O.3   195  ADP195     -0.2174
     15  C2'       34.6540   62.5890   -6.1580 C.3   195  ADP195      0.2570
     16  O2'       34.5200   62.5210   -4.7570 O.3   195  ADP195     -0.2130
     17  C1'       33.9170   61.4500   -6.8410 C.3   195  ADP195      0.3186
     18  N9        34.7480   60.2790   -7.0180 N.pl3 195  ADP195     -0.1439
     19  C8        36.0760   60.2160   -7.3580 C.3   195  ADP195      0.3377
     20  N7        36.5100   59.0290   -7.6460 N.2   195  ADP195     -0.2095
     21  C5        35.4070   58.2460   -7.4360 C.2   195  ADP195      0.2526
     22  C6        35.2280   56.8300   -7.4790 C.2   195  ADP195      0.4393
     23  N6        36.2430   55.9360   -7.7070 N.pl3 195  ADP195      0.2180
     24  N1        33.9730   56.3600   -7.2370 N.2   195  ADP195      0.0021
     25  C2        32.9870   57.2440   -6.9270 C.3   195  ADP195      0.5254
     26  N3        33.1090   58.5660   -6.7230 N.2   195  ADP195     -0.0055
     27  C4        34.3420   59.0030   -7.0340 C.2   195  ADP195      0.3518
@<TRIPOS>BOND
     1     2     1    2
     2     4     1    1
     3     1     3    1
     4     1     8    1
     5     8     5    1
     6    10     9    1
     7    10    11    1
     8     5     9    1
     9     5     6    2
    10     5     7    1
    11    11    12    1
    12    11    13    1
    13    12    17    1
    14    23    22    1
    15    20    21    2
    16    20    19    1
    17    22    21    1
    18    22    24    2
    19    21    27    1
    20    19    18    1
    21    24    25    1
    22    27    18    1
    23    27    26    2
    24    18    17    1
    25    25    26    1
    26    17    15    1
    27    13    15    1
    28    13    14    1
    29    15    16    1
