@<TRIPOS>MOLECULE
1qf9_C5P_A_1.pdb
 21 22 0 0 0
SMALL
GASTEIGER

@<TRIPOS>ATOM
      1  O3P       37.6230   69.7550  -14.2540 O.3   196  C5P196     -0.1145
      2  P         38.7120   70.7400  -14.1850 P.3   196  C5P196      0.5327
      3  O1P       38.8480   71.4870  -12.9300 O.3   196  C5P196     -0.1145
      4  O2P       40.0550   70.0380  -14.5260 O.2   196  C5P196     -0.2224
      5  O5'       38.5070   71.7890  -15.3550 O.3   196  C5P196     -0.2675
      6  C5'       37.4000   72.7200  -15.2690 C.3   196  C5P196      0.1859
      7  C4'       37.3990   73.5670  -16.5080 C.3   196  C5P196      0.1801
      8  O4'       38.5730   74.4170  -16.4980 O.3   196  C5P196     -0.3320
      9  C3'       37.4560   72.8290  -17.8230 C.3   196  C5P196      0.2158
     10  O3'       36.2340   72.2610  -18.1640 O.3   196  C5P196     -0.2175
     11  C2'       37.8530   73.9490  -18.7490 C.3   196  C5P196      0.2319
     12  O2'       36.7890   74.8220  -19.0030 O.3   196  C5P196     -0.2157
     13  C1'       38.9570   74.6230  -17.8980 C.3   196  C5P196      0.2400
     14  N1        40.2350   74.0420  -18.2020 N.am  196  C5P196     -0.1778
     15  C2        40.9980   74.5870  -19.2590 C.1   196  C5P196      0.2756
     16  N3        42.2370   74.1390  -19.5690 N.2   196  C5P196     -0.3024
     17  C4        42.7990   73.0910  -18.9050 C.2   196  C5P196      0.2346
     18  C5        42.1290   72.6340  -17.8030 C.2   196  C5P196      0.0687
     19  C6        40.9550   73.0780  -17.3900 C.2   196  C5P196      0.0836
     20  O2        40.4530   75.5680  -19.9990 O.2   196  C5P196     -0.1925
     21  N4        43.9870   72.5870  -19.3190 N.pl3 196  C5P196     -0.0921
@<TRIPOS>BOND
     1    20    15    2
     2    16    15    2
     3    16    17    2
     4    21    17    1
     5    15    14   am
     6    12    11    1
     7    17    18    1
     8    11    13    1
     9    11     9    1
    10    14    13    1
    11    14    19    1
    12    10     9    1
    13    13     8    1
    14     9     7    1
    15    18    19    2
    16     7     8    1
    17     7     6    1
    18     5     6    1
    19     5     2    1
    20     4     2    2
    21     1     2    1
    22     2     3    1
