@<TRIPOS>MOLECULE
1qfe_DHS_A_1.pdb
 11 11 0 0 0
SMALL
GASTEIGER

@<TRIPOS>ATOM
      1  C1         5.9020   23.0130   47.2300 C.3   301  DHS301      0.1061
      2  C3         6.0210   24.6100   49.1190 C.3   301  DHS301      0.0361
      3  C4         6.5850   23.4760   49.9910 C.3   301  DHS301      0.1821
      4  C5         6.2680   22.0720   49.5000 C.3   301  DHS301      0.1827
      5  C6         6.6640   21.9610   48.0400 C.3   301  DHS301      0.0468
      6  C7         5.8850   22.8150   45.7260 C.2   301  DHS301      0.3644
      7  C2         5.5930   24.1860   47.7510 C.3   301  DHS301      0.0140
      8  O2         6.4850   23.6650   51.3990 O.3   301  DHS301     -0.2204
      9  O3         7.0130   21.1160   50.2620 O.3   301  DHS301     -0.2204
     10  O4         4.9970   23.3700   45.0540 O.co2 301  DHS301     -0.2457
     11  O5         6.7940   22.1310   45.2100 O.co2 301  DHS301     -0.2457
@<TRIPOS>BOND
     1    10     6   ar
     2    11     6   ar
     3     6     1    1
     4     1     7    1
     5     1     5    1
     6     7     2    1
     7     5     4    1
     8     2     3    1
     9     4     3    1
    10     4     9    1
    11     3     8    1
