@<TRIPOS>MOLECULE
1qff_PA1_A_1.pdb
 11 11 0 0 0
SMALL
GASTEIGER

@<TRIPOS>ATOM
      1  C1        54.4790   73.6070   59.7050 C.3   1000  PA11000     0.2867
      2  O1        53.9490   72.9920   60.8360 O.3   1000  PA11000    -0.1883
      3  C2        53.5320   74.6950   59.1640 C.3   1000  PA11000     0.1535
      4  N2        53.0850   75.5840   60.2250 N.3   1000  PA11000    -0.1274
      5  C3        52.3100   74.0450   58.5230 C.3   1000  PA11000     0.0598
      6  C4        52.7310   73.0390   57.4670 C.3   1000  PA11000     0.1832
      7  O4        51.5770   72.4000   56.9360 O.3   1000  PA11000    -0.2204
      8  C5        53.6630   71.9890   58.0740 C.3   1000  PA11000     0.1809
      9  O5        54.8080   72.6200   58.6990 O.3   1000  PA11000    -0.3246
     10  C6        54.2080   71.0110   57.0300 C.3   1000  PA11000     0.2141
     11  O6        53.7510   71.3630   55.6990 O.3   1000  PA11000    -0.2176
@<TRIPOS>BOND
     1    11    10    1
     2     7     6    1
     3    10     8    1
     4     6     8    1
     5     6     5    1
     6     8     9    1
     7     5     3    1
     8     9     1    1
     9     3     1    1
    10     3     4    1
    11     1     2    1
