@<TRIPOS>MOLECULE
1qfk_0Z6_H_1.pdb
 34 35 0 0 0
SMALL
GASTEIGER

@<TRIPOS>ATOM
      1  N         98.8450   63.6250    9.2500 N.3     1  0Z61       -0.1227
      2  CA        98.9710   64.9540    8.5990 C.3     1  0Z61        0.1736
      3  C         99.4070   66.1750    9.4220 C.2     1  0Z61        0.2595
      4  O        100.4450   66.0920   10.0440 O.2     1  0Z61       -0.2718
      5  CB        99.9180   65.0390    7.3950 C.3     1  0Z61        0.0547
      6  CG        99.6160   64.0120    6.3600 C.ar    1  0Z61       -0.0202
      7  CD1       98.5390   64.1290    5.5140 C.ar    1  0Z61       -0.0042
      8  CD2      100.4620   62.9060    6.2540 C.ar    1  0Z61       -0.0042
      9  CE1       98.2850   63.1510    4.5650 C.ar    1  0Z61       -0.0003
     10  CE2      100.2210   61.9280    5.3040 C.ar    1  0Z61       -0.0003
     11  CZ        99.1250   62.0580    4.4640 C.ar    1  0Z61       -0.0000
     12  N1        98.6690   67.2640    9.3310 N.am    1  0Z61       -0.1962
     13  CA1       99.0010   68.5000    9.9830 C.3     1  0Z61        0.1771
     14  C1        99.0780   68.5010   11.5010 C.2     1  0Z61        0.2616
     15  O1        98.2240   67.8820   12.1180 O.2     1  0Z61       -0.2715
     16  CB1       97.9560   69.5550    9.5690 C.3     1  0Z61        0.0574
     17  CG1       98.2700   70.4220    8.4120 C.ar    1  0Z61       -0.0200
     18 CD11       99.5870   70.8380    8.2540 C.ar    1  0Z61       -0.0042
     19 CD21       97.3630   70.8790    7.4900 C.ar    1  0Z61       -0.0042
     20 CE11       99.9790   71.6750    7.2160 C.ar    1  0Z61       -0.0003
     21 CE21       97.7290   71.7120    6.4380 C.ar    1  0Z61       -0.0003
     22  CZ1       99.0470   72.1200    6.2990 C.ar    1  0Z61       -0.0000
     23  N2       100.0420   69.1930   12.1220 N.am    1  0Z61       -0.2031
     24  CA2      100.0510   69.2400   13.5990 C.3     1  0Z61        0.1257
     25  C2        99.3820   70.4690   14.1890 C.3     1  0Z61        0.1718
     26  O2        99.3660   70.6440   15.4720 O.3     1  0Z61       -0.2213
     27  CB2      101.3420   68.6010   14.0580 C.3     1  0Z61        0.0280
     28  CG2      101.5200   67.1670   13.6240 C.3     1  0Z61        0.0488
     29  CD       102.9710   66.7790   13.4890 C.3     1  0Z61        0.2205
     30  NE       103.1640   65.3760   13.2460 N.pl3   1  0Z61       -0.0865
     31  CZ2      104.2810   64.6810   13.4870 C.cat   1  0Z61        0.5346
     32  NH1      105.3210   65.3530   13.9940 N.pl3   1  0Z61        0.1354
     33  NH2      104.3870   63.3760   13.2590 N.pl3   1  0Z61        0.1354
     34  C3        98.6460   71.5960   13.2720 C.3     1  0Z61        0.0373
@<TRIPOS>BOND
     1    11     9   ar
     2    11    10   ar
     3     9     7   ar
     4    10     8   ar
     5     7     6   ar
     6     8     6   ar
     7    22    21   ar
     8    22    20   ar
     9     6     5    1
    10    21    19   ar
    11    20    18   ar
    12     5     2    1
    13    19    17   ar
    14    18    17   ar
    15    17    16    1
    16     2     1    1
    17     2     3    1
    18    12     3   am
    19    12    13    1
    20     3     4    2
    21    16    13    1
    22    13    14    1
    23    14    15    2
    24    14    23   am
    25    23    24    1
    26    30    31    2
    27    30    29    1
    28    33    31    1
    29    34    25    1
    30    31    32    1
    31    29    28    1
    32    24    27    1
    33    24    25    1
    34    28    27    1
    35    25    26    1
