@<TRIPOS>MOLECULE
1qfk_GLC_L_1.pdb
 11 11 0 0 0
SMALL
GASTEIGER

@<TRIPOS>ATOM
      1  C1       164.8240   80.3880    1.9310 C.3   153  GLC153      0.1777
      2  C2       164.1320   80.4200    3.2610 C.3   153  GLC153      0.2141
      3  C3       163.5240   81.7940    3.4930 C.3   153  GLC153      0.2173
      4  C4       164.5260   82.7940    2.9070 C.3   153  GLC153      0.2142
      5  C5       164.4670   82.6830    1.3930 C.3   153  GLC153      0.1810
      6  C6       165.6490   83.2270    0.6600 C.3   153  GLC153      0.2141
      7  O2       163.2780   79.3360    3.5320 O.3   153  GLC153     -0.2176
      8  O3       163.3710   82.0530    4.8850 O.3   153  GLC153     -0.2175
      9  O4       164.2500   84.0910    3.3460 O.3   153  GLC153     -0.2176
     10  O5       164.2400   81.3150    1.0050 O.3   153  GLC153     -0.3481
     11  O6       165.4800   84.6310    0.3960 O.3   153  GLC153     -0.2176
@<TRIPOS>BOND
     1    11     6    1
     2     6     5    1
     3    10     5    1
     4    10     1    1
     5     5     4    1
     6     1     2    1
     7     4     9    1
     8     4     3    1
     9     2     3    1
    10     2     7    1
    11     3     8    1
