@<TRIPOS>MOLECULE
1qfl_COA_A_1.pdb
 48 50 0 0 0
SMALL
GASTEIGER

@<TRIPOS>ATOM
      1  N1A       36.5290  -28.2190   21.1480 N.2   393  COA393      0.0021
      2  C2A       36.5710  -28.2240   22.5280 C.3   393  COA393      0.5254
      3  N3A       35.9640  -27.3620   23.3870 N.2   393  COA393     -0.0055
      4  C4A       35.3180  -26.4050   22.7450 C.2   393  COA393      0.3518
      5  C5A       35.2040  -26.2210   21.3390 C.2   393  COA393      0.2526
      6  C6A       35.8600  -27.2170   20.4660 C.2   393  COA393      0.4393
      7  N6A       35.7990  -27.0910   19.1840 N.pl3 393  COA393      0.2180
      8  N7A       34.4880  -25.1230   21.0270 N.2   393  COA393     -0.2095
      9  C8A       34.1400  -24.5690   22.2100 C.3   393  COA393      0.3377
     10  N9A       34.6170  -25.3210   23.2790 N.pl3 393  COA393     -0.1439
     11  C1B       34.4690  -25.0000   24.7250 C.3   393  COA393      0.3185
     12  C2B       34.8200  -23.5530   24.9950 C.3   393  COA393      0.2543
     13  O2B       36.2180  -23.4660   25.1640 O.3   393  COA393     -0.2131
     14  C3B       34.1520  -23.3640   26.3840 C.3   393  COA393      0.1928
     15  O3B       34.8150  -24.0870   27.3360 O.3   393  COA393     -0.2673
     16  P3B       34.9020  -23.3240   28.8230 P.3   393  COA393      0.5327
     17  O7A       35.8680  -22.0490   28.6210 O.2   393  COA393     -0.2224
     18  O8A       33.5250  -22.7160   29.3240 O.3   393  COA393     -0.1145
     19  O9A       35.6060  -24.3720   29.7850 O.3   393  COA393     -0.1145
     20  C4B       32.7690  -23.9360   25.9440 C.3   393  COA393      0.1795
     21  O4B       33.1050  -25.1540   25.1370 O.3   393  COA393     -0.3136
     22  C5B       32.2930  -23.1030   24.7410 C.3   393  COA393      0.1812
     23  O5B       31.5300  -22.1350   25.4450 O.3   393  COA393     -0.3112
     24  P1A       31.7210  -20.5870   25.0980 P.3   393  COA393      0.2189
     25  O1A       32.0260  -19.9060   26.4020 O.3   393  COA393     -0.4371
     26  O2A       32.6270  -20.2790   23.9380 O.2   393  COA393     -0.5170
     27  O3A       30.3330  -20.2080   24.7330 O.3   393  COA393     -0.2703
     28  P2A       28.9410  -19.6990   25.4280 P.3   393  COA393      0.2188
     29  O4A       28.1520  -20.8280   25.9870 O.2   393  COA393     -0.5170
     30  O5A       29.1050  -18.5360   26.3050 O.3   393  COA393     -0.4371
     31  O6A       28.3300  -19.3640   23.8760 O.3   393  COA393     -0.3138
     32  CBP       27.2040  -20.1930   22.0080 C.3   393  COA393      0.0645
     33  CCP       28.3500  -20.5330   23.0250 C.3   393  COA393      0.1519
     34  CDP       25.9010  -19.9310   22.8620 C.3   393  COA393      0.0056
     35  CEP       27.1020  -21.3860   21.0910 C.3   393  COA393      0.0056
     36  CAP       27.7000  -18.8930   21.2940 C.3   393  COA393      0.2312
     37  OAP       29.0860  -18.9330   20.8020 O.3   393  COA393     -0.2131
     38  C9P       26.8460  -18.5750   20.0790 C.2   393  COA393      0.2719
     39  O9P       25.6100  -18.0970   20.3750 O.2   393  COA393     -0.2706
     40  N8P       27.2730  -18.6640   18.8420 N.am  393  COA393     -0.2028
     41  C7P       26.2830  -18.2240   17.9140 C.3   393  COA393      0.1248
     42  C6P       26.4940  -17.7920   16.5650 C.3   393  COA393      0.1102
     43  C5P       25.2010  -17.2910   15.9130 C.2   393  COA393      0.2432
     44  O5P       24.0320  -17.7000   16.2220 O.2   393  COA393     -0.2733
     45  N4P       25.4860  -16.3370   15.0600 N.am  393  COA393     -0.2044
     46  C3P       24.4660  -15.7140   14.1060 C.3   393  COA393      0.1276
     47  C2P       24.4010  -17.0510   13.2850 C.3   393  COA393      0.0920
     48  S1P       22.8050  -17.1520   12.4350 S.3   393  COA393     -0.0802
@<TRIPOS>BOND
     1    48    47    1
     2    47    46    1
     3    46    45    1
     4    45    43   am
     5    43    44    2
     6    43    42    1
     7    42    41    1
     8    41    40    1
     9    40    38   am
    10     7     6    1
    11    38    39    2
    12    38    36    1
    13     6     1    2
    14     6     5    1
    15    37    36    1
    16     8     5    2
    17     8     9    1
    18    35    32    1
    19     1     2    1
    20    36    32    1
    21     5     4    1
    22    32    34    1
    23    32    33    1
    24     9    10    1
    25     2     3    1
    26     4    10    1
    27     4     3    2
    28    33    31    1
    29    10    11    1
    30    31    28    1
    31    26    24    2
    32    11    12    1
    33    11    21    1
    34    27    24    1
    35    27    28    1
    36    22    23    1
    37    22    20    1
    38    12    13    1
    39    12    14    1
    40    24    23    1
    41    24    25    1
    42    21    20    1
    43    28    29    2
    44    28    30    1
    45    20    14    1
    46    14    15    1
    47    15    16    1
    48    17    16    2
    49    16    18    1
    50    16    19    1
