@<TRIPOS>MOLECULE
1qfo_SIA_A_1.pdb
 20 20 0 0 0
SMALL
GASTEIGER

@<TRIPOS>ATOM
      1  C1        32.1600   46.0880   46.2370 C.2   201  SIA201      0.3914
      2  C2        33.4830   45.3990   46.5510 C.3   201  SIA201      0.2203
      3  C3        33.7750   44.3120   45.5010 C.3   201  SIA201      0.0760
      4  C4        34.1020   44.9060   44.1260 C.3   201  SIA201      0.1773
      5  C5        35.1610   46.0080   44.2420 C.3   201  SIA201      0.1552
      6  C6        34.6830   47.0430   45.2800 C.3   201  SIA201      0.1710
      7  C7        35.6180   48.2390   45.4470 C.3   201  SIA201      0.2134
      8  C8        35.0460   49.1900   46.5050 C.3   201  SIA201      0.2173
      9  C9        35.8650   50.4740   46.5730 C.3   201  SIA201      0.2175
     10  C10       36.5580   46.6050   42.3690 C.2   201  SIA201      0.2420
     11  C11       36.6880   47.2650   41.0040 C.3   201  SIA201      0.0964
     12  N5        35.3580   46.6240   42.9430 N.am  201  SIA201     -0.2020
     13  O1A       31.2230   45.4080   45.7680 O.co2 201  SIA201     -0.2430
     14  O1B       32.0500   47.3090   46.4760 O.co2 201  SIA201     -0.2430
     15  O4        34.5760   43.8770   43.2670 O.3   201  SIA201     -0.2211
     16  O6        34.5140   46.3970   46.5580 O.3   201  SIA201     -0.3429
     17  O7        36.8970   47.7910   45.8710 O.3   201  SIA201     -0.2176
     18  O8        33.6930   49.4930   46.1950 O.3   201  SIA201     -0.2175
     19  O9        35.3210   51.3390   47.5580 O.3   201  SIA201     -0.2175
     20  O10       37.5460   46.0870   42.8940 O.2   201  SIA201     -0.2733
@<TRIPOS>BOND
     1    11    10    1
     2    10    20    2
     3    10    12   am
     4    12     5    1
     5    15     4    1
     6     4     5    1
     7     4     3    1
     8     5     6    1
     9     6     7    1
    10     6    16    1
    11     7    17    1
    12     7     8    1
    13     3     2    1
    14    13     1   ar
    15    18     8    1
    16     1    14   ar
    17     1     2    1
    18     8     9    1
    19     2    16    1
    20     9    19    1
