@<TRIPOS>MOLECULE
1qfs_ZPR_A_1.pdb
 24 26 0 0 0
SMALL
GASTEIGER

@<TRIPOS>ATOM
      1  C1        36.9220   39.1260   81.6880 C.3   791  ZPR791      0.2017
      2  O2        36.0150   38.0390   81.8940 O.3   791  ZPR791     -0.2186
      3  C3        38.3490   38.5950   81.3850 C.3   791  ZPR791      0.1083
      4  C4        38.3820   37.7120   80.1390 C.3   791  ZPR791      0.0243
      5  C5        38.1310   36.3520   80.6530 C.3   791  ZPR791      0.0233
      6  C6        38.7470   36.2860   82.0210 C.3   791  ZPR791      0.0935
      7  N7        38.8170   37.6980   82.4380 N.am  791  ZPR791     -0.2772
      8  C8        39.3320   38.1410   83.6000 C.2   791  ZPR791      0.2439
      9  O9        39.4640   39.3500   83.8480 O.2   791  ZPR791     -0.2731
     10  C10       39.7710   37.0770   84.6100 C.3   791  ZPR791      0.1550
     11  C11       38.5890   36.5870   85.4390 C.3   791  ZPR791      0.0311
     12  C12       38.4670   37.6620   86.4660 C.3   791  ZPR791      0.0238
     13  C13       39.9070   37.9120   86.8750 C.3   791  ZPR791      0.0972
     14  N14       40.6530   37.6370   85.6310 N.am  791  ZPR791     -0.2392
     15  C15       41.9670   37.8030   85.4520 C.2   791  ZPR791      0.4055
     16  O16       42.5230   37.5020   84.3900 O.2   791  ZPR791     -0.2262
     17  O17       42.6280   38.2980   86.4770 O.3   791  ZPR791     -0.4295
     18  C18       44.0200   38.4530   86.2780 C.3   791  ZPR791      0.2367
     19  C19       44.7380   37.3730   87.0350 C.ar  791  ZPR791      0.0213
     20  C20       44.9510   36.1250   86.4560 C.ar  791  ZPR791     -0.0007
     21  C21       45.6010   35.1180   87.1560 C.ar  791  ZPR791     -0.0002
     22  C22       46.0480   35.3550   88.4520 C.ar  791  ZPR791     -0.0000
     23  C23       45.8400   36.6010   89.0380 C.ar  791  ZPR791     -0.0002
     24  C24       45.1910   37.5990   88.3290 C.ar  791  ZPR791     -0.0007
@<TRIPOS>BOND
     1     4     5    1
     2     4     3    1
     3     5     6    1
     4     3     1    1
     5     3     7    1
     6     1     2    1
     7     6     7    1
     8     7     8   am
     9     8     9    2
    10     8    10    1
    11    16    15    2
    12    10    11    1
    13    10    14    1
    14    11    12    1
    15    15    14   am
    16    15    17    1
    17    14    13    1
    18    18    17    1
    19    18    19    1
    20    20    19   ar
    21    20    21   ar
    22    12    13    1
    23    19    24   ar
    24    21    22   ar
    25    24    23   ar
    26    22    23   ar
