@<TRIPOS>MOLECULE
1qfy_NAP_A_1.pdb
 48 52 0 0 0
SMALL
GASTEIGER

@<TRIPOS>ATOM
      1  PA         8.9150    3.7420   -6.6900 P.3   310  NAP310      0.2189
      2  O1A        9.0220    4.9150   -7.6130 O.2   310  NAP310     -0.5170
      3  O2A        9.8150    3.5350   -5.4820 O.3   310  NAP310     -0.4371
      4  O5B        8.8920    2.2970   -7.3650 O.3   310  NAP310     -0.3112
      5  C5B        8.1080    1.2640   -6.8710 C.3   310  NAP310      0.1813
      6  C4B        8.5050    0.0500   -7.6330 C.3   310  NAP310      0.1820
      7  O4B        7.3800   -0.3740   -8.5370 O.3   310  NAP310     -0.3136
      8  C3B        9.7040    0.2740   -8.5420 C.3   310  NAP310      0.2157
      9  O3B       10.5650   -0.8470   -8.4500 O.3   310  NAP310     -0.2175
     10  C2B        9.1600    0.3780   -9.9230 C.3   310  NAP310      0.2314
     11  O2B       10.1330   -0.1380  -10.8710 O.3   310  NAP310     -0.2630
     12  C1B        7.9620   -0.4620   -9.8700 C.3   310  NAP310      0.3158
     13  N9A        7.0170   -0.1380  -10.9310 N.pl3 310  NAP310     -0.1439
     14  C8A        6.9470    0.9640  -11.7200 C.3   310  NAP310      0.3377
     15  N7A        5.9110    0.8470  -12.5940 N.2   310  NAP310     -0.2095
     16  C5A        5.3560   -0.3260  -12.3100 C.2   310  NAP310      0.2526
     17  C6A        4.2840   -0.9420  -12.9190 C.2   310  NAP310      0.4393
     18  N6A        3.6250   -0.3710  -13.9180 N.pl3 310  NAP310      0.2180
     19  N1A        3.9060   -2.1500  -12.4360 N.2   310  NAP310      0.0021
     20  C2A        4.5790   -2.7280  -11.4310 C.3   310  NAP310      0.5254
     21  N3A        5.6220   -2.1310  -10.8680 N.2   310  NAP310     -0.0055
     22  C4A        6.0300   -0.9480  -11.2860 C.2   310  NAP310      0.3518
     23  O3         7.6410    3.9440   -5.5560 O.3   310  NAP310     -0.2703
     24  PN         7.3280    5.1830   -4.5810 P.3   310  NAP310      0.2189
     25  O1N        8.1050    6.3780   -4.9880 O.2   310  NAP310     -0.5170
     26  O2N        7.3930    4.7180   -3.1950 O.3   310  NAP310     -0.4371
     27  O5D        5.8170    5.3470   -5.0730 O.3   310  NAP310     -0.3112
     28  C5D        4.7220    4.7900   -4.3430 C.3   310  NAP310      0.1813
     29  C4D        3.5180    5.3560   -5.0120 C.3   310  NAP310      0.1799
     30  O4D        2.2680    4.7780   -4.6020 O.3   310  NAP310     -0.3327
     31  C3D        3.4380    6.8520   -4.7980 C.3   310  NAP310      0.2158
     32  O3D        3.1520    7.4480   -6.0620 O.3   310  NAP310     -0.2175
     33  C2D        2.3030    7.0630   -3.8750 C.3   310  NAP310      0.2309
     34  O2D        1.5710    8.2070   -4.2590 O.3   310  NAP310     -0.2158
     35  C1D        1.4850    5.8120   -3.9850 C.3   310  NAP310      0.2263
     36  N1N        0.8960    5.3950   -2.7090 N.pl3 310  NAP310     -0.2787
     37  C2N       -0.4810    5.4020   -2.6690 C.3   310  NAP310      0.1244
     38  C3N       -1.1610    5.0360   -1.5400 C.2   310  NAP310      0.0544
     39  C7N       -2.6230    5.0670   -1.5760 C.2   310  NAP310      0.2818
     40  O7N       -3.2220    5.4220   -2.5980 O.2   310  NAP310     -0.2670
     41  N7N       -3.2240    4.6960   -0.4560 N.am  310  NAP310     -0.0839
     42  C4N       -0.4360    4.6380   -0.3930 C.2   310  NAP310      0.0033
     43  C5N        0.9850    4.6280   -0.4270 C.2   310  NAP310      0.0157
     44  C6N        1.6520    5.0090   -1.6010 C.2   310  NAP310      0.0633
     45  P2B       11.1480    0.8340  -11.6550 P.3   310  NAP310      0.5328
     46  O1X       11.5190    1.9370  -10.8000 O.3   310  NAP310     -0.1145
     47  O2X       12.3620    0.0840  -12.0450 O.3   310  NAP310     -0.1145
     48  O3X       10.4660    1.3230  -12.8580 O.2   310  NAP310     -0.2224
@<TRIPOS>BOND
     1    18    17    1
     2    17    19    2
     3    17    16    1
     4    48    45    2
     5    15    16    2
     6    15    14    1
     7    19    20    1
     8    16    22    1
     9    47    45    1
    10    14    13    1
    11    45    11    1
    12    45    46    1
    13    20    21    1
    14    22    13    1
    15    22    21    2
    16    13    12    1
    17    11    10    1
    18    10    12    1
    19    10     8    1
    20    12     7    1
    21     8     9    1
    22     8     6    1
    23     7     6    1
    24     6     5    1
    25     2     1    2
    26     4     5    1
    27     4     1    1
    28     1    23    1
    29     1     3    1
    30    32    31    1
    31    23    24    1
    32    27    24    1
    33    27    28    1
    34    29    31    1
    35    29    30    1
    36    29    28    1
    37    25    24    2
    38    31    33    1
    39    30    35    1
    40    24    26    1
    41    34    33    1
    42    35    33    1
    43    35    36    1
    44    36    37    1
    45    36    44    1
    46    37    38    1
    47    40    39    2
    48    44    43    2
    49    39    38    1
    50    39    41   am
    51    38    42    2
    52    43    42    1
