@<TRIPOS>MOLECULE
1qfz_NDP_A_1.pdb
 48 52 0 0 0
SMALL
GASTEIGER

@<TRIPOS>ATOM
      1  PA         8.6380    3.9210   -6.7550 P.3   310  NDP310      0.2189
      2  O1A        8.7100    4.9810   -7.7970 O.2   310  NDP310     -0.5170
      3  O2A        9.8580    3.8270   -5.9050 O.3   310  NDP310     -0.4371
      4  O5B        8.6860    2.5060   -7.3590 O.3   310  NDP310     -0.3112
      5  C5B        8.0110    1.4420   -6.7440 C.3   310  NDP310      0.1813
      6  C4B        8.4010    0.1940   -7.4530 C.3   310  NDP310      0.1820
      7  O4B        7.2760   -0.1670   -8.3350 O.3   310  NDP310     -0.3136
      8  C3B        9.5650    0.3760   -8.4030 C.3   310  NDP310      0.2157
      9  O3B       10.3350   -0.8300   -8.3070 O.3   310  NDP310     -0.2175
     10  C2B        9.0050    0.5330   -9.7660 C.3   310  NDP310      0.2314
     11  O2B        9.9330    0.0210  -10.7220 O.3   310  NDP310     -0.2630
     12  C1B        7.7900   -0.2690   -9.6940 C.3   310  NDP310      0.3158
     13  N9A        6.8310    0.1400  -10.7290 N.pl3 310  NDP310     -0.1439
     14  C8A        6.7760    1.3090  -11.4220 C.3   310  NDP310      0.3377
     15  N7A        5.7310    1.2530  -12.2810 N.2   310  NDP310     -0.2095
     16  C5A        5.1770    0.0690  -12.0960 C.2   310  NDP310      0.2526
     17  C6A        4.0860   -0.4730  -12.7350 C.2   310  NDP310      0.4393
     18  N6A        3.4270    0.2010  -13.6670 N.pl3 310  NDP310      0.2180
     19  N1A        3.7010   -1.7150  -12.3730 N.2   310  NDP310      0.0021
     20  C2A        4.3750   -2.3990  -11.4240 C.3   310  NDP310      0.5254
     21  N3A        5.4400   -1.8650  -10.8100 N.2   310  NDP310     -0.0055
     22  C4A        5.8480   -0.6250  -11.1420 C.2   310  NDP310      0.3518
     23  O3         7.5430    4.0600   -5.4930 O.3   310  NDP310     -0.2703
     24  PN         7.3020    5.3040   -4.4680 P.3   310  NDP310      0.2189
     25  O1N        8.1310    6.4680   -4.7980 O.2   310  NDP310     -0.5170
     26  O2N        7.3790    4.7030   -3.1330 O.3   310  NDP310     -0.4371
     27  O5D        5.8070    5.5640   -4.8900 O.3   310  NDP310     -0.3112
     28  C5D        4.8710    5.9230   -3.9100 C.3   310  NDP310      0.1813
     29  C4D        3.6510    6.4210   -4.6130 C.3   310  NDP310      0.1799
     30  O4D        2.6210    5.4180   -4.5280 O.3   310  NDP310     -0.3327
     31  C3D        3.1200    7.6700   -3.9360 C.3   310  NDP310      0.2158
     32  O3D        3.6360    8.8440   -4.5590 O.3   310  NDP310     -0.2175
     33  C2D        1.6480    7.5750   -4.0820 C.3   310  NDP310      0.2309
     34  O2D        1.2530    8.2920   -5.2690 O.3   310  NDP310     -0.2158
     35  C1D        1.3700    6.0920   -4.2250 C.3   310  NDP310      0.2263
     36  N1N        0.8470    5.6350   -2.9140 N.pl3 310  NDP310     -0.2787
     37  C2N       -0.5260    5.5820   -2.7850 C.3   310  NDP310      0.1244
     38  C3N       -1.0930    5.1720   -1.6040 C.2   310  NDP310      0.0544
     39  C7N       -2.6010    5.1420   -1.5060 C.2   310  NDP310      0.2818
     40  O7N       -3.2800    5.4880   -2.4710 O.2   310  NDP310     -0.2670
     41  N7N       -3.0880    4.7400   -0.3350 N.am  310  NDP310     -0.0839
     42  C4N       -0.2590    4.7980   -0.5260 C.2   310  NDP310      0.0033
     43  C5N        1.1390    4.8490   -0.6620 C.2   310  NDP310      0.0157
     44  C6N        1.6960    5.2680   -1.8590 C.2   310  NDP310      0.0633
     45  P2B       10.9870    0.9990  -11.4760 P.3   310  NDP310      0.5328
     46  O1X       11.3390    2.1240  -10.6190 O.3   310  NDP310     -0.1145
     47  O2X       12.2050    0.2540  -11.8040 O.3   310  NDP310     -0.1145
     48  O3X       10.3360    1.4800  -12.7080 O.2   310  NDP310     -0.2224
@<TRIPOS>BOND
     1    18    17    1
     2    17    19    2
     3    17    16    1
     4    48    45    2
     5    19    20    1
     6    15    16    2
     7    15    14    1
     8    16    22    1
     9    47    45    1
    10    45    11    1
    11    45    46    1
    12    20    21    1
    13    14    13    1
    14    22    21    2
    15    22    13    1
    16    13    12    1
    17    11    10    1
    18    10    12    1
    19    10     8    1
    20    12     7    1
    21     8     9    1
    22     8     6    1
    23     7     6    1
    24     2     1    2
    25     6     5    1
    26     4     1    1
    27     4     5    1
    28     1     3    1
    29     1    23    1
    30    23    24    1
    31    34    33    1
    32    27    24    1
    33    27    28    1
    34    25    24    2
    35    29    30    1
    36    29    31    1
    37    29    28    1
    38    32    31    1
    39    30    35    1
    40    24    26    1
    41    35    33    1
    42    35    36    1
    43    33    31    1
    44    36    37    1
    45    36    44    1
    46    37    38    1
    47    40    39    2
    48    44    43    2
    49    38    39    1
    50    38    42    2
    51    39    41   am
    52    43    42    1
