@<TRIPOS>MOLECULE
1qg2_GDP_A_1.pdb
 28 30 0 0 0
SMALL
GASTEIGER

@<TRIPOS>ATOM
      1  PB        32.1760   56.8050   10.4190 P.3   220  GDP220      0.5373
      2  O1B       33.1370   56.4780   11.5310 O.3   220  GDP220     -0.1143
      3  O2B       32.7150   56.2510    9.1520 O.2   220  GDP220     -0.2221
      4  O3B       30.9190   56.0880   10.6800 O.3   220  GDP220     -0.1143
      5  O3A       31.9460   58.3960   10.3840 O.3   220  GDP220     -0.2261
      6  PA        32.6430   59.7640   10.3250 P.3   220  GDP220      0.2231
      7  O1A       32.6400   60.3000   11.7360 O.3   220  GDP220     -0.4370
      8  O2A       33.9740   59.5790    9.7390 O.2   220  GDP220     -0.5169
      9  O5'       31.6530   60.6960    9.5170 O.3   220  GDP220     -0.3111
     10  C5'       31.2680   60.5080    8.1820 C.3   220  GDP220      0.1813
     11  C4'       30.8190   61.8060    7.5310 C.3   220  GDP220      0.1799
     12  O4'       29.5420   62.1600    8.1840 O.3   220  GDP220     -0.3326
     13  C3'       31.6780   63.0540    7.6570 C.3   220  GDP220      0.2158
     14  O3'       31.4230   63.9640    6.5770 O.3   220  GDP220     -0.2175
     15  C2'       31.0840   63.6880    8.9170 C.3   220  GDP220      0.2310
     16  O2'       31.5070   65.0110    9.1260 O.3   220  GDP220     -0.2158
     17  C1'       29.5480   63.4880    8.6350 C.3   220  GDP220      0.2293
     18  N9        28.8000   63.5970    9.9050 N.pl3 220  GDP220     -0.2354
     19  C8        28.9430   62.7330   10.9780 C.3   220  GDP220      0.2246
     20  N7        28.1810   63.0240   12.0050 N.2   220  GDP220     -0.2322
     21  C5        27.5260   64.1700   11.6230 C.2   220  GDP220      0.2182
     22  C6        26.5680   64.9150   12.3580 C.1   220  GDP220      0.2372
     23  O6        26.3040   64.9140   13.5380 O.2   220  GDP220     -0.2069
     24  N1        26.1660   66.0290   11.6080 N.2   220  GDP220     -0.2485
     25  C2        26.5960   66.2870   10.3230 C.1   220  GDP220      0.2531
     26  N2        26.0800   67.3970    9.8480 N.pl3 220  GDP220     -0.0226
     27  N3        27.4730   65.5650    9.6290 N.2   220  GDP220     -0.3074
     28  C4        27.9080   64.5170   10.3360 C.2   220  GDP220      0.2300
@<TRIPOS>BOND
     1    14    13    1
     2    11    13    1
     3    11    10    1
     4    11    12    1
     5    13    15    1
     6    10     9    1
     7    12    17    1
     8    17    15    1
     9    17    18    1
    10    15    16    1
    11     3     1    2
    12     9     6    1
    13    27    25    2
    14    27    28    2
    15     8     6    2
    16    26    25    1
    17    18    28    1
    18    18    19    1
    19    25    24    2
    20     6     5    1
    21     6     7    1
    22    28    21    1
    23     5     1    1
    24     1     4    1
    25     1     2    1
    26    19    20    1
    27    24    22    2
    28    21    20    2
    29    21    22    1
    30    22    23    2
