@<TRIPOS>MOLECULE
1qg4_GDP_A_1.pdb
 28 30 0 0 0
SMALL
GASTEIGER

@<TRIPOS>ATOM
      1  PB         0.8800   37.9770   26.8530 P.3   220  GDP220      0.5373
      2  O1B       -0.4640   37.4440   26.4550 O.2   220  GDP220     -0.2221
      3  O2B        0.7210   38.9410   27.9720 O.3   220  GDP220     -0.1143
      4  O3B        1.6890   36.8590   27.3160 O.3   220  GDP220     -0.1143
      5  O3A        1.4750   38.7350   25.5320 O.3   220  GDP220     -0.2261
      6  PA         0.9420   39.7730   24.4740 P.3   220  GDP220      0.2231
      7  O1A        0.3910   38.9870   23.3330 O.2   220  GDP220     -0.5169
      8  O2A       -0.0230   40.6480   25.1780 O.3   220  GDP220     -0.4370
      9  O5'        2.2740   40.5000   24.0140 O.3   220  GDP220     -0.3111
     10  C5'        3.1240   41.2130   24.9230 C.3   220  GDP220      0.1813
     11  C4'        4.1330   42.0610   24.1340 C.3   220  GDP220      0.1799
     12  O4'        5.0610   41.1640   23.4520 O.3   220  GDP220     -0.3326
     13  C3'        3.5060   42.9160   23.0460 C.3   220  GDP220      0.2158
     14  O3'        4.0630   44.2170   22.9650 O.3   220  GDP220     -0.2175
     15  C2'        3.7840   42.1220   21.7720 C.3   220  GDP220      0.2310
     16  O2'        3.6060   42.9610   20.6520 O.3   220  GDP220     -0.2158
     17  C1'        5.2160   41.5310   22.0800 C.3   220  GDP220      0.2293
     18  N9         5.4930   40.3260   21.2650 N.pl3 220  GDP220     -0.2354
     19  C8         4.8530   39.1030   21.4290 C.3   220  GDP220      0.2246
     20  N7         5.2100   38.1870   20.5650 N.2   220  GDP220     -0.2322
     21  C5         6.1430   38.8080   19.7640 C.2   220  GDP220      0.2182
     22  C6         6.8840   38.2610   18.6860 C.1   220  GDP220      0.2372
     23  O6         6.6710   37.2460   18.0200 O.2   220  GDP220     -0.2069
     24  N1         7.7330   39.2320   18.1390 N.2   220  GDP220     -0.2485
     25  C2         7.8340   40.5350   18.5970 C.1   220  GDP220      0.2531
     26  N2         8.7080   41.2730   17.9130 N.pl3 220  GDP220     -0.0226
     27  N3         7.1440   41.0240   19.6060 N.2   220  GDP220     -0.3074
     28  C4         6.3150   40.1200   20.1800 C.2   220  GDP220      0.2300
@<TRIPOS>BOND
     1    26    25    1
     2    23    22    2
     3    24    25    2
     4    24    22    2
     5    25    27    2
     6    22    21    1
     7    27    28    2
     8    21    28    1
     9    21    20    2
    10    28    18    1
    11    20    19    1
    12    16    15    1
    13    18    19    1
    14    18    17    1
    15    15    17    1
    16    15    13    1
    17    17    12    1
    18    14    13    1
    19    13    11    1
    20     7     6    2
    21    12    11    1
    22     9     6    1
    23     9    10    1
    24    11    10    1
    25     6     8    1
    26     6     5    1
    27     5     1    1
    28     2     1    2
    29     1     4    1
    30     1     3    1
