@<TRIPOS>MOLECULE
1qg6_TCL_A_1.pdb
 17 18 0 0 0
SMALL
GASTEIGER

@<TRIPOS>ATOM
      1  C1         4.9540  -14.8830   11.8520 C.ar  601  TCL601      0.0566
      2  C2         5.2120  -15.4140   10.6020 C.ar  601  TCL601      0.0611
      3  C6         4.0590  -15.5170   12.6910 C.ar  601  TCL601      0.2307
      4  C5         3.4230  -16.6920   12.2820 C.ar  601  TCL601      0.1840
      5  C4         3.6850  -17.2360   11.0130 C.ar  601  TCL601      0.0417
      6  C3         4.5850  -16.5960   10.1660 C.ar  601  TCL601      0.0147
      7  C11       -1.5570  -16.5830   12.7820 C.ar  601  TCL601      0.0587
      8  C10       -1.0770  -17.5350   13.6770 C.ar  601  TCL601      0.0259
      9  C9         0.2800  -17.7470   13.7800 C.ar  601  TCL601      0.0929
     10  C8         1.1830  -17.0280   13.0030 C.ar  601  TCL601      0.1559
     11  C12       -0.6690  -15.8420   11.9940 C.ar  601  TCL601      0.0146
     12  C13        0.7080  -16.0630   12.1040 C.ar  601  TCL601      0.0392
     13  O7         2.5380  -17.2950   13.1520 O.3   601  TCL601     -0.4494
     14 CL14        6.3450  -14.5980    9.5430 Cl    601  TCL601     -0.0821
     15 CL15       -3.2940  -16.3220   12.6330 Cl    601  TCL601     -0.0822
     16 CL16        0.8800  -18.9360   14.8910 Cl    601  TCL601     -0.0790
     17  O17        3.8010  -14.9900   13.9310 O.3   601  TCL601     -0.2833
@<TRIPOS>BOND
     1    14     2    1
     2     6     2   ar
     3     6     5   ar
     4     2     1   ar
     5     5     4   ar
     6     1     3   ar
     7    11    12   ar
     8    11     7   ar
     9    12    10   ar
    10     4     3   ar
    11     4    13    1
    12    15     7    1
    13     3    17    1
    14     7     8   ar
    15    10    13    1
    16    10     9   ar
    17     8     9   ar
    18     9    16    1
