@<TRIPOS>MOLECULE
1qg6_NAD_A_1.pdb
 44 48 0 0 0
SMALL
GASTEIGER

@<TRIPOS>ATOM
      1  PA         1.9890  -23.7290   13.6980 P.3   501  NAD501      0.2189
      2  O1A        0.6550  -23.4580   12.9960 O.2   501  NAD501     -0.5170
      3  O2A        2.8710  -24.9850   13.4680 O.3   501  NAD501     -0.4371
      4  O5B        1.7210  -23.6870   15.2520 O.3   501  NAD501     -0.3112
      5  C5B        0.8100  -22.7260   15.8800 C.3   501  NAD501      0.1813
      6  C4B        0.2460  -23.4140   16.9970 C.3   501  NAD501      0.1821
      7  O4B       -0.6950  -22.5360   17.7960 O.3   501  NAD501     -0.3135
      8  C3B       -0.6380  -24.7080   16.6540 C.3   501  NAD501      0.2184
      9  O3B        0.0700  -25.8870   17.2700 O.3   501  NAD501     -0.2174
     10  C2B       -2.0070  -24.4810   17.2830 C.3   501  NAD501      0.2570
     11  O2B       -2.6970  -25.6000   17.7070 O.3   501  NAD501     -0.2130
     12  C1B       -1.5750  -23.4170   18.3940 C.3   501  NAD501      0.3186
     13  N9A       -2.7200  -22.7020   18.8930 N.pl3 501  NAD501     -0.1439
     14  C8A       -3.5440  -21.7320   18.3330 C.3   501  NAD501      0.3377
     15  N7A       -4.5540  -21.3590   19.0970 N.2   501  NAD501     -0.2095
     16  C5A       -4.4600  -22.0620   20.2250 C.2   501  NAD501      0.2526
     17  C6A       -5.3120  -22.0870   21.4540 C.2   501  NAD501      0.4393
     18  N6A       -6.3670  -21.3910   21.6640 N.pl3 501  NAD501      0.2180
     19  N1A       -4.8680  -22.9620   22.4090 N.2   501  NAD501      0.0021
     20  C2A       -3.8020  -23.7400   22.3090 C.3   501  NAD501      0.5254
     21  N3A       -2.9620  -23.7640   21.1650 N.2   501  NAD501     -0.0055
     22  C4A       -3.3210  -22.9030   20.1380 C.2   501  NAD501      0.3518
     23  O3         2.7640  -22.3800   13.5990 O.3   501  NAD501     -0.2703
     24  PN         4.2160  -21.8210   13.9640 P.3   501  NAD501      0.2189
     25  O1N        4.5750  -21.0290   12.8000 O.2   501  NAD501     -0.5170
     26  O2N        5.0680  -22.9930   14.4620 O.3   501  NAD501     -0.4371
     27  O5D        3.9100  -20.8700   15.1580 O.3   501  NAD501     -0.3112
     28  C5D        4.3940  -21.0930   16.4990 C.3   501  NAD501      0.1813
     29  C4D        4.6830  -19.8020   17.1540 C.3   501  NAD501      0.1799
     30  O4D        5.8670  -19.1600   16.4160 O.3   501  NAD501     -0.3327
     31  C3D        3.6160  -18.5970   17.0750 C.3   501  NAD501      0.2158
     32  O3D        3.7640  -17.9080   18.2440 O.3   501  NAD501     -0.2175
     33  C2D        4.0170  -17.7290   15.9040 C.3   501  NAD501      0.2309
     34  O2D        3.4940  -16.4360   16.0130 O.3   501  NAD501     -0.2158
     35  C1D        5.5370  -17.8500   16.0680 C.3   501  NAD501      0.2263
     36  N1N        6.3270  -17.4820   14.8160 N.pl3 501  NAD501     -0.2787
     37  C2N        6.2140  -18.1830   13.5990 C.3   501  NAD501      0.1244
     38  C3N        7.0460  -17.6180   12.5780 C.2   501  NAD501      0.0544
     39  C7N        6.9740  -18.3400   11.1700 C.2   501  NAD501      0.2818
     40  O7N        7.6420  -17.8970   10.1850 O.2   501  NAD501     -0.2670
     41  N7N        6.1840  -19.4200   11.1120 N.am  501  NAD501     -0.0839
     42  C4N        7.9020  -16.5000   12.7010 C.2   501  NAD501      0.0033
     43  C5N        7.9020  -15.9220   14.0120 C.2   501  NAD501      0.0157
     44  C6N        7.1230  -16.4090   15.0410 C.2   501  NAD501      0.0633
@<TRIPOS>BOND
     1    40    39    2
     2    41    39   am
     3    39    38    1
     4    38    42    2
     5    38    37    1
     6    42    43    1
     7    25    24    2
     8     2     1    2
     9     3     1    1
    10    23     1    1
    11    23    24    1
    12    37    36    1
    13     1     4    1
    14    24    26    1
    15    24    27    1
    16    43    44    2
    17    36    44    1
    18    36    35    1
    19    27    28    1
    20     4     5    1
    21     5     6    1
    22    33    34    1
    23    33    35    1
    24    33    31    1
    25    35    30    1
    26    30    29    1
    27    28    29    1
    28     8     6    1
    29     8     9    1
    30     8    10    1
    31     6     7    1
    32    31    29    1
    33    31    32    1
    34    10    11    1
    35    10    12    1
    36     7    12    1
    37    14    13    1
    38    14    15    1
    39    12    13    1
    40    13    22    1
    41    15    16    2
    42    22    16    1
    43    22    21    2
    44    16    17    1
    45    21    20    1
    46    17    18    1
    47    17    19    2
    48    20    19    1
