@<TRIPOS>MOLECULE
1qga_NAP_A_1.pdb
 48 52 0 0 0
SMALL
GASTEIGER

@<TRIPOS>ATOM
      1  PA         8.9400    3.5960   -6.5940 P.3   310  NAP310      0.2189
      2  O1A        9.2220    4.5250   -7.7200 O.2   310  NAP310     -0.5170
      3  O2A       10.0270    3.5720   -5.5740 O.3   310  NAP310     -0.4371
      4  O5B        8.9260    2.2500   -7.3320 O.3   310  NAP310     -0.3112
      5  C5B        8.0660    1.2300   -6.9200 C.3   310  NAP310      0.1813
      6  C4B        8.4080    0.0190   -7.7230 C.3   310  NAP310      0.1820
      7  O4B        7.3290   -0.2580   -8.6380 O.3   310  NAP310     -0.3136
      8  C3B        9.6780    0.1240   -8.6190 C.3   310  NAP310      0.2157
      9  O3B       10.3910   -1.1430   -8.5290 O.3   310  NAP310     -0.2175
     10  C2B        9.1720    0.3120  -10.0030 C.3   310  NAP310      0.2314
     11  O2B       10.1410   -0.2670  -10.9170 O.3   310  NAP310     -0.2630
     12  C1B        7.9170   -0.4400   -9.9090 C.3   310  NAP310      0.3158
     13  N9A        6.9720   -0.1700  -10.9490 N.pl3 310  NAP310     -0.1439
     14  C8A        6.9470    0.8650  -11.8060 C.3   310  NAP310      0.3377
     15  N7A        5.9070    0.6770  -12.6310 N.2   310  NAP310     -0.2095
     16  C5A        5.3060   -0.4670  -12.2500 C.2   310  NAP310      0.2526
     17  C6A        4.2050   -1.1210  -12.8200 C.2   310  NAP310      0.4393
     18  N6A        3.5640   -0.5910  -13.8480 N.pl3 310  NAP310      0.2180
     19  N1A        3.7920   -2.2920  -12.2660 N.2   310  NAP310      0.0021
     20  C2A        4.4610   -2.8110  -11.2320 C.3   310  NAP310      0.5254
     21  N3A        5.5250   -2.1810  -10.7030 N.2   310  NAP310     -0.0055
     22  C4A        5.9800   -1.0240  -11.2500 C.2   310  NAP310      0.3518
     23  O3         7.4720    3.9970   -5.8350 O.3   310  NAP310     -0.2703
     24  PN         7.1730    5.1680   -4.5240 P.3   310  NAP310      0.2189
     25  O1N        8.0060    6.2640   -5.0220 O.2   310  NAP310     -0.5170
     26  O2N        7.4500    4.6360   -3.2160 O.3   310  NAP310     -0.4371
     27  O5D        5.6700    5.6240   -4.6000 O.3   310  NAP310     -0.3112
     28  C5D        4.6100    4.7100   -4.3360 C.3   310  NAP310      0.1813
     29  C4D        3.4490    5.3020   -5.0620 C.3   310  NAP310      0.1799
     30  O4D        2.2000    4.7700   -4.5990 O.3   310  NAP310     -0.3327
     31  C3D        3.3990    6.8240   -4.8910 C.3   310  NAP310      0.2158
     32  O3D        3.0930    7.3950   -6.1720 O.3   310  NAP310     -0.2175
     33  C2D        2.2800    7.0930   -3.9340 C.3   310  NAP310      0.2309
     34  O2D        1.5410    8.2410   -4.3500 O.3   310  NAP310     -0.2158
     35  C1D        1.4450    5.8510   -3.9730 C.3   310  NAP310      0.2263
     36  N1N        0.8940    5.4720   -2.6590 N.pl3 310  NAP310     -0.2787
     37  C2N       -0.4960    5.4840   -2.5470 C.3   310  NAP310      0.1244
     38  C3N       -1.1310    5.1210   -1.3640 C.2   310  NAP310      0.0544
     39  C7N       -2.6190    5.1400   -1.3020 C.2   310  NAP310      0.2818
     40  O7N       -3.3020    5.4620   -2.2800 O.2   310  NAP310     -0.2670
     41  N7N       -3.1490    4.7730   -0.1520 N.am  310  NAP310     -0.0839
     42  C4N       -0.3250    4.7620   -0.2290 C.2   310  NAP310      0.0033
     43  C5N        1.0950    4.7610   -0.3490 C.2   310  NAP310      0.0157
     44  C6N        1.7030    5.1270   -1.5710 C.2   310  NAP310      0.0633
     45  P2B       11.1090    0.7140  -11.7840 P.3   310  NAP310      0.5328
     46  O1X       11.5300    1.8570  -10.9600 O.3   310  NAP310     -0.1145
     47  O2X       12.3230    0.0560  -12.2880 O.3   310  NAP310     -0.1145
     48  O3X       10.3270    1.1150  -12.9210 O.2   310  NAP310     -0.2224
@<TRIPOS>BOND
     1    18    17    1
     2    48    45    2
     3    17    19    2
     4    17    16    1
     5    15    16    2
     6    15    14    1
     7    47    45    1
     8    19    20    1
     9    16    22    1
    10    14    13    1
    11    45    46    1
    12    45    11    1
    13    22    13    1
    14    22    21    2
    15    20    21    1
    16    13    12    1
    17    11    10    1
    18    10    12    1
    19    10     8    1
    20    12     7    1
    21     7     6    1
    22     8     9    1
    23     8     6    1
    24     6     5    1
    25     2     1    2
    26     4     5    1
    27     4     1    1
    28     1    23    1
    29     1     3    1
    30    32    31    1
    31    23    24    1
    32    29    31    1
    33    29    30    1
    34    29    28    1
    35    25    24    2
    36    31    33    1
    37    27    24    1
    38    27    28    1
    39    30    35    1
    40    24    26    1
    41    34    33    1
    42    35    33    1
    43    35    36    1
    44    36    37    1
    45    36    44    1
    46    37    38    1
    47    40    39    2
    48    44    43    2
    49    38    39    1
    50    38    42    2
    51    39    41   am
    52    43    42    1
