@<TRIPOS>MOLECULE
1qgd_TPP_A_1.pdb
 26 27 0 0 0
SMALL
GASTEIGER

@<TRIPOS>ATOM
      1  N1'       -6.2150   27.1540   39.6610 N.2   670  TPP670     -0.1861
      2  C2'       -5.7270   26.2140   38.8240 C.1   670  TPP670      0.0663
      3  CM2       -4.2840   25.8370   38.8920 C.3   670  TPP670      0.1291
      4  N3'       -6.4860   25.6220   37.9400 N.2   670  TPP670     -0.3368
      5  C4'       -7.8330   25.9600   37.8500 C.2   670  TPP670      0.2292
      6  N4'       -8.5000   25.2730   36.9280 N.pl3 670  TPP670     -0.0925
      7  C5'       -8.4190   26.9410   38.7150 C.2   670  TPP670      0.0654
      8  C6'       -7.5500   27.4940   39.5980 C.2   670  TPP670      0.1115
      9  C7'       -9.8850   27.3690   38.7230 C.3   670  TPP670      0.1237
     10  N3       -10.1070   28.1530   37.4650 N.pl3 670  TPP670     -0.2970
     11  C2       -10.6080   27.5690   36.3640 C.3   670  TPP670      0.1543
     12  S1       -10.7120   28.6180   35.0380 S.3   670  TPP670     -0.0951
     13  C5       -10.0410   29.9000   36.0350 C.2   670  TPP670      0.0164
     14  C4        -9.7680   29.4770   37.3180 C.2   670  TPP670      0.0279
     15  CM4       -9.1850   30.3970   38.3310 C.3   670  TPP670      0.0473
     16  C6        -9.7450   31.3170   35.6530 C.3   670  TPP670      0.0661
     17  C7       -10.4420   31.6000   34.3380 C.3   670  TPP670      0.1544
     18  O7        -9.5070   32.3960   33.6470 O.3   670  TPP670     -0.3134
     19  PA        -9.1980   32.1820   32.0910 P.3   670  TPP670      0.2230
     20  O1A       -8.8530   33.5800   31.6970 O.2   670  TPP670     -0.5169
     21  O2A       -8.1050   31.1850   31.9900 O.3   670  TPP670     -0.4370
     22  O3A      -10.5180   31.6030   31.4760 O.3   670  TPP670     -0.2261
     23  PB       -11.7700   32.1920   30.6180 P.3   670  TPP670      0.5373
     24  O1B      -12.7640   32.6840   31.6870 O.3   670  TPP670     -0.1143
     25  O2B      -11.1890   33.3340   29.8760 O.3   670  TPP670     -0.1143
     26  O3B      -12.2710   31.0280   29.8420 O.2   670  TPP670     -0.2221
@<TRIPOS>BOND
     1    26    23    2
     2    25    23    1
     3    23    22    1
     4    23    24    1
     5    22    19    1
     6    20    19    2
     7    21    19    1
     8    19    18    1
     9    18    17    1
    10    17    16    1
    11    12    13    1
    12    12    11    1
    13    16    13    1
    14    13    14    2
    15    11    10    1
    16     6     5    1
    17    14    10    1
    18    14    15    1
    19    10     9    1
    20     5     4    2
    21     5     7    1
    22     4     2    2
    23     7     9    1
    24     7     8    2
    25     2     3    1
    26     2     1    2
    27     8     1    1
