@<TRIPOS>MOLECULE
1qgf_TPX_A_1.pdb
 21 21 0 0 0
SMALL
GASTEIGER

@<TRIPOS>ATOM
      1  C         -8.7990   23.7200   37.7870 C.2   280  TPX280      0.2075
      2  CA       -10.1900   23.1060   37.8990 C.3   280  TPX280      0.0771
      3  CB       -10.3530   21.9800   36.9430 C.3   280  TPX280      0.1300
      4  CC       -11.7570   21.4340   36.9970 C.2   280  TPX280      0.3662
      5  CD       -11.2010   24.1800   37.6740 C.3   280  TPX280      0.0084
      6  CE       -10.9470   25.4420   38.4850 C.3   280  TPX280      0.0005
      7  O         -8.4760   24.4790   36.9160 O.2   280  TPX280     -0.2883
      8  OA       -12.3260   21.0950   35.9110 O.co2 280  TPX280     -0.2456
      9  OB       -12.3510   21.3150   38.0910 O.co2 280  TPX280     -0.2456
     10  CK        -9.3680   20.8960   37.1120 C.3   280  TPX280      0.1271
     11  N         -7.9660   21.0330   36.8290 N.3   280  TPX280     -0.0772
     12  OC        -8.4370   22.2440   34.3080 O.2   280  TPX280     -0.1516
     13  OD        -6.2890   21.9600   35.4590 O.2   280  TPX280     -0.1516
     14  S         -7.6260   21.4630   35.2460 S.O2  280  TPX280      0.0768
     15  CF        -7.4490   19.8850   34.4250 C.ar  280  TPX280      0.1235
     16  CG1       -6.2150   19.2650   34.4450 C.ar  280  TPX280      0.0196
     17  CG2       -8.5510   19.3430   33.7990 C.ar  280  TPX280      0.0196
     18  CH1       -6.0910   18.0470   33.8090 C.ar  280  TPX280     -0.0029
     19  CH2       -8.4100   18.1260   33.1670 C.ar  280  TPX280     -0.0029
     20  CI        -7.1840   17.4850   33.1750 C.ar  280  TPX280     -0.0218
     21  CJ        -7.0380   16.1560   32.4820 C.3   280  TPX280      0.0310
@<TRIPOS>BOND
     1    21    20    1
     2    19    20   ar
     3    19    17   ar
     4    20    18   ar
     5    17    15   ar
     6    18    16   ar
     7    12    14    2
     8    15    16   ar
     9    15    14    1
    10    14    13    2
    11    14    11    1
    12     8     4   ar
    13    11    10    1
    14     7     1    2
    15     3     4    1
    16     3    10    1
    17     3     2    1
    18     4     9   ar
    19     5     2    1
    20     5     6    1
    21     1     2    1
