@<TRIPOS>MOLECULE
1qgi_GCS_A_1.pdb
 11 11 0 0 0
SMALL
GASTEIGER

@<TRIPOS>ATOM
      1  C1        20.3090   45.8440   45.8510 C.3   601  GCS601      0.2892
      2  C2        21.1060   44.5450   45.8410 C.3   601  GCS601      0.1810
      3  C3        21.4070   44.2090   44.4160 C.3   601  GCS601      0.1770
      4  C4        20.1110   44.0500   43.5980 C.3   601  GCS601      0.0669
      5  C5        19.5380   45.4660   43.4710 C.3   601  GCS601      0.1533
      6  C6        18.1730   45.5440   42.6220 C.3   601  GCS601      0.2116
      7  N2        22.3540   44.6900   46.6300 N.3   601  GCS601     -0.1247
      8  O1        19.6500   46.4180   47.0330 O.3   601  GCS601     -0.1882
      9  O3        22.2210   42.9280   44.3540 O.3   601  GCS601     -0.2213
     10  O5        19.2110   45.8440   44.8680 O.3   601  GCS601     -0.3271
     11  O6        17.6240   46.9750   42.5240 O.3   601  GCS601     -0.2177
@<TRIPOS>BOND
     1    11     6    1
     2     6     5    1
     3     5     4    1
     4     5    10    1
     5     4     3    1
     6     9     3    1
     7     3     2    1
     8    10     1    1
     9     2     1    1
    10     2     7    1
    11     1     8    1
