@<TRIPOS>MOLECULE
1qgj_HEM_A_1.pdb
 43 50 0 0 0
SMALL
GASTEIGER

@<TRIPOS>ATOM
      1 FE         20.9510   29.3920   42.0900 Fe    1350  HEM1350     0.0000
      2  CHA       23.8370   28.8120   43.9010 C.2   1350  HEM1350     0.0000
      3  CHB       19.8870   26.2080   42.8350 C.2   1350  HEM1350     0.0000
      4  CHC       18.0050   30.0160   40.5040 C.2   1350  HEM1350     0.0000
      5  CHD       21.7340   32.6720   41.8860 C.2   1350  HEM1350     0.0000
      6  NA        21.6990   27.8210   43.2130 N.2   1350  HEM1350     0.0000
      7  C1A       22.9110   27.7650   43.8910 C.2   1350  HEM1350     0.0000
      8  C2A       23.0930   26.4490   44.5120 C.2   1350  HEM1350     0.0000
      9  C3A       21.9520   25.7290   44.2140 C.2   1350  HEM1350     0.0000
     10  C4A       21.1170   26.5800   43.3940 C.2   1350  HEM1350     0.0000
     11  CMA       21.5540   24.3350   44.7180 C.3   1350  HEM1350     0.0000
     12  CAA       24.2890   26.0100   45.3600 C.3   1350  HEM1350     0.0000
     13  CBA       23.9400   26.2150   46.8230 C.3   1350  HEM1350     0.0000
     14  CGA       25.0510   25.8010   47.7810 C.2   1350  HEM1350     0.0000
     15  O1A       24.7700   25.7130   48.9940 O.co2 1350  HEM1350     0.0000
     16  O2A       26.1960   25.5720   47.3410 O.co2 1350  HEM1350     0.0000
     17  NB        19.3150   28.3090   41.6870 N.ar  1350  HEM1350     0.0000
     18  C1B       19.0620   26.9900   42.0170 C.ar  1350  HEM1350     0.0000
     19  C2B       17.8690   26.5050   41.3070 C.ar  1350  HEM1350     0.0000
     20  C3B       17.3580   27.5540   40.5880 C.ar  1350  HEM1350     0.0000
     21  C4B       18.2370   28.6940   40.8900 C.ar  1350  HEM1350     0.0000
     22  CMB       17.3800   25.0550   41.2400 C.3   1350  HEM1350     0.0000
     23  CAB       16.2380   27.4900   39.7370 C.3   1350  HEM1350     0.0000
     24  CBB       16.1350   28.1420   38.4290 C.3   1350  HEM1350     0.0000
     25  NC        20.0250   31.0330   41.3630 N.2   1350  HEM1350     0.0000
     26  C1C       18.8090   31.1130   40.7500 C.2   1350  HEM1350     0.0000
     27  C2C       18.4310   32.4930   40.5110 C.2   1350  HEM1350     0.0000
     28  C3C       19.4690   33.2740   40.9210 C.2   1350  HEM1350     0.0000
     29  C4C       20.4740   32.3330   41.4140 C.2   1350  HEM1350     0.0000
     30  CMC       17.0540   32.9370   40.0020 C.3   1350  HEM1350     0.0000
     31  CAC       19.5330   34.6740   41.0180 C.3   1350  HEM1350     0.0000
     32  CBC       19.0060   35.6200   40.0530 C.3   1350  HEM1350     0.0000
     33  ND        22.4900   30.5060   42.7240 N.ar  1350  HEM1350     0.0000
     34  C1D       22.6840   31.8430   42.4700 C.ar  1350  HEM1350     0.0000
     35  C2D       24.0730   32.2130   42.6830 C.ar  1350  HEM1350     0.0000
     36  C3D       24.6850   31.1510   43.2810 C.ar  1350  HEM1350     0.0000
     37  C4D       23.6830   30.0750   43.3070 C.ar  1350  HEM1350     0.0000
     38  CMD       24.7410   33.4730   42.1360 C.3   1350  HEM1350     0.0000
     39  CAD       26.0760   31.1810   43.9200 C.3   1350  HEM1350     0.0000
     40  CBD       25.9480   31.3890   45.4260 C.3   1350  HEM1350     0.0000
     41  CGD       27.2910   31.5280   46.1320 C.2   1350  HEM1350     0.0000
     42  O1D       28.3320   31.1810   45.5290 O.co2 1350  HEM1350     0.0000
     43  O2D       27.3000   31.9750   47.3010 O.co2 1350  HEM1350     0.0000
@<TRIPOS>BOND
     1    24    23    1
     2    23    20    1
     3    30    27    1
     4    32    31    1
     5     4    26    2
     6     4    21    1
     7    27    26    1
     8    27    28    2
     9    20    21   ar
    10    20    19   ar
    11    26    25    1
    12    21    17   ar
    13    28    31    1
    14    28    29    1
    15    22    19    1
    16    19    18   ar
    17    25    29    2
    18    25     1    1
    19    29     5    1
    20    17    18   ar
    21    17     1    1
    22     5    34    2
    23    18     3    1
    24     1    33    1
    25     1     6    1
    26    38    35    1
    27    34    35   ar
    28    34    33   ar
    29    35    36   ar
    30    33    37   ar
    31     3    10    2
    32     6    10    1
    33     6     7    2
    34    36    37   ar
    35    36    39    1
    36    37     2    2
    37    10     9    1
    38     7     2    1
    39     7     8    1
    40    39    40    1
    41     9     8    2
    42     9    11    1
    43     8    12    1
    44    12    13    1
    45    40    41    1
    46    42    41   ar
    47    41    43   ar
    48    13    14    1
    49    16    14   ar
    50    14    15   ar
