@<TRIPOS>MOLECULE
1qgj_GSH_A_1.pdb
 20 19 0 0 0
SMALL
GASTEIGER

@<TRIPOS>ATOM
      1  N1         5.4230   36.9240   29.6830 N.3   1794  GSH1794    -0.1208
      2  CA1        4.8350   37.9930   28.8830 C.3   1794  GSH1794     0.1948
      3  C1         4.0330   37.4610   27.6700 C.2   1794  GSH1794     0.3819
      4  O11        4.0830   36.2550   27.4060 O.co2 1794  GSH1794    -0.2441
      5  O12        3.3450   38.3490   26.9700 O.co2 1794  GSH1794    -0.2441
      6  CB1        5.9380   38.9660   28.4470 C.3   1794  GSH1794     0.0402
      7  CG1        6.7810   39.4770   29.6380 C.3   1794  GSH1794     0.0889
      8  CD1        8.1440   39.9080   29.0460 C.2   1794  GSH1794     0.2418
      9  OE1        8.2570   40.9620   28.4180 O.2   1794  GSH1794    -0.2733
     10  N2         9.1240   39.0150   29.1400 N.am  1794  GSH1794    -0.1968
     11  CA2       10.4350   39.3950   28.6240 C.3   1794  GSH1794     0.1843
     12  C2        10.5530   38.8780   27.1970 C.2   1794  GSH1794     0.2627
     13  O2        11.2270   39.4500   26.3450 O.2   1794  GSH1794    -0.2714
     14  CB2       11.5540   38.7100   29.4320 C.3   1794  GSH1794     0.0997
     15  SG2       11.7150   39.3480   31.1250 S.3   1794  GSH1794    -0.0797
     16  N3         9.9520   37.7130   26.9420 N.am  1794  GSH1794    -0.1917
     17  CA3        9.1800   37.0090   27.9680 C.3   1794  GSH1794     0.2285
     18  C3         7.9300   36.4710   27.3080 C.2   1794  GSH1794     0.3865
     19  O31        7.0550   36.0100   28.0620 O.co2 1794  GSH1794    -0.2437
     20  O32        7.8540   36.5310   26.0550 O.co2 1794  GSH1794    -0.2437
@<TRIPOS>BOND
     1    20    18   ar
     2    13    12    2
     3    16    12   am
     4    16    17    1
     5     5     3   ar
     6    12    11    1
     7    18    17    1
     8    18    19   ar
     9     4     3   ar
    10     3     2    1
    11     9     8    2
    12     6     2    1
    13     6     7    1
    14    11    10    1
    15    11    14    1
    16     2     1    1
    17     8    10   am
    18     8     7    1
    19    14    15    1
