@<TRIPOS>MOLECULE
1qgl_EJT_A_1.pdb
 46 48 0 0 0
SMALL
GASTEIGER

@<TRIPOS>ATOM
      1  C1        13.6750   55.7280   63.2740 C.3   238  EJT238      0.2695
      2  O1        13.3700   57.0750   63.2500 O.3   238  EJT238     -0.3285
      3  C2        14.5720   55.4070   62.1090 C.3   238  EJT238      0.2406
      4  O2        14.8880   54.0370   62.1630 O.3   238  EJT238     -0.2149
      5  C3        13.8350   55.7080   60.8070 C.3   238  EJT238      0.2198
      6  O3        14.6500   55.3610   59.7010 O.3   238  EJT238     -0.2174
      7  C4        12.5310   54.9130   60.7570 C.3   238  EJT238      0.2144
      8  O4        11.8020   55.2340   59.5840 O.3   238  EJT238     -0.2176
      9  C5        11.6960   55.2480   61.9870 C.3   238  EJT238      0.1835
     10  O5        12.4550   54.9640   63.1820 O.3   238  EJT238     -0.3256
     11  C6        10.4500   54.4050   62.0470 C.3   238  EJT238      0.2142
     12  O6        10.7760   53.0250   62.1070 O.3   238  EJT238     -0.2176
     13  CX1       15.7870   55.4910   76.3370 C.3   238  EJT238      0.2695
     14  OX1       16.0810   56.8180   76.0560 O.3   238  EJT238     -0.3285
     15  CX2       15.9210   55.2310   77.8230 C.3   238  EJT238      0.2406
     16  OX2       15.6760   53.8560   78.0590 O.3   238  EJT238     -0.2149
     17  CX3       17.3470   55.5700   78.2640 C.3   238  EJT238      0.2198
     18  OX3       17.5050   55.2870   79.6420 O.3   238  EJT238     -0.2174
     19  CX4       18.3520   54.7510   77.4630 C.3   238  EJT238      0.2144
     20  OX4       19.6620   55.1770   77.7970 O.3   238  EJT238     -0.2176
     21  CX5       18.1060   54.9580   75.9640 C.3   238  EJT238      0.1835
     22  OX5       16.7270   54.6630   75.6330 O.3   238  EJT238     -0.3256
     23  CX6       18.9690   54.0550   75.1080 C.3   238  EJT238      0.2142
     24  OX6       18.4630   52.7330   75.1190 O.3   238  EJT238     -0.2176
     25  CB         9.9740   57.8710   72.1670 C.3   238  EJT238      0.1908
     26  NZ         9.5260   56.5660   71.7710 N.2   238  EJT238     -0.0926
     27  NZ2        9.1590   55.4600   71.4090 N.2   238  EJT238     -0.1660
     28  NZ3        8.8300   54.4310   71.0690 N.2   238  EJT238      0.0678
     29  CF        11.0140   58.3060   71.1910 C.ar  238  EJT238      0.0053
     30  CD1       10.6520   58.5470   69.8850 C.ar  238  EJT238      0.0023
     31  CE1       11.5940   58.8150   68.9240 C.ar  238  EJT238      0.0549
     32  CD2       12.3780   58.3540   71.5160 C.ar  238  EJT238      0.0023
     33  CE2       13.3140   58.6350   70.5300 C.ar  238  EJT238      0.0549
     34  CZ        12.9410   58.8650   69.2150 C.ar  238  EJT238      0.0091
     35  C         10.9730   58.9680   67.5680 C.2   238  EJT238      0.2648
     36  O          9.7540   58.8490   67.4290 O.2   238  EJT238     -0.2684
     37  N         11.7720   59.2190   66.5470 N.am  238  EJT238     -0.2016
     38  CG        11.2580   59.3770   65.2030 C.3   238  EJT238      0.1181
     39  CD        12.2330   58.9310   64.1690 C.3   238  EJT238      0.0556
     40  CE        12.5180   57.4670   64.2980 C.3   238  EJT238      0.1467
     41  CX        14.7270   58.7870   71.0360 C.2   238  EJT238      0.2648
     42  OX        15.6420   59.0230   70.2490 O.2   238  EJT238     -0.2684
     43  NX        14.9470   58.6570   72.3350 N.am  238  EJT238     -0.2016
     44  CXG       16.2660   58.8390   72.9370 C.3   238  EJT238      0.1181
     45  CXD       16.2870   58.5660   74.4270 C.3   238  EJT238      0.0556
     46  CXE       15.9050   57.1370   74.6940 C.3   238  EJT238      0.1467
@<TRIPOS>BOND
     1     8     7    1
     2     6     5    1
     3     7     5    1
     4     7     9    1
     5     5     3    1
     6     9    11    1
     7     9    10    1
     8    11    12    1
     9     3     4    1
    10     3     1    1
    11    10     1    1
    12     2     1    1
    13     2    40    1
    14    39    40    1
    15    39    38    1
    16    38    37    1
    17    37    35   am
    18    36    35    2
    19    35    31    1
    20    31    34   ar
    21    31    30   ar
    22    34    33   ar
    23    30    29   ar
    24    42    41    2
    25    33    41    1
    26    33    32   ar
    27    41    43   am
    28    28    27    2
    29    29    32   ar
    30    29    25    1
    31    27    26    2
    32    26    25    1
    33    43    44    1
    34    44    45    1
    35    45    46    1
    36    46    14    1
    37    23    24    1
    38    23    21    1
    39    22    21    1
    40    22    13    1
    41    21    19    1
    42    14    13    1
    43    13    15    1
    44    19    20    1
    45    19    17    1
    46    15    16    1
    47    15    17    1
    48    17    18    1
