@<TRIPOS>MOLECULE
1qgn_PLP_A_1.pdb
 15 15 0 0 0
SMALL
GASTEIGER

@<TRIPOS>ATOM
      1  N1        51.6880   25.8700   41.4580 N.ar  500  PLP500     -0.2452
      2  C2        52.0460   24.9320   42.4390 C.ar  500  PLP500      0.0978
      3  C2A       52.2800   25.5180   43.8130 C.3   500  PLP500      0.0555
      4  C3        52.2020   23.5310   42.0020 C.ar  500  PLP500      0.2049
      5  O3        52.5270   22.6990   43.0130 O.3   500  PLP500     -0.2857
      6  C4        52.0120   23.1890   40.6450 C.ar  500  PLP500      0.0182
      7  C4A       52.1580   21.7980   40.2270 C.3   500  PLP500      0.0342
      8  C5        51.6510   24.2940   39.6730 C.ar  500  PLP500      0.0261
      9  C6        51.4890   25.5900   40.1190 C.ar  500  PLP500      0.0965
     10  C5A       51.5390   23.9400   38.1700 C.3   500  PLP500      0.1815
     11  O4P       50.3020   23.3490   37.7990 O.3   500  PLP500     -0.2653
     12  P         50.2080   22.5610   36.3890 P.3   500  PLP500      0.5329
     13  O1P       48.9570   21.8120   36.4440 O.3   500  PLP500     -0.1145
     14  O2P       51.4160   21.6220   36.2850 O.3   500  PLP500     -0.1145
     15  O3P       50.3230   23.5820   35.3780 O.2   500  PLP500     -0.2224
@<TRIPOS>BOND
     1    15    12    2
     2    14    12    1
     3    12    13    1
     4    12    11    1
     5    11    10    1
     6    10     8    1
     7     8     9   ar
     8     8     6   ar
     9     9     1   ar
    10     7     6    1
    11     6     4   ar
    12     1     2   ar
    13     4     2   ar
    14     4     5    1
    15     2     3    1
