@<TRIPOS>MOLECULE
1qgq_UDP_A_1.pdb
 25 26 0 0 0
SMALL
GASTEIGER

@<TRIPOS>ATOM
      1  N1        18.2440   19.5140   33.3440 N.am  311  UDP311     -0.1766
      2  C2        18.6680   20.7860   33.0770 C.1   311  UDP311      0.2845
      3  N3        20.0040   20.9390   32.8070 N.2   311  UDP311     -0.2452
      4  C4        20.9590   19.9220   32.7610 C.1   311  UDP311      0.2182
      5  C5        20.4510   18.6160   33.0420 C.2   311  UDP311      0.1242
      6  C6        19.1450   18.4560   33.3020 C.2   311  UDP311      0.0929
      7  O2        17.8950   21.7460   33.0920 O.2   311  UDP311     -0.1918
      8  O4        22.1240   20.2300   32.5100 O.2   311  UDP311     -0.2085
      9  C1'       16.8280   19.2820   33.6570 C.3   311  UDP311      0.2401
     10  C2'       16.1640   18.1860   32.8200 C.3   311  UDP311      0.2319
     11  O2'       15.6710   18.7160   31.6120 O.3   311  UDP311     -0.2157
     12  C3'       14.9870   17.8010   33.7460 C.3   311  UDP311      0.2158
     13  C4'       15.5490   18.0060   35.1520 C.3   311  UDP311      0.1799
     14  O4'       16.7930   18.7350   34.9700 O.3   311  UDP311     -0.3320
     15  O3'       13.9390   18.7440   33.5040 O.3   311  UDP311     -0.2175
     16  C5'       15.8560   16.6920   35.8710 C.3   311  UDP311      0.1813
     17  O5'       16.7530   15.9540   35.0630 O.3   311  UDP311     -0.3111
     18  PA        16.8780   14.4230   34.7030 P.3   311  UDP311      0.2231
     19  O1A       15.6130   14.0100   34.0310 O.3   311  UDP311     -0.4370
     20  O2A       18.1690   14.2080   33.9770 O.2   311  UDP311     -0.5169
     21  O3A       16.8800   13.9080   36.2130 O.3   311  UDP311     -0.2261
     22  PB        16.2120   12.6510   36.9410 P.3   311  UDP311      0.5373
     23  O1B       15.6450   13.2390   38.3350 O.3   311  UDP311     -0.1143
     24  O2B       17.4000   11.7870   37.1570 O.3   311  UDP311     -0.1143
     25  O3B       15.0080   12.1130   36.2580 O.2   311  UDP311     -0.2221
@<TRIPOS>BOND
     1    11    10    1
     2     8     4    2
     3     4     3    2
     4     4     5    1
     5     3     2    2
     6    10     9    1
     7    10    12    1
     8     5     6    2
     9     2     7    2
    10     2     1   am
    11     6     1    1
    12     1     9    1
    13    15    12    1
    14     9    14    1
    15    12    13    1
    16    20    18    2
    17    19    18    1
    18    18    17    1
    19    18    21    1
    20    14    13    1
    21    17    16    1
    22    13    16    1
    23    21    22    1
    24    25    22    2
    25    22    24    1
    26    22    23    1
