@<TRIPOS>MOLECULE
1qgs_UDP_A_1.pdb
 25 26 0 0 0
SMALL
GASTEIGER

@<TRIPOS>ATOM
      1  N1        18.3820   19.5530   33.5650 N.am  311  UDP311     -0.1766
      2  C2        18.8930   20.8080   33.2920 C.1   311  UDP311      0.2845
      3  N3        20.2050   20.9650   32.9350 N.2   311  UDP311     -0.2452
      4  C4        21.1450   19.9300   32.8030 C.1   311  UDP311      0.2182
      5  C5        20.5570   18.6530   33.0980 C.2   311  UDP311      0.1242
      6  C6        19.2770   18.4950   33.4360 C.2   311  UDP311      0.0929
      7  O2        18.2490   21.8520   33.3570 O.2   311  UDP311     -0.1918
      8  O4        22.2900   20.2130   32.4760 O.2   311  UDP311     -0.2085
      9  C1'       16.9630   19.3930   33.8650 C.3   311  UDP311      0.2401
     10  C2'       16.1780   18.3780   33.0210 C.3   311  UDP311      0.2319
     11  O2'       15.8160   18.9940   31.8240 O.3   311  UDP311     -0.2157
     12  C3'       14.9820   18.0100   33.9180 C.3   311  UDP311      0.2158
     13  C4'       15.5230   18.2120   35.3270 C.3   311  UDP311      0.1799
     14  O4'       16.7950   18.9260   35.1860 O.3   311  UDP311     -0.3320
     15  O3'       13.8700   18.8870   33.7340 O.3   311  UDP311     -0.2175
     16  C5'       15.7040   16.9540   36.1540 C.3   311  UDP311      0.1813
     17  O5'       16.7240   16.1580   35.5940 O.3   311  UDP311     -0.3111
     18  PA        16.8400   14.6970   35.0160 P.3   311  UDP311      0.2231
     19  O1A       15.6010   14.4680   34.2130 O.2   311  UDP311     -0.5169
     20  O2A       18.1710   14.5490   34.3380 O.3   311  UDP311     -0.4370
     21  O3A       16.7810   13.9000   36.3920 O.3   311  UDP311     -0.2261
     22  PB        15.8320   12.7340   36.9430 P.3   311  UDP311      0.5373
     23  O1B       15.4880   13.1670   38.4510 O.3   311  UDP311     -0.1143
     24  O2B       16.7360   11.5440   36.8700 O.3   311  UDP311     -0.1143
     25  O3B       14.5070   12.6190   36.2750 O.2   311  UDP311     -0.2221
@<TRIPOS>BOND
     1    11    10    1
     2     8     4    2
     3     4     3    2
     4     4     5    1
     5     3     2    2
     6    10     9    1
     7    10    12    1
     8     5     6    2
     9     2     7    2
    10     2     1   am
    11     6     1    1
    12     1     9    1
    13    15    12    1
    14     9    14    1
    15    12    13    1
    16    19    18    2
    17    20    18    1
    18    18    17    1
    19    18    21    1
    20    14    13    1
    21    13    16    1
    22    17    16    1
    23    25    22    2
    24    21    22    1
    25    24    22    1
    26    22    23    1
