@<TRIPOS>MOLECULE
1qgu_CFM_A_1.pdb
 17 34 0 0 0
SMALL
GASTEIGER

@<TRIPOS>ATOM
      1 FE1        37.1300   15.3190   42.1610 Fe    503  CFM503      0.0000
      2 FE2        36.8730   13.1050   40.7200 Fe    503  CFM503      0.0000
      3 FE3        39.1920   13.7020   41.9530 Fe    503  CFM503      0.0000
      4 FE4        38.4020   15.1140   39.8370 Fe    503  CFM503      0.0000
      5 FE5        39.6580   13.4210   38.2650 Fe    503  CFM503      0.0000
      6 FE6        38.1470   11.4370   39.2100 Fe    503  CFM503      0.0000
      7 FE7        40.4270   12.0170   40.3750 Fe    503  CFM503      0.0000
      8 MO1        40.4490   10.8430   37.9780 Mo    503  CFM503      0.0000
      9  S1A       36.1270   15.1120   40.0780 S.3   503  CFM503      0.0000
     10  S4A       39.2990   15.9220   41.7730 S.3   503  CFM503      0.0000
     11  S3A       39.2790   15.6030   37.8460 S.3   503  CFM503      0.0000
     12  S2A       37.1870   13.2350   42.9400 S.3   503  CFM503      0.0000
     13  S1B       38.6050   11.8470   37.0250 S.3   503  CFM503      0.0000
     14  S2B       36.0840   11.2320   39.8580 S.3   503  CFM503      0.0000
     15  S3B       39.5900    9.9720   40.0140 S.3   503  CFM503      0.0000
     16  S4B       41.7120   12.6900   38.6830 S.3   503  CFM503      0.0000
     17  S5        41.0570   12.5540   42.4320 S.3   503  CFM503      0.0000
@<TRIPOS>BOND
     1    13     8    1
     2    13     5    1
     3    13     6    1
     4    11     5    1
     5    11     4    1
     6     8    16    1
     7     8    15    1
     8     5    16    1
     9     5     6    1
    10     5     4    1
    11     5     7    1
    12    16     7    1
    13     6    14    1
    14     6    15    1
    15     6     7    1
    16     6     2    1
    17     4     9    1
    18     4    10    1
    19     4     3    1
    20     4     1    1
    21    14     2    1
    22    15     7    1
    23     9     2    1
    24     9     1    1
    25     7     3    1
    26     7    17    1
    27     2     1    1
    28     2    12    1
    29    10     3    1
    30    10     1    1
    31     3     1    1
    32     3    17    1
    33     3    12    1
    34     1    12    1
