@<TRIPOS>MOLECULE
1qgu_CLF_A_1.pdb
 15 36 0 0 0
SMALL
GASTEIGER

@<TRIPOS>ATOM
      1 FE1        29.3390   -2.7010   35.8870 Fe    505  CLF505      0.0000
      2 FE2        31.4130   -2.5340   34.4160 Fe    505  CLF505      0.0000
      3 FE3        31.1370   -0.6260   36.3740 Fe    505  CLF505      0.0000
      4 FE4        31.6000   -3.2030   36.9270 Fe    505  CLF505      0.0000
      5  S1        30.5890   -4.7260   35.3840 S.3   505  CLF505      0.0000
      6  S2A       29.8240   -0.8470   34.4880 S.3   505  CLF505      0.0000
      7  S4A       33.0310   -1.7790   35.8470 S.3   505  CLF505      0.0000
      8  S3A       29.9940   -1.9700   37.9510 S.3   505  CLF505      0.0000
      9 FE5        32.6950   -5.7280   35.9550 Fe    505  CLF505      0.0000
     10 FE6        30.9480   -7.0750   34.8160 Fe    505  CLF505      0.0000
     11 FE7        33.6410   -7.4800   33.9630 Fe    505  CLF505      0.0000
     12 FE8        32.1800   -5.2490   33.5260 Fe    505  CLF505      0.0000
     13  S2B       32.6560   -7.9960   36.0660 S.3   505  CLF505      0.0000
     14  S3B       31.7910   -7.3210   32.6230 S.3   505  CLF505      0.0000
     15  S4B       34.2620   -5.2450   34.3390 S.3   505  CLF505      0.0000
@<TRIPOS>BOND
     1    14    12    1
     2    14    11    1
     3    14    10    1
     4    12    11    1
     5    12    15    1
     6    12    10    1
     7    12     5    1
     8    12     9    1
     9    11    15    1
    10    11    10    1
    11    11     9    1
    12    11    13    1
    13    15     9    1
    14     2     6    1
    15     2     5    1
    16     2     7    1
    17     2     1    1
    18     2     3    1
    19     2     4    1
    20     6     1    1
    21     6     3    1
    22    10     5    1
    23    10     9    1
    24    10    13    1
    25     5     1    1
    26     5     9    1
    27     5     4    1
    28     7     3    1
    29     7     4    1
    30     1     3    1
    31     1     4    1
    32     1     8    1
    33     9    13    1
    34     3     4    1
    35     3     8    1
    36     4     8    1
