@<TRIPOS>MOLECULE
1qgw_PEB_C_1.pdb
 43 46 0 0 0
SMALL
GASTEIGER

@<TRIPOS>ATOM
      1  CHC        5.1570   28.7220   39.0680 C.3   250  PEB250      0.0879
      2  NC         6.4320   26.7950   37.9840 N.2   250  PEB250     -0.4107
      3  C1C        7.5290   25.9990   38.3030 C.2   250  PEB250      0.1114
      4  C2C        8.0160   26.3250   39.6150 C.2   250  PEB250      0.0024
      5  C3C        7.1910   27.3840   40.0980 C.2   250  PEB250      0.0018
      6  C4C        6.1950   27.6320   39.0650 C.2   250  PEB250      0.1067
      7  CMC        7.2490   28.0380   41.4720 C.3   250  PEB250      0.0331
      8  CAC        9.2760   25.7880   40.2330 C.3   250  PEB250      0.0402
      9  CBC       10.4120   26.7910   39.9230 C.3   250  PEB250      0.1188
     10  CGC       11.6540   26.4040   40.7420 C.2   250  PEB250      0.3652
     11  O1C       11.9520   25.1830   40.7840 O.co2 250  PEB250     -0.2456
     12  O2C       12.5210   27.2710   40.9850 O.co2 250  PEB250     -0.2456
     13  ND         3.8270   28.0540   41.1370 N.2   250  PEB250     -0.2002
     14  C1D        3.7780   28.3150   39.6850 C.3   250  PEB250      0.1405
     15  C2D        2.8280   29.4800   39.5530 C.2   250  PEB250     -0.0139
     16  C3D        2.4030   29.8420   40.8590 C.2   250  PEB250      0.0545
     17  C4D        2.9980   28.8740   41.8250 C.1   250  PEB250      0.1456
     18  CMD        2.4170   30.0590   38.2200 C.3   250  PEB250      0.0288
     19  CAD        1.6060   30.9060   41.2820 C.3   250  PEB250      0.0376
     20  CBD        0.4100   30.4560   41.9710 C.3   250  PEB250      0.0058
     21  OD         2.7430   28.8880   43.0030 O.2   250  PEB250     -0.2226
     22  NA         5.1630   22.5740   32.1410 N.2   250  PEB250     -0.3448
     23  C1A        4.3610   22.1280   31.0930 C.1   250  PEB250      0.1788
     24  C2A        3.6800   23.2830   30.4950 C.3   250  PEB250      0.1246
     25  C3A        4.4400   24.4920   31.0010 C.3   250  PEB250      0.0660
     26  C4A        5.2850   23.9630   32.1400 C.2   250  PEB250      0.1070
     27  CMA        3.6140   23.1300   28.9900 C.3   250  PEB250      0.0192
     28  CBA        2.7420   25.4690   32.6990 C.3   250  PEB250      0.0005
     29  OA         4.1590   20.9380   30.8900 O.2   250  PEB250     -0.2142
     30  CHA        5.9210   24.6830   33.1010 C.3   250  PEB250      0.1138
     31  CAA        3.5350   25.6670   31.4290 C.3   250  PEB250      0.0078
     32  NB         6.7440   24.9900   35.3520 N.2   250  PEB250     -0.4104
     33  C1B        6.7220   24.2980   34.1540 C.2   250  PEB250      0.1111
     34  C2B        7.7090   23.2290   34.3000 C.2   250  PEB250      0.0021
     35  C3B        8.3250   23.3840   35.5540 C.2   250  PEB250      0.0024
     36  C4B        7.7250   24.5280   36.2130 C.2   250  PEB250      0.1114
     37  CHB        8.0130   25.0330   37.4580 C.3   250  PEB250      0.1170
     38  CMB        8.1600   22.2960   33.1700 C.3   250  PEB250      0.0331
     39  CAB        9.3820   22.5140   36.1400 C.3   250  PEB250      0.0402
     40  CBB        8.7170   21.1950   36.5850 C.3   250  PEB250      0.1188
     41  CGB        9.6780   20.1160   37.0320 C.2   250  PEB250      0.3652
     42  O1B       10.8160   20.4270   37.4040 O.co2 250  PEB250     -0.2456
     43  O2B        9.4470   18.9260   36.6540 O.co2 250  PEB250     -0.2456
@<TRIPOS>BOND
     1    27    24    1
     2    24    25    1
     3    24    23    1
     4    29    23    2
     5    25    31    1
     6    25    26    1
     7    23    22    2
     8    31    28    1
     9    26    22    2
    10    26    30    1
    11    30    33    1
    12    38    34    1
    13    33    34    1
    14    33    32    2
    15    34    35    2
    16    32    36    2
    17    35    39    1
    18    35    36    1
    19    39    40    1
    20    36    37    1
    21    40    41    1
    22    43    41   ar
    23    41    42   ar
    24    37     3    1
    25     2     3    2
    26     2     6    2
    27    18    15    1
    28     3     4    1
    29     6     1    1
    30     6     5    1
    31     1    14    1
    32    15    14    1
    33    15    16    2
    34     4     5    2
    35     4     8    1
    36    14    13    1
    37     9     8    1
    38     9    10    1
    39     5     7    1
    40    10    11   ar
    41    10    12   ar
    42    16    19    1
    43    16    17    1
    44    13    17    2
    45    19    20    1
    46    17    21    2
