@<TRIPOS>MOLECULE
1qgw_DBV_A_1.pdb
 43 46 0 0 0
SMALL
GASTEIGER

@<TRIPOS>ATOM
      1  NA         1.0870   19.7590    6.0020 N.2   219  DBV219     -0.3375
      2  C1A        0.2590   18.6780    5.8420 C.1   219  DBV219      0.2000
      3  C2A        0.8900   17.4990    6.3330 C.2   219  DBV219      0.0710
      4  C3A        2.1150   17.8870    6.7910 C.2   219  DBV219      0.0125
      5  C4A        2.3090   19.3490    6.5720 C.2   219  DBV219      0.1254
      6  CMA        0.2120   16.2040    6.4030 C.3   219  DBV219      0.0445
      7  CBA        3.6350   17.2580    8.7610 C.3   219  DBV219      0.0051
      8  OA        -0.8810   18.6930    5.3140 O.2   219  DBV219     -0.2096
      9  CHA        3.3040   20.1220    6.8940 C.3   219  DBV219      0.1181
     10  CAA        3.2610   17.0780    7.2720 C.3   219  DBV219      0.0291
     11  NB         4.5760   22.1680    6.4230 N.2   219  DBV219     -0.4104
     12  C1B        3.3630   21.5520    6.7210 C.2   219  DBV219      0.1114
     13  C2B        2.3550   22.5710    6.7980 C.2   219  DBV219      0.0021
     14  C3B        2.9610   23.7700    6.5060 C.2   219  DBV219      0.0024
     15  C4B        4.3820   23.5260    6.2960 C.2   219  DBV219      0.1114
     16  CHB        5.3100   24.5020    5.9960 C.3   219  DBV219      0.1170
     17  CMB        0.9890   22.4280    7.3710 C.3   219  DBV219      0.0331
     18  CAB        2.3570   25.1550    6.4710 C.3   219  DBV219      0.0402
     19  CBB        1.4700   25.2800    5.1570 C.3   219  DBV219      0.1188
     20  CGB        2.4150   25.0500    3.9570 C.2   219  DBV219      0.3652
     21  O1B        3.3080   25.8460    3.6930 O.co2 219  DBV219     -0.2456
     22  O2B        2.2050   23.9600    3.2850 O.co2 219  DBV219     -0.2456
     23  CHC        9.9830   22.8770    6.4290 C.3   219  DBV219      0.0879
     24  NC         7.5710   23.3970    6.2050 N.2   219  DBV219     -0.4107
     25  C1C        6.7170   24.4700    5.9990 C.2   219  DBV219      0.1114
     26  C2C        7.5840   25.5770    5.7370 C.2   219  DBV219      0.0024
     27  C3C        8.8730   25.1920    5.9920 C.2   219  DBV219      0.0018
     28  C4C        8.8670   23.8210    6.1520 C.2   219  DBV219      0.1067
     29  CMC       10.0980   26.0840    5.8530 C.3   219  DBV219      0.0331
     30  CAC        7.1230   26.9880    5.4110 C.3   219  DBV219      0.0402
     31  CBC        6.5020   27.6640    6.6660 C.3   219  DBV219      0.1188
     32  CGC        7.4430   28.3850    7.5550 C.2   219  DBV219      0.3652
     33  O1C        8.4900   28.8770    7.1010 O.co2 219  DBV219     -0.2456
     34  O2C        7.1110   28.3790    8.7650 O.co2 219  DBV219     -0.2456
     35  ND        10.7470   22.7080    4.0830 N.2   219  DBV219     -0.1999
     36  C1D       10.2340   21.9030    5.2030 C.3   219  DBV219      0.1408
     37  C2D       11.3080   20.9350    5.4210 C.2   219  DBV219     -0.0099
     38  C3D       12.2970   21.0540    4.5400 C.2   219  DBV219      0.0768
     39  C4D       11.9480   22.1790    3.6640 C.1   219  DBV219      0.1497
     40  CMD       11.2230   19.9200    6.5360 C.3   219  DBV219      0.0291
     41  CAD       13.5330   20.2360    4.4350 C.2   219  DBV219      0.0110
     42  CBD       14.4130   20.3530    3.4220 C.2   219  DBV219      0.0007
     43  OD        12.5380   22.6320    2.6810 O.2   219  DBV219     -0.2223
@<TRIPOS>BOND
     1    43    39    2
     2    22    20   ar
     3    42    41    2
     4    39    35    2
     5    39    38    1
     6    21    20   ar
     7    20    19    1
     8    35    36    1
     9    41    38    1
    10    38    37    2
    11    19    18    1
    12    36    37    1
    13    36    23    1
    14     8     2    2
    15    30    26    1
    16    30    31    1
    17    37    40    1
    18    26    27    2
    19    26    25    1
    20     2     1    2
    21     2     3    1
    22    29    27    1
    23    27    28    1
    24    16    25    1
    25    16    15    1
    26    25    24    2
    27     1     5    2
    28    28    24    2
    29    28    23    1
    30    15    11    2
    31    15    14    1
    32     3     6    1
    33     3     4    2
    34    11    12    2
    35    18    14    1
    36    14    13    2
    37     5     4    1
    38     5     9    1
    39    31    32    1
    40    12    13    1
    41    12     9    1
    42     4    10    1
    43    13    17    1
    44    33    32   ar
    45    10     7    1
    46    32    34   ar
