@<TRIPOS>MOLECULE
1qgx_AMP_A_1.pdb
 23 25 0 0 0
SMALL
GASTEIGER

@<TRIPOS>ATOM
      1  P         14.7260   10.8930  -25.7650 P.3   405  AMP405      0.5327
      2  O1P       13.5190   10.0450  -25.6910 O.3   405  AMP405     -0.1145
      3  O2P       15.3220   10.8740  -27.1630 O.2   405  AMP405     -0.2224
      4  O3P       15.7520   10.4490  -24.8760 O.3   405  AMP405     -0.1145
      5  O5'       14.4960   12.3900  -25.3730 O.3   405  AMP405     -0.2675
      6  C5'       13.1440   13.0070  -25.4580 C.3   405  AMP405      0.1860
      7  C4'       13.2970   14.5330  -25.4650 C.3   405  AMP405      0.1823
      8  O4'       14.1460   14.8570  -26.6440 O.3   405  AMP405     -0.3135
      9  C3'       11.9940   15.2910  -25.6800 C.3   405  AMP405      0.2184
     10  O3'       11.2580   15.3730  -24.4680 O.3   405  AMP405     -0.2174
     11  C2'       12.4330   16.5730  -26.3900 C.3   405  AMP405      0.2570
     12  O2'       12.3810   17.7400  -25.5280 O.3   405  AMP405     -0.2130
     13  C1'       13.9000   16.2410  -26.6210 C.3   405  AMP405      0.3186
     14  N9        14.4080   16.8130  -27.9180 N.pl3 405  AMP405     -0.1439
     15  C8        13.6750   17.2460  -29.0220 C.3   405  AMP405      0.3377
     16  N7        14.4750   17.7040  -29.9880 N.2   405  AMP405     -0.2095
     17  C5        15.7400   17.5800  -29.4950 C.2   405  AMP405      0.2526
     18  C6        17.0380   17.9180  -30.0310 C.2   405  AMP405      0.4393
     19  N6        17.1970   18.4930  -31.2170 N.pl3 405  AMP405      0.2180
     20  N1        18.0790   17.6390  -29.2340 N.2   405  AMP405      0.0021
     21  C2        17.9710   17.0610  -27.9770 C.3   405  AMP405      0.5254
     22  N3        16.8010   16.7530  -27.4410 N.2   405  AMP405     -0.0055
     23  C4        15.7450   17.0430  -28.1940 C.2   405  AMP405      0.3518
@<TRIPOS>BOND
     1    19    18    1
     2    18    17    1
     3    18    20    2
     4    16    17    2
     5    16    15    1
     6    17    23    1
     7    20    21    1
     8    15    14    1
     9    23    14    1
    10    23    22    2
    11    21    22    1
    12    14    13    1
    13     3     1    2
    14     8    13    1
    15     8     7    1
    16    13    11    1
    17    11     9    1
    18    11    12    1
    19     1     2    1
    20     1     5    1
    21     1     4    1
    22     9     7    1
    23     9    10    1
    24     7     6    1
    25     6     5    1
