@<TRIPOS>MOLECULE
1qh1_CFM_A_1.pdb
 17 34 0 0 0
SMALL
GASTEIGER

@<TRIPOS>ATOM
      1 FE1        37.1160   15.4400   41.9390 Fe    503  CFM503      0.0000
      2 FE2        36.8480   13.1980   40.5010 Fe    503  CFM503      0.0000
      3 FE3        39.1380   13.7810   41.7710 Fe    503  CFM503      0.0000
      4 FE4        38.3810   15.2030   39.6330 Fe    503  CFM503      0.0000
      5 FE5        39.6660   13.4990   38.0900 Fe    503  CFM503      0.0000
      6 FE6        38.1600   11.5440   39.0270 Fe    503  CFM503      0.0000
      7 FE7        40.3920   12.1000   40.2120 Fe    503  CFM503      0.0000
      8 MO1        40.4500   10.9160   37.8060 Mo    503  CFM503      0.0000
      9  S1A       36.1510   15.2450   39.8200 S.3   503  CFM503      0.0000
     10  S4A       39.2740   16.0280   41.5830 S.3   503  CFM503      0.0000
     11  S3A       39.2940   15.6850   37.6620 S.3   503  CFM503      0.0000
     12  S2A       37.1380   13.3500   42.6880 S.3   503  CFM503      0.0000
     13  S1B       38.6060   11.9050   36.8560 S.3   503  CFM503      0.0000
     14  S2B       36.0450   11.3420   39.6160 S.3   503  CFM503      0.0000
     15  S3B       39.5870   10.0920   39.8490 S.3   503  CFM503      0.0000
     16  S4B       41.7190   12.7740   38.5270 S.3   503  CFM503      0.0000
     17  S5        41.0380   12.6390   42.2500 S.3   503  CFM503      0.0000
@<TRIPOS>BOND
     1    13     8    1
     2    13     5    1
     3    13     6    1
     4    11     5    1
     5    11     4    1
     6     8    16    1
     7     8    15    1
     8     5    16    1
     9     5     6    1
    10     5     4    1
    11     5     7    1
    12    16     7    1
    13     6    14    1
    14     6    15    1
    15     6     7    1
    16     6     2    1
    17    14     2    1
    18     4     9    1
    19     4     2    1
    20     4    10    1
    21     4     1    1
    22     9     2    1
    23     9     1    1
    24    15     7    1
    25     7     3    1
    26     7    17    1
    27     2     1    1
    28     2    12    1
    29    10     3    1
    30    10     1    1
    31     3     1    1
    32     3    17    1
    33     3    12    1
    34     1    12    1
