@<TRIPOS>MOLECULE
1qh1_CLF_A_1.pdb
 15 31 0 0 0
SMALL
GASTEIGER

@<TRIPOS>ATOM
      1 FE1        29.2930   -2.5050   35.5600 Fe    505  CLF505      0.0000
      2 FE2        31.3870   -2.4050   34.1340 Fe    505  CLF505      0.0000
      3 FE3        31.1440   -0.4620   36.0410 Fe    505  CLF505      0.0000
      4 FE4        31.5590   -3.0640   36.6050 Fe    505  CLF505      0.0000
      5  S1        30.4110   -4.5260   35.1220 S.3   505  CLF505      0.0000
      6  S2A       29.8670   -0.6650   34.1220 S.3   505  CLF505      0.0000
      7  S4A       33.0300   -1.6130   35.5740 S.3   505  CLF505      0.0000
      8  S3A       30.0000   -1.7910   37.6010 S.3   505  CLF505      0.0000
      9 FE5        33.7600   -6.0680   36.2980 Fe    505  CLF505      0.0000
     10 FE6        31.0630   -8.2250   34.4220 Fe    505  CLF505      0.0000
     11 FE7        33.6670   -7.3990   33.7940 Fe    505  CLF505      0.0000
     12 FE8        32.0190   -5.2430   33.5240 Fe    505  CLF505      0.0000
     13  S2B       32.9000   -8.1060   35.8350 S.3   505  CLF505      0.0000
     14  S3B       31.8320   -7.2280   32.4340 S.3   505  CLF505      0.0000
     15  S4B       34.1630   -5.1930   34.1370 S.3   505  CLF505      0.0000
@<TRIPOS>BOND
     1    14    12    1
     2    14    11    1
     3    14    10    1
     4    12    11    1
     5    12    15    1
     6    12     5    1
     7    11    15    1
     8    11    10    1
     9    11    13    1
    10    11     9    1
    11     6     2    1
    12     6     1    1
    13     6     3    1
    14     2     5    1
    15     2     1    1
    16     2     7    1
    17     2     3    1
    18     2     4    1
    19    15     9    1
    20    10    13    1
    21     5     1    1
    22     5     4    1
    23     1     3    1
    24     1     4    1
    25     1     8    1
    26     7     3    1
    27     7     4    1
    28    13     9    1
    29     3     4    1
    30     3     8    1
    31     4     8    1
