@<TRIPOS>MOLECULE
1qh5_GSH_A_1.pdb
 20 19 0 0 0
SMALL
GASTEIGER

@<TRIPOS>ATOM
      1  N1         1.0480   58.2250   56.6620 N.3   463  GSH463     -0.1208
      2  CA1        0.8710   59.5880   56.1040 C.3   463  GSH463      0.1948
      3  C1        -0.4960   60.2150   56.5080 C.2   463  GSH463      0.3819
      4  O11       -1.5710   59.7710   56.0350 O.co2 463  GSH463     -0.2441
      5  O12       -0.4820   61.1730   57.3150 O.co2 463  GSH463     -0.2441
      6  CB1        1.0940   59.5290   54.5660 C.3   463  GSH463      0.0402
      7  CG1        0.7860   60.8280   53.7500 C.3   463  GSH463      0.0889
      8  CD1        1.9060   61.3910   52.8640 C.2   463  GSH463      0.2418
      9  OE1        2.8370   60.6670   52.4860 O.2   463  GSH463     -0.2733
     10  N2         1.8040   62.6890   52.5280 N.am  463  GSH463     -0.1968
     11  CA2        2.9060   63.3530   51.7910 C.3   463  GSH463      0.1843
     12  C2         4.0830   63.8690   52.7190 C.2   463  GSH463      0.2627
     13  O2         5.1460   64.2110   52.1990 O.2   463  GSH463     -0.2714
     14  CB2        2.3100   64.5260   50.9840 C.3   463  GSH463      0.0997
     15  SG2        1.1640   64.0230   49.6350 S.3   463  GSH463     -0.0797
     16  N3         3.7600   64.0030   54.0250 N.am  463  GSH463     -0.1917
     17  CA3        4.7260   64.6480   54.9470 C.3   463  GSH463      0.2285
     18  C3         4.9820   63.8730   56.2370 C.2   463  GSH463      0.3865
     19  O31        4.6540   62.6620   56.3520 O.co2 463  GSH463     -0.2437
     20  O32        5.5590   64.5120   57.1310 O.co2 463  GSH463     -0.2437
@<TRIPOS>BOND
     1    15    14    1
     2    14    11    1
     3    11    10    1
     4    11    12    1
     5    13    12    2
     6     9     8    2
     7    10     8   am
     8    12    16   am
     9     8     7    1
    10     7     6    1
    11    16    17    1
    12     6     2    1
    13    17    18    1
    14     4     3   ar
    15     2     3    1
    16     2     1    1
    17    18    19   ar
    18    18    20   ar
    19     3     5   ar
