@<TRIPOS>MOLECULE
1qh5_GBP_B_1.pdb
 31 31 0 0 0
SMALL
GASTEIGER

@<TRIPOS>ATOM
      1  C         27.1400   47.0380   60.8780 C.2   464  GBP464      0.3819
      2  OT1       27.4070   47.6590   61.9400 O.co2 464  GBP464     -0.2441
      3  OT2       26.9790   47.6360   59.7850 O.co2 464  GBP464     -0.2441
      4  N         28.1490   44.8450   60.1800 N.3   464  GBP464     -0.1208
      5  CA        26.9990   45.4860   60.8650 C.3   464  GBP464      0.1948
      6  CB        26.8580   44.8170   62.2590 C.3   464  GBP464      0.0402
      7  CB2       23.7650   40.7880   63.6550 C.3   464  GBP464      0.0950
      8  SG2       24.9030   40.4110   62.2620 S.3   464  GBP464     -0.0884
      9  CG        25.6450   45.2110   63.1510 C.3   464  GBP464      0.0889
     10  CD        24.3540   44.3880   63.0290 C.2   464  GBP464      0.2418
     11  OE        23.3810   44.8740   62.4390 O.2   464  GBP464     -0.2733
     12  N2        24.3550   43.1700   63.5780 N.am  464  GBP464     -0.1968
     13  CA2       23.2150   42.2280   63.5080 C.3   464  GBP464      0.1838
     14  C2        22.1190   42.4650   64.6180 C.2   464  GBP464      0.2626
     15  O2        21.0710   41.8100   64.5820 O.2   464  GBP464     -0.2714
     16  N3        22.4770   43.2850   65.6170 N.am  464  GBP464     -0.1917
     17  CA3       21.6770   43.4930   66.8410 C.3   464  GBP464      0.2285
     18  C3        21.3400   44.9440   67.1760 C.2   464  GBP464      0.3865
     19  O31       21.7200   45.8370   66.3880 O.co2 464  GBP464     -0.2437
     20  O32       20.6930   45.1800   68.2110 O.co2 464  GBP464     -0.2437
     21  NE2       24.5050   40.1130   59.5210 N.am  464  GBP464     -0.2537
     22  OF2       25.8290   40.1950   59.5320 O.3   464  GBP464     -0.4153
     23  CD2       23.9510   40.2710   60.7350 C.2   464  GBP464      0.1236
     24  OZ1       22.7410   40.2190   60.9380 O.2   464  GBP464     -0.5322
     25  CG2       23.8560   39.9020   58.2270 C.ar  464  GBP464      0.0580
     26  CL1       22.6260   40.4980   57.9120 C.ar  464  GBP464      0.0159
     27  CL2       24.5000   39.0890   57.2820 C.ar  464  GBP464      0.0159
     28  CM1       22.0320   40.3000   56.6680 C.ar  464  GBP464      0.0080
     29  CM2       23.9090   38.8940   56.0390 C.ar  464  GBP464      0.0080
     30  CZ        22.6890   39.4880   55.7480 C.ar  464  GBP464      0.0346
     31 BR         21.8930   39.2040   54.0660 Br    464  GBP464     -0.0490
@<TRIPOS>BOND
     1    31    30    1
     2    30    29   ar
     3    30    28   ar
     4    29    27   ar
     5    28    26   ar
     6    27    25   ar
     7    26    25   ar
     8    25    21    1
     9    21    22    1
    10    21    23   am
    11     3     1   ar
    12     4     5    1
    13    23    24    2
    14    23     8    1
    15     5     1    1
    16     5     6    1
    17     1     2   ar
    18     6     9    1
    19     8     7    1
    20    11    10    2
    21    10     9    1
    22    10    12   am
    23    13    12    1
    24    13     7    1
    25    13    14    1
    26    15    14    2
    27    14    16   am
    28    16    17    1
    29    19    18   ar
    30    17    18    1
    31    18    20   ar
