@<TRIPOS>MOLECULE
1qh6_FXP_A_1.pdb
 18 19 0 0 0
SMALL
GASTEIGER

@<TRIPOS>ATOM
      1  C1A       -2.8260   25.0680   16.6100 C.3   1001  FXP1001     0.1801
      2  C2A       -3.6650   26.2330   17.1340 C.3   1001  FXP1001     0.2229
      3  C3A       -2.8400   27.0460   18.1120 C.3   1001  FXP1001     0.2163
      4  C4A       -2.1180   26.1320   19.1070 C.3   1001  FXP1001     0.1803
      5  C5A       -2.4390   24.6220   18.9420 C.3   1001  FXP1001     0.1744
      6  F2A       -4.0330   27.0820   16.0800 F     1001  FXP1001    -0.2317
      7  O3A       -3.6830   28.0520   18.6550 O.3   1001  FXP1001    -0.2174
      8  O4A       -0.7140   26.2780   18.9250 O.3   1001  FXP1001    -0.3257
      9  O5A       -2.2050   24.3000   17.5980 O.3   1001  FXP1001    -0.3481
     10  C1B        0.0880   26.3680   20.0790 C.3   1001  FXP1001     0.2695
     11  C2B        1.5100   25.8810   19.7560 C.3   1001  FXP1001     0.2406
     12  C3B        2.4060   26.1100   20.9930 C.3   1001  FXP1001     0.2198
     13  C4B        2.3360   27.6200   21.3310 C.3   1001  FXP1001     0.2143
     14  C5B        0.8450   27.9450   21.6410 C.3   1001  FXP1001     0.1803
     15  O2B        1.5020   24.4820   19.4360 O.3   1001  FXP1001    -0.2149
     16  O3B        3.7560   25.7960   20.6500 O.3   1001  FXP1001    -0.2174
     17  O4B        3.0910   27.7620   22.5260 O.3   1001  FXP1001    -0.2176
     18  O5B        0.1580   27.7330   20.4220 O.3   1001  FXP1001    -0.3257
@<TRIPOS>BOND
     1     6     2    1
     2     1     2    1
     3     1     9    1
     4     2     3    1
     5     9     5    1
     6     3     7    1
     7     3     4    1
     8     8     4    1
     9     8    10    1
    10     5     4    1
    11    15    11    1
    12    11    10    1
    13    11    12    1
    14    10    18    1
    15    18    14    1
    16    16    12    1
    17    12    13    1
    18    13    14    1
    19    13    17    1
