@<TRIPOS>MOLECULE
1qh7_XYP_A_1.pdb
 10 10 0 0 0
SMALL
GASTEIGER

@<TRIPOS>ATOM
      1  O4A       -0.8500   26.0020   19.1990 O.3   1001  XYP1001    -0.1869
      2  C1B        0.0190   26.1540   20.2800 C.3   1001  XYP1001     0.3024
      3  C2B        1.4540   26.1230   19.7590 C.3   1001  XYP1001     0.2434
      4  C3B        2.3470   26.3800   20.9910 C.3   1001  XYP1001     0.2199
      5  C4B        2.1870   27.9200   21.0530 C.3   1001  XYP1001     0.2143
      6  C5B        0.7220   28.2860   21.2290 C.3   1001  XYP1001     0.1804
      7  O2B        1.8150   25.0060   19.0430 O.3   1001  XYP1001    -0.2148
      8  O3B        3.6550   25.9600   20.6580 O.3   1001  XYP1001    -0.2174
      9  O4B        3.0210   28.3830   22.0680 O.3   1001  XYP1001    -0.2176
     10  O5B       -0.2510   27.4020   20.8280 O.3   1001  XYP1001    -0.3237
@<TRIPOS>BOND
     1     7     3    1
     2     1     2    1
     3     3     2    1
     4     3     4    1
     5     2    10    1
     6     8     4    1
     7    10     6    1
     8     4     5    1
     9     5     6    1
    10     5     9    1
