@<TRIPOS>MOLECULE
1qh8_CFM_A_1.pdb
 17 34 0 0 0
SMALL
GASTEIGER

@<TRIPOS>ATOM
      1 FE1        36.9950   15.3270   41.7890 Fe    503  CFM503      0.0000
      2 FE2        36.7360   13.0900   40.3540 Fe    503  CFM503      0.0000
      3 FE3        39.0310   13.6990   41.6150 Fe    503  CFM503      0.0000
      4 FE4        38.2620   15.0940   39.4880 Fe    503  CFM503      0.0000
      5 FE5        39.5230   13.3970   37.9300 Fe    503  CFM503      0.0000
      6 FE6        38.0220   11.4440   38.8570 Fe    503  CFM503      0.0000
      7 FE7        40.2580   12.0210   40.0430 Fe    503  CFM503      0.0000
      8 MO1        40.3150   10.8390   37.6630 Mo    503  CFM503      0.0000
      9  S1A       36.0260   15.1240   39.6910 S.3   503  CFM503      0.0000
     10  S4A       39.1580   15.9120   41.4120 S.3   503  CFM503      0.0000
     11  S3A       39.1810   15.5870   37.5230 S.3   503  CFM503      0.0000
     12  S2A       37.0420   13.2490   42.5630 S.3   503  CFM503      0.0000
     13  S1B       38.4700   11.8590   36.7000 S.3   503  CFM503      0.0000
     14  S2B       35.9440   11.2360   39.5020 S.3   503  CFM503      0.0000
     15  S3B       39.4740    9.9620   39.6900 S.3   503  CFM503      0.0000
     16  S4B       41.5980   12.6670   38.3990 S.3   503  CFM503      0.0000
     17  S5        40.9050   12.5340   42.1130 S.3   503  CFM503      0.0000
@<TRIPOS>BOND
     1    13     8    1
     2    13     5    1
     3    13     6    1
     4    11     5    1
     5    11     4    1
     6     8    16    1
     7     8    15    1
     8     5    16    1
     9     5     6    1
    10     5     4    1
    11     5     7    1
    12    16     7    1
    13     6    14    1
    14     6    15    1
    15     6     7    1
    16     6     2    1
    17     4     9    1
    18     4    10    1
    19     4     3    1
    20     4     1    1
    21    14     2    1
    22    15     7    1
    23     9     2    1
    24     9     1    1
    25     7     3    1
    26     7    17    1
    27     2     1    1
    28     2    12    1
    29    10     3    1
    30    10     1    1
    31     3     1    1
    32     3    17    1
    33     3    12    1
    34     1    12    1
