@<TRIPOS>MOLECULE
1qh8_CLF_A_1.pdb
 15 36 0 0 0
SMALL
GASTEIGER

@<TRIPOS>ATOM
      1 FE1        29.2350   -2.5570   35.4730 Fe    505  CLF505      0.0000
      2 FE2        31.3070   -2.4490   34.0770 Fe    505  CLF505      0.0000
      3 FE3        31.0420   -0.5270   35.9790 Fe    505  CLF505      0.0000
      4 FE4        31.4860   -3.0990   36.5230 Fe    505  CLF505      0.0000
      5  S1        30.4400   -4.6100   35.0050 S.3   505  CLF505      0.0000
      6  S2A       29.7490   -0.7460   34.0810 S.3   505  CLF505      0.0000
      7  S4A       32.9410   -1.7050   35.4810 S.3   505  CLF505      0.0000
      8  S3A       29.9020   -1.8540   37.5250 S.3   505  CLF505      0.0000
      9 FE5        32.5550   -5.6050   35.4620 Fe    505  CLF505      0.0000
     10 FE6        30.8490   -6.8660   34.4190 Fe    505  CLF505      0.0000
     11 FE7        33.5310   -7.3780   33.6670 Fe    505  CLF505      0.0000
     12 FE8        31.9770   -5.2110   33.3180 Fe    505  CLF505      0.0000
     13  S2B       32.6660   -8.0070   35.7230 S.3   505  CLF505      0.0000
     14  S3B       31.7100   -7.2530   32.3340 S.3   505  CLF505      0.0000
     15  S4B       34.1050   -5.1740   34.0270 S.3   505  CLF505      0.0000
@<TRIPOS>BOND
     1    14    12    1
     2    14    11    1
     3    14    10    1
     4    12    11    1
     5    12    15    1
     6    12    10    1
     7    12     5    1
     8    12     9    1
     9    11    15    1
    10    11    10    1
    11    11     9    1
    12    11    13    1
    13    15     9    1
    14     2     6    1
    15     2     5    1
    16     2     1    1
    17     2     7    1
    18     2     3    1
    19     2     4    1
    20     6     1    1
    21     6     3    1
    22    10     5    1
    23    10     9    1
    24    10    13    1
    25     5     9    1
    26     5     1    1
    27     5     4    1
    28     9    13    1
    29     1     3    1
    30     1     4    1
    31     1     8    1
    32     7     3    1
    33     7     4    1
    34     3     4    1
    35     3     8    1
    36     4     8    1
