@<TRIPOS>MOLECULE
1qha_GLC_A_1.pdb
 12 12 0 0 0
SMALL
GASTEIGER

@<TRIPOS>ATOM
      1  C1        30.6670   14.0020   -1.9190 C.3   918  GLC918      0.3024
      2  C2        29.8490   13.5710   -0.7050 C.3   918  GLC918      0.2434
      3  C3        28.6110   12.8390   -1.1370 C.3   918  GLC918      0.2199
      4  C4        27.8040   13.6240   -2.1940 C.3   918  GLC918      0.2144
      5  C5        28.7740   13.7750   -3.4180 C.3   918  GLC918      0.1836
      6  C6        28.1610   14.6970   -4.4780 C.3   918  GLC918      0.2142
      7  O1        31.4160   12.9540   -2.4470 O.3   918  GLC918     -0.1869
      8  O2        30.6940   12.8780    0.2140 O.3   918  GLC918     -0.2148
      9  O3        27.8640   12.4960    0.0120 O.3   918  GLC918     -0.2174
     10  O4        26.7520   12.7120   -2.5870 O.3   918  GLC918     -0.2176
     11  O5        29.8190   14.6040   -2.8770 O.3   918  GLC918     -0.3236
     12  O6        27.6650   15.9010   -3.7970 O.3   918  GLC918     -0.2176
@<TRIPOS>BOND
     1     6    12    1
     2     6     5    1
     3     5    11    1
     4     5     4    1
     5    11     1    1
     6    10     4    1
     7     7     1    1
     8     4     3    1
     9     1     2    1
    10     3     2    1
    11     3     9    1
    12     2     8    1
