@<TRIPOS>MOLECULE
1qha_G6P_A_1.pdb
 16 16 0 0 0
SMALL
GASTEIGER

@<TRIPOS>ATOM
      1  C1        23.4720   18.3450   -5.5310 C.3   919  G6P919      0.3024
      2  C2        22.2630   19.2570   -5.2580 C.3   919  G6P919      0.2434
      3  C3        21.4010   19.2310   -6.5770 C.3   919  G6P919      0.2199
      4  C4        22.3730   19.8100   -7.6510 C.3   919  G6P919      0.2143
      5  C5        23.5490   18.8540   -7.8170 C.3   919  G6P919      0.1808
      6  C6        24.7160   19.1230   -8.7460 C.3   919  G6P919      0.1859
      7  O1        24.3070   18.2490   -4.3990 O.3   919  G6P919     -0.1869
      8  O2        21.5840   18.6330   -4.2330 O.3   919  G6P919     -0.2148
      9  O3        20.2060   19.9720   -6.4630 O.3   919  G6P919     -0.2174
     10  O4        21.5750   20.0810   -8.7790 O.3   919  G6P919     -0.2176
     11  O5        24.2730   18.9490   -6.5140 O.3   919  G6P919     -0.3237
     12  O6        26.0190   19.0960   -8.0530 O.3   919  G6P919     -0.2675
     13  P         26.9260   20.4430   -7.9550 P.3   919  G6P919      0.5327
     14  O1P       27.9850   19.8540   -6.9450 O.3   919  G6P919     -0.1145
     15  O2P       26.1840   21.5680   -7.4040 O.3   919  G6P919     -0.1145
     16  O3P       27.6060   20.7340   -9.2400 O.2   919  G6P919     -0.2224
@<TRIPOS>BOND
     1    16    13    2
     2    10     4    1
     3     6    12    1
     4     6     5    1
     5    12    13    1
     6    13    15    1
     7    13    14    1
     8     5     4    1
     9     5    11    1
    10     4     3    1
    11     3     9    1
    12     3     2    1
    13    11     1    1
    14     1     2    1
    15     1     7    1
    16     2     8    1
