@<TRIPOS>MOLECULE
1qha_ANP_A_1.pdb
 31 33 0 0 0
SMALL
GASTEIGER

@<TRIPOS>ATOM
      1  PG        33.6490   14.3970  -31.7350 P.3   999  ANP999      0.4884
      2  O1G       32.7990   13.8800  -32.8400 O.2   999  ANP999     -0.2331
      3  O2G       34.7500   15.2150  -32.2960 O.3   999  ANP999     -0.1240
      4  O3G       32.8040   15.2580  -30.8750 O.3   999  ANP999     -0.1240
      5  PB        35.6190   12.9190  -30.1250 P.3   999  ANP999      0.4669
      6  O1B       35.7620   13.7570  -28.9090 O.3   999  ANP999     -0.1253
      7  O2B       36.8430   13.0890  -30.9520 O.2   999  ANP999     -0.2351
      8  N3B       34.2550   13.1590  -30.9210 N.3   999  ANP999     -0.0163
      9  PA        35.6500   10.5840  -28.3510 P.3   999  ANP999      0.2220
     10  O1A       34.5420   10.8440  -27.4060 O.3   999  ANP999     -0.4370
     11  O2A       35.8130    9.1260  -28.5190 O.2   999  ANP999     -0.5170
     12  O3A       35.4390   11.3810  -29.7310 O.3   999  ANP999     -0.2360
     13  O5'       37.0240   11.2690  -27.8920 O.3   999  ANP999     -0.3111
     14  C5'       38.2650   10.8380  -28.5080 C.3   999  ANP999      0.1813
     15  C4'       39.5040   11.2950  -27.7720 C.3   999  ANP999      0.1821
     16  O4'       39.6510   10.6060  -26.5280 O.3   999  ANP999     -0.3135
     17  C3'       40.8400   11.2560  -28.4840 C.3   999  ANP999      0.2184
     18  O3'       41.5780   12.4870  -28.3410 O.3   999  ANP999     -0.2174
     19  C2'       41.5350   10.0600  -27.7860 C.3   999  ANP999      0.2570
     20  O2'       42.9570   10.2100  -27.8240 O.3   999  ANP999     -0.2130
     21  C1'       40.9790   10.2120  -26.3560 C.3   999  ANP999      0.3186
     22  N9        40.9480    8.9750  -25.6100 N.pl3 999  ANP999     -0.1439
     23  C8        40.4090    7.8190  -26.0690 C.3   999  ANP999      0.3377
     24  N7        40.3630    6.8290  -25.2570 N.2   999  ANP999     -0.2095
     25  C5        40.8490    7.3400  -24.1570 C.2   999  ANP999      0.2526
     26  C6        41.0410    6.7000  -22.9670 C.2   999  ANP999      0.4393
     27  N6        40.7050    5.4400  -22.7120 N.pl3 999  ANP999      0.2180
     28  N1        41.6340    7.4480  -22.0110 N.2   999  ANP999      0.0021
     29  C2        42.0140    8.7420  -22.2740 C.3   999  ANP999      0.5254
     30  N3        41.8490    9.4230  -23.3760 N.2   999  ANP999     -0.0055
     31  C4        41.2610    8.6540  -24.3050 C.2   999  ANP999      0.3518
@<TRIPOS>BOND
     1     2     1    2
     2     3     1    1
     3     1     8    1
     4     1     4    1
     5     7     5    2
     6     8     5    1
     7     5    12    1
     8     5     6    1
     9    12     9    1
    10    11     9    2
    11    14    13    1
    12    14    15    1
    13    17    18    1
    14    17    19    1
    15    17    15    1
    16     9    13    1
    17     9    10    1
    18    20    19    1
    19    19    21    1
    20    15    16    1
    21    16    21    1
    22    21    22    1
    23    23    22    1
    24    23    24    1
    25    22    31    1
    26    24    25    2
    27    31    25    1
    28    31    30    2
    29    25    26    1
    30    30    29    1
    31    26    27    1
    32    26    28    2
    33    29    28    1
