@<TRIPOS>MOLECULE
1qhc_PUA_A_1.pdb
 50 54 0 0 0
SMALL
GASTEIGER

@<TRIPOS>ATOM
      1  PA        38.9920   -4.3560   21.6870 P.3   901  PUA901      0.2189
      2  O1A       40.0580   -5.3370   22.1640 O.3   901  PUA901     -0.4371
      3  O2A       39.4970   -3.0000   21.1910 O.2   901  PUA901     -0.5170
      4  O5'       38.0870   -5.0020   20.5540 O.3   901  PUA901     -0.3112
      5  PB        37.0510   -2.8920   23.3060 P.3   901  PUA901      0.2188
      6  O1B       36.3860   -2.3420   22.1150 O.2   901  PUA901     -0.5170
      7  O2B       36.2360   -3.3300   24.4510 O.3   901  PUA901     -0.4371
      8  O3A       37.9380   -4.1190   22.8500 O.3   901  PUA901     -0.2703
      9  PG        39.7220   -9.8380   19.9040 P.3   901  PUA901      0.5327
     10  O1G       38.6520  -10.9000   20.1460 O.3   901  PUA901     -0.1145
     11  O2G       40.9320  -10.3570   19.1340 O.2   901  PUA901     -0.2224
     12  O3G       40.0870   -9.0700   21.1740 O.3   901  PUA901     -0.1145
     13  N9A       37.2400   -5.7040   16.3150 N.pl3 901  PUA901     -0.1439
     14  C4A       37.5340   -4.3630   16.1460 C.2   901  PUA901      0.3518
     15  N3A       38.2830   -3.5700   16.9460 N.2   901  PUA901     -0.0055
     16  C2A       38.3650   -2.3180   16.4440 C.3   901  PUA901      0.5254
     17  N1A       37.8180   -1.8170   15.3130 N.2   901  PUA901      0.0021
     18  C6A       37.0770   -2.6390   14.5350 C.2   901  PUA901      0.4393
     19  N6A       36.5470   -2.1430   13.4170 N.pl3 901  PUA901      0.2180
     20  C5A       36.9100   -3.9870   14.9570 C.2   901  PUA901      0.2526
     21  N7A       36.2250   -5.0600   14.4050 N.2   901  PUA901     -0.2095
     22  C8A       36.4440   -6.0450   15.2450 C.3   901  PUA901      0.3377
     23  C5'       37.3630   -6.1860   20.8110 C.3   901  PUA901      0.1812
     24  C4'       37.4940   -7.1150   19.6450 C.3   901  PUA901      0.1795
     25  O4'       36.8210   -6.5390   18.4850 O.3   901  PUA901     -0.3136
     26  C1'       37.6710   -6.6470   17.3620 C.3   901  PUA901      0.3185
     27  C2'       39.0800   -6.5310   17.9450 C.3   901  PUA901      0.2543
     28  O2'       40.0810   -7.0220   17.0640 O.3   901  PUA901     -0.2131
     29  C3'       38.9360   -7.3800   19.2100 C.3   901  PUA901      0.1928
     30  O3'       39.0320   -8.7660   18.8900 O.3   901  PUA901     -0.2673
     31  O5        39.8780    1.8350   22.3930 O.3   901  PUA901     -0.2675
     32  C5        40.5620    0.7860   23.1070 C.3   901  PUA901      0.1857
     33  C4        39.5800    0.0470   23.9840 C.3   901  PUA901      0.1746
     34  O4        38.8640    1.0110   24.7940 O.3   901  PUA901     -0.3340
     35  C1        37.4750    0.9180   24.5350 C.3   901  PUA901      0.2089
     36  C2        37.3500    0.2620   23.1740 C.3   901  PUA901      0.0845
     37  C3        38.5090   -0.7110   23.2010 C.3   901  PUA901      0.1556
     38  O3        38.1300   -1.8740   23.9250 O.3   901  PUA901     -0.3137
     39  PD        40.2490    2.1940   20.8430 P.3   901  PUA901      0.5327
     40  O1D       41.3350    3.2710   20.9280 O.3   901  PUA901     -0.1145
     41  O2D       38.9510    2.7070   20.1950 O.2   901  PUA901     -0.2224
     42  O3D       40.7550    0.8890   20.2250 O.3   901  PUA901     -0.1145
     43  N1U       36.9080    2.2720   24.5600 N.am  901  PUA901     -0.1790
     44  C6U       37.4650    3.3020   23.8020 C.2   901  PUA901      0.0928
     45  C2U       35.7660    2.4790   25.3340 C.1   901  PUA901      0.2844
     46  O2U       35.2660    1.6160   26.0290 O.2   901  PUA901     -0.1918
     47  N3U       35.2330    3.7450   25.2410 N.2   901  PUA901     -0.2452
     48  C4U       35.7040    4.7970   24.4630 C.1   901  PUA901      0.2182
     49  O4U       35.0040    5.7950   24.3380 O.2   901  PUA901     -0.2085
     50  C5U       36.9130    4.5210   23.7240 C.2   901  PUA901      0.1242
@<TRIPOS>BOND
     1    19    18    1
     2    21    20    2
     3    21    22    1
     4    18    20    1
     5    18    17    2
     6    20    14    1
     7    22    13    1
     8    17    16    1
     9    14    13    1
    10    14    15    2
    11    13    26    1
    12    16    15    1
    13    28    27    1
    14    26    27    1
    15    26    25    1
    16    27    29    1
    17    25    24    1
    18    30    29    1
    19    30     9    1
    20    11     9    2
    21    29    24    1
    22    24    23    1
    23     9    10    1
    24     9    12    1
    25    41    39    2
    26    42    39    1
    27     4    23    1
    28     4     1    1
    29    39    40    1
    30    39    31    1
    31     3     1    2
    32     1     2    1
    33     1     8    1
    34     6     5    2
    35    31    32    1
    36     8     5    1
    37    32    33    1
    38    36    37    1
    39    36    35    1
    40    37    38    1
    41    37    33    1
    42     5    38    1
    43     5     7    1
    44    50    44    2
    45    50    48    1
    46    44    43    1
    47    33    34    1
    48    49    48    2
    49    48    47    2
    50    35    43    1
    51    35    34    1
    52    43    45   am
    53    47    45    2
    54    45    46    2
