@<TRIPOS>MOLECULE
1qhf_3PG_A_1.pdb
 11 10 0 0 0
SMALL
GASTEIGER

@<TRIPOS>ATOM
      1  C1        -4.2520  -18.7840  -27.0270 C.2   252  3PG252      0.3972
      2  O1        -4.9370  -19.9530  -26.9130 O.co2 252  3PG252     -0.2427
      3  O2        -4.2740  -18.2370  -28.2500 O.co2 252  3PG252     -0.2427
      4  C2        -3.4260  -18.3400  -25.9030 C.3   252  3PG252      0.2838
      5  O3        -4.3160  -17.7190  -24.9450 O.3   252  3PG252     -0.2081
      6  C3        -2.3500  -17.3690  -26.3740 C.3   252  3PG252      0.1983
      7  O1P       -1.1510  -18.0100  -26.6740 O.3   252  3PG252     -0.2669
      8  P         -0.1410  -18.4580  -25.4480 P.3   252  3PG252      0.5327
      9  O2P        0.2960  -17.0780  -24.5840 O.3   252  3PG252     -0.1145
     10  O3P       -0.9110  -19.5530  -24.4210 O.3   252  3PG252     -0.1145
     11  O4P        1.2840  -19.1440  -26.0610 O.2   252  3PG252     -0.2224
@<TRIPOS>BOND
     1     3     1   ar
     2     1     2   ar
     3     1     4    1
     4     7     6    1
     5     7     8    1
     6     6     4    1
     7    11     8    2
     8     4     5    1
     9     8     9    1
    10     8    10    1
