@<TRIPOS>MOLECULE
1qhi_BPG_A_1.pdb
 22 24 0 0 0
SMALL
GASTEIGER

@<TRIPOS>ATOM
      1  C3'       49.5330   82.7660   53.5360 C.3     1  BPG1        0.1822
      2  O3'       50.6880   81.9810   53.4150 O.3     1  BPG1       -0.2204
      3  C2'       50.1280   84.0790   53.9940 C.3     1  BPG1        0.0373
      4  C12       49.0090   84.9770   54.5090 C.3     1  BPG1        0.0242
      5  C1'       48.3330   84.4090   55.7800 C.3     1  BPG1        0.0951
      6  N9        47.2000   85.2040   56.2780 N.pl3   1  BPG1       -0.2602
      7  C4        45.9030   85.3630   55.7030 C.2     1  BPG1        0.2282
      8  N3        45.4620   84.7860   54.5950 N.2     1  BPG1       -0.3084
      9  C2        44.1690   85.0400   54.3410 C.1     1  BPG1        0.2363
     10  N2        43.6170   84.4720   53.2280 N.pl3   1  BPG1       -0.1248
     11  N1        43.3700   85.8900   55.0690 N.2     1  BPG1       -0.2495
     12  C6        43.8080   86.5240   56.2240 C.1     1  BPG1        0.2372
     13  O6        43.0500   87.2500   56.8440 O.2     1  BPG1       -0.2069
     14  C5        45.1920   86.2010   56.5210 C.2     1  BPG1        0.2181
     15  N7        46.0010   86.6040   57.5840 N.2     1  BPG1       -0.2323
     16  C8        47.1320   85.9790   57.3810 C.3     1  BPG1        0.2228
     17  C04       45.3890   81.8380   50.4880 C.ar    1  BPG1        0.0001
     18  C05       45.8990   81.9210   51.8030 C.ar    1  BPG1        0.0014
     19  C06       45.3240   82.7950   52.7080 C.ar    1  BPG1        0.0174
     20  C01       44.2360   83.5720   52.3320 C.ar    1  BPG1        0.0835
     21  C02       43.7180   83.4810   51.0180 C.ar    1  BPG1        0.0174
     22  C03       44.2830   82.6070   50.1080 C.ar    1  BPG1        0.0014
@<TRIPOS>BOND
     1    22    17   ar
     2    22    21   ar
     3    17    18   ar
     4    21    20   ar
     5    18    19   ar
     6    20    19   ar
     7    20    10    1
     8    10     9    1
     9     2     1    1
    10     1     3    1
    11     3     4    1
    12     9     8    2
    13     9    11    2
    14     4     5    1
    15     8     7    2
    16    11    12    2
    17     7     6    1
    18     7    14    1
    19     5     6    1
    20    12    14    1
    21    12    13    2
    22     6    16    1
    23    14    15    2
    24    16    15    1
