@<TRIPOS>MOLECULE
1qhj_PH1_A_1.pdb
 45 44 0 0 0
SMALL
GASTEIGER

@<TRIPOS>ATOM
      1  O1         4.4730   31.7280   -5.2410 O.3   500  PH1500     -0.3512
      2  C1         4.5170   30.8740   -4.3230 C.3   500  PH1500      0.1423
      3  C2         5.4480   31.0970   -3.1430 C.3   500  PH1500      0.0321
      4  C3         5.9950   29.8430   -2.4950 C.3   500  PH1500      0.0025
      5  C4         7.3610   29.4380   -3.0320 C.3   500  PH1500      0.0001
      6  C5         5.9390   29.9130   -0.9800 C.3   500  PH1500      0.0001
      7  C6         6.5600   28.7330   -0.2430 C.3   500  PH1500      0.0000
      8  C7         7.3870   29.1160    0.9680 C.3   500  PH1500      0.0000
      9  C8         6.9920   28.3970    2.2460 C.3   500  PH1500      0.0000
     10  C9         7.6690   27.0490    2.4260 C.3   500  PH1500      0.0000
     11  C10        7.0540   29.2750    3.4760 C.3   500  PH1500      0.0000
     12  C11        7.2530   28.5140    4.7780 C.3   500  PH1500      0.0000
     13  C12        5.9750   28.3510    5.5820 C.3   500  PH1500      0.0000
     14  C13        5.6110   29.5410    6.4410 C.3   500  PH1500      0.0000
     15  C14        4.2680   29.3900    7.1310 C.3   500  PH1500      0.0000
     16  C15        6.7250   29.9360    7.3830 C.3   500  PH1500      0.0000
     17  C16        6.4030   29.7870    8.8630 C.3   500  PH1500      0.0000
     18  C17        5.5510   30.9310    9.3950 C.3   500  PH1500      0.0000
     19  C18        6.0480   31.5450   10.6780 C.3   500  PH1500      0.0000
     20  C19        6.1660   30.5660   11.8240 C.3   500  PH1500      0.0000
     21  C20        7.2750   32.4080   10.4980 C.3   500  PH1500      0.0000
     22  O31        4.4130   31.1600   -8.2060 O.3   500  PH1500     -0.3537
     23  C31        4.1370   31.3190   -9.4260 C.3   500  PH1500      0.1422
     24  C32        5.2440   31.5010  -10.4530 C.3   500  PH1500      0.0321
     25  C33        4.9740   32.5330  -11.5430 C.3   500  PH1500      0.0025
     26  C34        4.6870   31.9260  -12.9080 C.3   500  PH1500      0.0001
     27  C35        4.0230   33.6670  -11.1540 C.3   500  PH1500      0.0001
     28  C36        4.5590   35.0750  -11.4140 C.3   500  PH1500      0.0000
     29  C37        4.1180   36.0830  -10.3690 C.3   500  PH1500      0.0000
     30  C38        5.1090   36.3290   -9.2600 C.3   500  PH1500      0.0000
     31  C39        6.3270   37.1240   -9.7010 C.3   500  PH1500      0.0000
     32  C40        4.4550   36.8600   -7.9920 C.3   500  PH1500      0.0000
     33  C41        4.7650   36.0660   -6.7280 C.3   500  PH1500      0.0000
     34  C42        4.4470   36.8230   -5.4510 C.3   500  PH1500      0.0000
     35  C43        4.7170   36.0530   -4.1720 C.3   500  PH1500      0.0000
     36  C44        5.4580   34.7550   -4.4220 C.3   500  PH1500      0.0000
     37  C45        5.3410   36.8820   -3.0620 C.3   500  PH1500      0.0000
     38  C46        5.4150   36.1620   -1.7140 C.3   500  PH1500      0.0000
     39  C47        4.6870   34.8190   -1.6890 C.3   500  PH1500      0.0000
     40  C48        3.9610   34.5220   -0.3840 C.3   500  PH1500      0.0000
     41  C49        2.8100   33.5360   -0.5180 C.3   500  PH1500      0.0000
     42  C50        4.8900   34.2150    0.7810 C.3   500  PH1500      0.0000
     43  C51        3.5250   31.7760   -6.0620 C.3   500  PH1500      0.1715
     44  C52        3.5210   30.9530   -7.3460 C.3   500  PH1500      0.1448
     45  C53        2.1030   30.6550   -7.8060 C.3   500  PH1500      0.0347
@<TRIPOS>BOND
     1    26    25    1
     2    25    27    1
     3    25    24    1
     4    28    27    1
     5    28    29    1
     6    24    23    1
     7    29    30    1
     8    31    30    1
     9    23    22    1
    10    30    32    1
    11    22    44    1
    12    32    33    1
    13    45    44    1
    14    44    43    1
    15    33    34    1
    16    43     1    1
    17    34    35    1
    18     1     2    1
    19    36    35    1
    20     2     3    1
    21    35    37    1
    22     3     4    1
    23    37    38    1
    24     5     4    1
    25     4     6    1
    26    38    39    1
    27    39    40    1
    28     6     7    1
    29    41    40    1
    30    40    42    1
    31     7     8    1
    32     8     9    1
    33     9    10    1
    34     9    11    1
    35    11    12    1
    36    12    13    1
    37    13    14    1
    38    14    15    1
    39    14    16    1
    40    16    17    1
    41    17    18    1
    42    18    19    1
    43    21    19    1
    44    19    20    1
