@<TRIPOS>MOLECULE
1qhj_RET_A_1.pdb
 20 20 0 0 0
SMALL
GASTEIGER

@<TRIPOS>ATOM
      1  C1        14.7350   45.1080   -0.2670 C.3   300  RET300      0.0183
      2  C2        14.0340   46.0720   -1.2750 C.3   300  RET300      0.0044
      3  C3        14.7010   47.4300   -1.3720 C.3   300  RET300      0.0047
      4  C4        14.7580   48.1430   -0.0270 C.3   300  RET300      0.0217
      5  C5        15.1070   47.2220    1.1620 C.2   300  RET300     -0.0479
      6  C6        15.1110   45.8300    1.0850 C.2   300  RET300     -0.0307
      7  C7        15.5220   45.0720    2.2840 C.2   300  RET300     -0.0052
      8  C8        15.7520   43.8070    2.7120 C.2   300  RET300     -0.0046
      9  C9        16.2740   43.2560    3.9200 C.2   300  RET300     -0.0219
     10  C10       16.3810   41.9110    3.7920 C.2   300  RET300     -0.0043
     11  C11       16.9230   41.0040    4.7350 C.2   300  RET300     -0.0007
     12  C12       17.0110   39.6870    4.5700 C.2   300  RET300     -0.0046
     13  C13       17.4750   38.6900    5.4870 C.2   300  RET300     -0.0261
     14  C14       17.3410   37.4660    4.9240 C.2   300  RET300     -0.0300
     15  C15       17.5850   36.1860    5.3430 C.3   300  RET300      0.0304
     16  C16       13.7100   43.9860   -0.2190 C.3   300  RET300      0.0043
     17  C17       16.0340   44.5560   -0.9390 C.3   300  RET300      0.0043
     18  C18       15.3890   48.1500    2.3250 C.3   300  RET300      0.0260
     19  C19       16.7100   44.1510    5.0550 C.3   300  RET300      0.0310
     20  C20       17.9640   39.0090    6.8810 C.3   300  RET300      0.0307
@<TRIPOS>BOND
     1     3     2    1
     2     3     4    1
     3     2     1    1
     4    17     1    1
     5     1    16    1
     6     1     6    1
     7     4     5    1
     8     6     5    2
     9     6     7    1
    10     5    18    1
    11     7     8    2
    12     8     9    1
    13    10     9    2
    14    10    11    1
    15     9    19    1
    16    12    11    2
    17    12    13    1
    18    14    15    1
    19    14    13    2
    20    13    20    1
