@<TRIPOS>MOLECULE
1qho_MAL_A_1.pdb
 23 24 0 0 0
SMALL
GASTEIGER

@<TRIPOS>ATOM
      1  C1         2.6490   95.4750   37.5670 C.3   1201  MAL1201     0.2695
      2  C2         1.7270   95.1290   36.3940 C.3   1201  MAL1201     0.2406
      3  C3         0.2820   95.0170   36.9060 C.3   1201  MAL1201     0.2198
      4  C4         0.2500   93.9860   38.0360 C.3   1201  MAL1201     0.2144
      5  C5         1.1950   94.4180   39.1450 C.3   1201  MAL1201     0.1835
      6  C6         1.2900   93.3950   40.2750 C.3   1201  MAL1201     0.2142
      7  O1         2.3260   96.7970   37.9750 O.3   1201  MAL1201    -0.3257
      8  O2         1.8260   96.1280   35.3980 O.3   1201  MAL1201    -0.2149
      9  O3        -0.5110   94.5720   35.8180 O.3   1201  MAL1201    -0.2174
     10  O4        -1.0800   93.8760   38.5540 O.3   1201  MAL1201    -0.2176
     11  O5         2.5210   94.5450   38.6120 O.3   1201  MAL1201    -0.3256
     12  O6         2.0760   93.9420   41.3290 O.3   1201  MAL1201    -0.2176
     13  C1'        4.2950  100.3900   38.8000 C.3   1201  MAL1201     0.3023
     14  C2'        4.2880   99.9060   37.3490 C.3   1201  MAL1201     0.2433
     15  C3'        3.2010   98.8480   37.1260 C.3   1201  MAL1201     0.2168
     16  C4'        3.3960   97.7180   38.1350 C.3   1201  MAL1201     0.1804
     17  C5'        3.3690   98.3040   39.5570 C.3   1201  MAL1201     0.1804
     18  C6'        3.6570   97.2390   40.6140 C.3   1201  MAL1201     0.2141
     19  O1'        3.0940  101.0600   39.0280 O.3   1201  MAL1201    -0.1869
     20  O2'        4.0250  100.9810   36.4690 O.3   1201  MAL1201    -0.2148
     21  O3'        3.3000   98.3090   35.8160 O.3   1201  MAL1201    -0.2175
     22  O5'        4.3610   99.3100   39.7050 O.3   1201  MAL1201    -0.3237
     23  O6'        3.4160   97.7230   41.9320 O.3   1201  MAL1201    -0.2176
@<TRIPOS>BOND
     1     8     2    1
     2    21    15    1
     3     9     3    1
     4     2     3    1
     5     2     1    1
     6    20    14    1
     7     3     4    1
     8    15    14    1
     9    15    16    1
    10    14    13    1
    11     1     7    1
    12     1    11    1
    13     7    16    1
    14     4    10    1
    15     4     5    1
    16    16    17    1
    17    11     5    1
    18    13    19    1
    19    13    22    1
    20     5     6    1
    21    17    22    1
    22    17    18    1
    23     6    12    1
    24    18    23    1
