@<TRIPOS>MOLECULE
1qhp_MAL_A_1.pdb
 23 24 0 0 0
SMALL
GASTEIGER

@<TRIPOS>ATOM
      1  C1        36.3770   78.1630   29.3740 C.3   1289  MAL1289     0.2695
      2  C2        35.1890   77.2290   29.1910 C.3   1289  MAL1289     0.2406
      3  C3        35.4720   75.8490   29.7750 C.3   1289  MAL1289     0.2198
      4  C4        36.7570   75.3390   29.1370 C.3   1289  MAL1289     0.2144
      5  C5        37.8870   76.3350   29.3950 C.3   1289  MAL1289     0.1835
      6  C6        39.1870   75.9160   28.7390 C.3   1289  MAL1289     0.2142
      7  O1        36.5510   78.5100   30.7270 O.3   1289  MAL1289    -0.3257
      8  O2        34.0050   77.7160   29.7600 O.3   1289  MAL1289    -0.2149
      9  O3        34.3730   75.0160   29.4450 O.3   1289  MAL1289    -0.2174
     10  O4        37.1230   74.0820   29.7010 O.3   1289  MAL1289    -0.2176
     11  O5        37.5510   77.6120   28.8390 O.3   1289  MAL1289    -0.3256
     12  O6        40.3030   76.5070   29.3920 O.3   1289  MAL1289    -0.2176
     13  C1'       37.0910   81.7410   33.2020 C.3   1289  MAL1289     0.3023
     14  C2'       35.6640   81.5470   32.6520 C.3   1289  MAL1289     0.2433
     15  C3'       35.5350   80.1140   32.1180 C.3   1289  MAL1289     0.2168
     16  C4'       36.6070   79.9030   31.0440 C.3   1289  MAL1289     0.1804
     17  C5'       37.9800   80.2370   31.6390 C.3   1289  MAL1289     0.1804
     18  C6'       39.1650   80.0290   30.7230 C.3   1289  MAL1289     0.2141
     19  O1'       37.1890   83.0490   33.6660 O.3   1289  MAL1289    -0.1869
     20  O2'       34.7500   81.6620   33.7220 O.3   1289  MAL1289    -0.2148
     21  O3'       34.2700   79.8910   31.5290 O.3   1289  MAL1289    -0.2175
     22  O5'       38.0070   81.5780   32.1210 O.3   1289  MAL1289    -0.3237
     23  O6'       39.2520   80.9710   29.6710 O.3   1289  MAL1289    -0.2176
@<TRIPOS>BOND
     1     6    12    1
     2     6     5    1
     3    11     1    1
     4    11     5    1
     5     4     5    1
     6     4    10    1
     7     4     3    1
     8     2     1    1
     9     2     8    1
    10     2     3    1
    11     1     7    1
    12     9     3    1
    13    23    18    1
    14    18    17    1
    15     7    16    1
    16    16    17    1
    17    16    15    1
    18    21    15    1
    19    17    22    1
    20    15    14    1
    21    22    13    1
    22    14    13    1
    23    14    20    1
    24    13    19    1
