@<TRIPOS>MOLECULE
1qhr_157_B_1.pdb
 16 16 0 0 0
SMALL
GASTEIGER

@<TRIPOS>ATOM
      1  C1         8.3700   22.2400   50.9960 C.3   500  157500      0.0079
      2  C2         9.1030   23.4970   50.5890 C.3   500  157500      0.0011
      3  C3        10.2230   23.1310   49.6730 C.3   500  157500      0.0134
      4  C4         9.7290   22.4680   48.4120 C.3   500  157500      0.1335
      5  C5        10.8360   22.2680   47.4350 C.2   500  157500      0.4538
      6  N6        11.2260   23.2610   46.6640 N.pl3 500  157500      0.1994
      7  N7        11.4170   21.1090   47.2730 N.pl3 500  157500      0.1994
      8  O8         8.5250   23.6270   54.0650 O.2   500  157500     -0.2883
      9  O9         5.3320   22.5210   54.4660 O.3   500  157500     -0.2231
     10  C10        6.3410   21.6400   52.4660 C.3   500  157500      0.0378
     11  C11        5.1020   19.5650   52.5160 C.3   500  157500      0.0027
     12  C12        6.2690   20.2570   51.8370 C.3   500  157500      0.0030
     13  C13        5.8490   21.3700   53.8790 C.3   500  157500      0.1524
     14  C14        4.7300   20.3800   53.7430 C.3   500  157500      0.0329
     15  C16        7.7370   22.2450   52.3860 C.3   500  157500      0.0673
     16  C15        7.7660   23.5490   53.1390 C.2   500  157500      0.2070
@<TRIPOS>BOND
     1     6     5    2
     2     7     5    1
     3     5     4    1
     4     4     3    1
     5     3     2    1
     6     2     1    1
     7     1    15    1
     8    12    10    1
     9    12    11    1
    10    15    10    1
    11    15    16    1
    12    10    13    1
    13    11    14    1
    14    16     8    2
    15    14    13    1
    16    13     9    1
