@<TRIPOS>MOLECULE
1qhs_CLM_A_1.pdb
 20 20 0 0 0
SMALL
GASTEIGER

@<TRIPOS>ATOM
      1  C1        10.0680   53.2370   32.6350 C.3   999  CLM999      0.2356
      2 CL1        10.1740   54.9360   32.6830 Cl    999  CLM999     -0.0870
      3 CL2         9.0900   52.8380   31.2120 Cl    999  CLM999     -0.0870
      4  C2        11.5170   52.6220   32.3400 C.2   999  CLM999      0.2720
      5  O2        12.0020   52.7710   31.2270 O.2   999  CLM999     -0.2706
      6  N2        12.0600   51.9580   33.4100 N.am  999  CLM999     -0.1994
      7  C3        13.3850   51.2900   33.3220 C.3   999  CLM999      0.1626
      8  C4        13.3950   50.0410   34.2590 C.3   999  CLM999      0.2065
      9  O4        12.2700   49.1520   33.9350 O.3   999  CLM999     -0.2184
     10  C5        14.5710   52.3000   33.6290 C.3   999  CLM999      0.1966
     11  O5        15.7750   51.5780   33.3630 O.3   999  CLM999     -0.2163
     12  C6        14.6390   52.6430   35.1350 C.ar  999  CLM999      0.0096
     13  C7        13.6300   53.6030   35.6820 C.ar  999  CLM999     -0.0001
     14  C8        13.6360   53.9370   37.0590 C.ar  999  CLM999      0.0238
     15  C9        14.5860   53.3610   37.8800 C.ar  999  CLM999      0.1429
     16  N9        14.6860   53.6250   39.3570 N.pl3 999  CLM999      0.0577
     17  O9A       14.0970   54.5760   39.8160 O.2   999  CLM999     -0.1261
     18  O9B       15.3690   52.8270   40.0330 O.2   999  CLM999     -0.1261
     19  C10       15.5980   52.4230   37.4030 C.ar  999  CLM999      0.0238
     20  C11       15.6070   52.0810   36.0390 C.ar  999  CLM999     -0.0001
@<TRIPOS>BOND
     1     3     1    1
     2     5     4    2
     3     4     1    1
     4     4     6   am
     5     1     2    1
     6     7     6    1
     7     7    10    1
     8     7     8    1
     9    11    10    1
    10    10    12    1
    11     9     8    1
    12    12    13   ar
    13    12    20   ar
    14    13    14   ar
    15    20    19   ar
    16    14    15   ar
    17    19    15   ar
    18    15    16    1
    19    16    17    2
    20    16    18    2
