@<TRIPOS>MOLECULE
1qhx_ATP_A_1.pdb
 31 33 0 0 0
SMALL
GASTEIGER

@<TRIPOS>ATOM
      1  PG        13.0330   46.9940   32.9200 P.3   501  ATP501      0.5373
      2  O1G       11.6620   47.1720   33.4000 O.3   501  ATP501     -0.1143
      3  O2G       13.9980   46.8270   34.0240 O.3   501  ATP501     -0.1143
      4  O3G       13.3410   48.1200   31.9450 O.2   501  ATP501     -0.2221
      5  PB        12.8880   43.9150   32.5160 P.3   501  ATP501      0.2277
      6  O1B       14.0220   43.5280   33.3670 O.3   501  ATP501     -0.4368
      7  O2B       11.5510   43.6800   33.0540 O.2   501  ATP501     -0.5168
      8  O3B       13.0830   45.5290   32.0740 O.3   501  ATP501     -0.2258
      9  PA        11.9690   42.5760   30.2380 P.3   501  ATP501      0.2189
     10  O1A       11.3450   41.4050   30.9030 O.3   501  ATP501     -0.4371
     11  O2A       11.0630   43.6420   29.7060 O.2   501  ATP501     -0.5170
     12  O3A       13.0330   43.2030   31.2080 O.3   501  ATP501     -0.2700
     13  O5'       12.9590   42.0660   29.1280 O.3   501  ATP501     -0.3112
     14  C5'       13.2370   42.7960   27.9000 C.3   501  ATP501      0.1813
     15  C4'       13.0480   42.0110   26.8140 C.3   501  ATP501      0.1821
     16  O4'       13.7320   40.7540   27.0360 O.3   501  ATP501     -0.3135
     17  C3'       11.5960   41.6760   26.4840 C.3   501  ATP501      0.2184
     18  O3'       11.4620   41.9050   25.0580 O.3   501  ATP501     -0.2174
     19  C2'       11.4870   40.2280   26.9010 C.3   501  ATP501      0.2570
     20  O2'       10.5210   39.5060   26.1590 O.3   501  ATP501     -0.2130
     21  C1'       12.8950   39.6490   26.6680 C.3   501  ATP501      0.3186
     22  N9        13.2620   38.5000   27.5050 N.pl3 501  ATP501     -0.1439
     23  C8        12.9450   38.3630   28.8380 C.3   501  ATP501      0.3377
     24  N7        13.4160   37.2900   29.4040 N.2   501  ATP501     -0.2095
     25  C5        14.0870   36.6740   28.3640 C.2   501  ATP501      0.2526
     26  C6        14.8350   35.4630   28.2960 C.2   501  ATP501      0.4393
     27  N6        14.9750   34.7000   29.3590 N.pl3 501  ATP501      0.2180
     28  N1        15.3990   35.1010   27.1090 N.2   501  ATP501      0.0021
     29  C2        15.2390   35.8990   26.0360 C.3   501  ATP501      0.5254
     30  N3        14.5610   37.0720   25.9630 N.2   501  ATP501     -0.0055
     31  C4        14.0030   37.3990   27.1930 C.2   501  ATP501      0.3518
@<TRIPOS>BOND
     1    18    17    1
     2    30    29    1
     3    30    31    2
     4    29    28    1
     5    20    19    1
     6    17    15    1
     7    17    19    1
     8    21    19    1
     9    21    16    1
    10    21    22    1
    11    15    16    1
    12    15    14    1
    13    28    26    2
    14    31    22    1
    15    31    25    1
    16    22    23    1
    17    14    13    1
    18    26    25    1
    19    26    27    1
    20    25    24    2
    21    23    24    1
    22    13     9    1
    23    11     9    2
    24     9    10    1
    25     9    12    1
    26    12     5    1
    27     4     1    2
    28     8     5    1
    29     8     1    1
    30     5     7    2
    31     5     6    1
    32     1     2    1
    33     1     3    1
