@<TRIPOS>MOLECULE
1qhy_CLM_A_1.pdb
 20 20 0 0 0
SMALL
GASTEIGER

@<TRIPOS>ATOM
      1  C1        10.4300   53.5570   32.6780 C.3   999  CLM999      0.2356
      2 CL1        10.3050   55.0120   31.7780 Cl    999  CLM999     -0.0870
      3 CL2         9.1540   52.4870   32.0630 Cl    999  CLM999     -0.0870
      4  C2        11.8120   52.8190   32.3320 C.2   999  CLM999      0.2720
      5  O2        12.1660   52.7020   31.1630 O.2   999  CLM999     -0.2706
      6  N2        12.4300   52.3670   33.4520 N.am  999  CLM999     -0.1994
      7  C3        13.6940   51.6180   33.4240 C.3   999  CLM999      0.1626
      8  C4        13.4550   50.3430   34.2640 C.3   999  CLM999      0.2065
      9  O4        12.2620   49.6620   33.7350 O.3   999  CLM999     -0.2184
     10  C5        14.9350   52.4630   33.9230 C.3   999  CLM999      0.1966
     11  O5        16.0850   51.6410   33.7040 O.3   999  CLM999     -0.2163
     12  C6        14.8890   52.7050   35.4570 C.ar  999  CLM999      0.0096
     13  C7        13.8260   53.6280   36.0020 C.ar  999  CLM999     -0.0001
     14  C8        13.7340   53.8750   37.3970 C.ar  999  CLM999      0.0238
     15  C9        14.6330   53.2510   38.2390 C.ar  999  CLM999      0.1429
     16  N9        14.6470   53.4210   39.7230 N.pl3 999  CLM999      0.0577
     17  O9A       14.8630   54.5110   40.1610 O.2   999  CLM999     -0.1261
     18  O9B       14.4430   52.4100   40.4200 O.2   999  CLM999     -0.1261
     19  C10       15.6860   52.3490   37.7760 C.ar  999  CLM999      0.0238
     20  C11       15.7970   52.0890   36.3900 C.ar  999  CLM999     -0.0001
@<TRIPOS>BOND
     1     5     4    2
     2     2     1    1
     3     3     1    1
     4     4     1    1
     5     4     6   am
     6     7     6    1
     7     7    10    1
     8     7     8    1
     9    11    10    1
    10     9     8    1
    11    10    12    1
    12    12    13   ar
    13    12    20   ar
    14    13    14   ar
    15    20    19   ar
    16    14    15   ar
    17    19    15   ar
    18    15    16    1
    19    16    17    2
    20    16    18    2
