@<TRIPOS>MOLECULE
1qhy_AGS_A_1.pdb
 30 29 0 0 0
SMALL
GASTEIGER

@<TRIPOS>ATOM
      1  S1G       13.2470   47.7880   31.6600 S.3   501  AGS501      0.0000
      2  O2G       11.5380   46.7510   33.3240 O.3   501  AGS501      0.0000
      3  O3G       14.1060   47.0240   33.8130 O.3   501  AGS501      0.0000
      4  PB        12.7200   43.8800   32.3590 P.3   501  AGS501      0.5373
      5  O1B       13.4770   43.2810   33.4850 O.3   501  AGS501     -0.1143
      6  O2B       11.3430   44.0390   32.4820 O.3   501  AGS501     -0.1143
      7  O3B       13.3020   45.3490   31.9620 O.2   501  AGS501     -0.2221
      8  PA        11.8670   42.3920   30.1970 P.3   501  AGS501      0.2231
      9  O1A       11.1790   41.2810   30.9460 O.3   501  AGS501     -0.4370
     10  O2A       10.8720   43.4210   29.6160 O.2   501  AGS501     -0.5169
     11  O3A       12.9820   43.0810   31.1410 O.3   501  AGS501     -0.2261
     12  O5'       12.7920   41.7720   29.0870 O.3   501  AGS501     -0.3111
     13  C5'       13.0770   42.5550   27.8870 C.3   501  AGS501      0.1813
     14  C4'       12.6410   41.9160   26.7880 C.3   501  AGS501      0.1821
     15  O4'       13.3580   40.6640   26.7030 O.3   501  AGS501     -0.3135
     16  C3'       11.1510   41.5850   26.7670 C.3   501  AGS501      0.2184
     17  O3'       10.6530   42.0300   25.4880 O.3   501  AGS501     -0.2174
     18  C2'       11.0950   40.0820   26.9740 C.3   501  AGS501      0.2570
     19  O2'       10.0990   39.4380   26.1940 O.3   501  AGS501     -0.2130
     20  C1'       12.4880   39.5310   26.5920 C.3   501  AGS501      0.3186
     21  N9        13.0060   38.4510   27.4560 N.pl3 501  AGS501     -0.1439
     22  C8        12.7230   38.2920   28.7930 C.3   501  AGS501      0.3377
     23  N7        13.2980   37.2690   29.3570 N.2   501  AGS501     -0.2095
     24  C5        14.0100   36.7120   28.3070 C.2   501  AGS501      0.2526
     25  C6        14.8700   35.5790   28.2210 C.2   501  AGS501      0.4393
     26  N6        15.0940   34.8190   29.2760 N.pl3 501  AGS501      0.2180
     27  N1        15.4450   35.2770   27.0240 N.2   501  AGS501      0.0021
     28  C2        15.2000   36.0610   25.9610 C.3   501  AGS501      0.5254
     29  N3        14.4150   37.1620   25.9050 N.2   501  AGS501     -0.0055
     30  C4        13.8500   37.4350   27.1420 C.2   501  AGS501      0.3518
@<TRIPOS>BOND
     1    17    16    1
     2    29    28    1
     3    29    30    2
     4    28    27    1
     5    19    18    1
     6    20    15    1
     7    20    18    1
     8    20    21    1
     9    15    14    1
    10    16    14    1
    11    16    18    1
    12    14    13    1
    13    27    25    2
    14    30    21    1
    15    30    24    1
    16    21    22    1
    17    13    12    1
    18    25    24    1
    19    25    26    1
    20    24    23    2
    21    22    23    1
    22    12     8    1
    23    10     8    2
    24     8     9    1
    25     8    11    1
    26    11     4    1
    27     7     4    2
    28     4     6    1
    29     4     5    1
