@<TRIPOS>MOLECULE
1qi0_CBI_A_1.pdb
 23 24 0 0 0
SMALL
GASTEIGER

@<TRIPOS>ATOM
      1  C1        -4.0600   43.0330   12.2230 C.3   501  CBI501      0.2695
      2  C2        -5.1400   41.9280   11.8490 C.3   501  CBI501      0.2406
      3  C3        -6.6030   42.5000   11.8490 C.3   501  CBI501      0.2198
      4  C4        -6.8940   43.2440   13.1880 C.3   501  CBI501      0.2144
      5  C5        -5.7720   44.2850   13.4930 C.3   501  CBI501      0.1835
      6  C6        -5.8720   44.8640   14.9210 C.3   501  CBI501      0.2142
      7  O2        -4.8360   41.3570   10.5850 O.3   501  CBI501     -0.2149
      8  O3        -7.5630   41.4460   11.7340 O.3   501  CBI501     -0.2174
      9  O4        -8.1840   43.8540   13.1520 O.3   501  CBI501     -0.2176
     10  O5        -4.4890   43.6360   13.4390 O.3   501  CBI501     -0.3256
     11  O6        -5.9580   44.0060   16.0440 O.3   501  CBI501     -0.2176
     12  C1'        1.2970   43.5920   12.3250 C.3   501  CBI501      0.3023
     13  C2'        0.5970   43.5450   13.7080 C.3   501  CBI501      0.2433
     14  C3'       -0.7430   42.7430   13.6790 C.3   501  CBI501      0.2168
     15  C4'       -1.6420   43.1720   12.4470 C.3   501  CBI501      0.1804
     16  C5'       -0.7580   43.0880   11.1300 C.3   501  CBI501      0.1804
     17  C6'       -1.5500   43.5930    9.8950 C.3   501  CBI501      0.2141
     18  O1'        2.2940   44.5890   12.2370 O.3   501  CBI501     -0.1869
     19  O2'        1.5020   43.0460   14.6760 O.3   501  CBI501     -0.2148
     20  O3'       -1.4850   42.8710   14.8870 O.3   501  CBI501     -0.2175
     21  O4'       -2.8070   42.3850   12.4090 O.3   501  CBI501     -0.3257
     22  O5'        0.4240   43.8860   11.2420 O.3   501  CBI501     -0.3237
     23  O6'       -2.1380   44.8600   10.1420 O.3   501  CBI501     -0.2176
@<TRIPOS>BOND
     1    17    23    1
     2    17    16    1
     3     7     2    1
     4    16    22    1
     5    16    15    1
     6    22    12    1
     7     8     3    1
     8     2     3    1
     9     2     1    1
    10     3     4    1
    11     1    21    1
    12     1    10    1
    13    18    12    1
    14    12    13    1
    15    21    15    1
    16    15    14    1
    17     9     4    1
    18     4     5    1
    19    10     5    1
    20     5     6    1
    21    14    13    1
    22    14    20    1
    23    13    19    1
    24     6    11    1
