@<TRIPOS>MOLECULE
1qi1_G3P_B_1.pdb
 10 9 0 0 0
SMALL
GASTEIGER

@<TRIPOS>ATOM
      1  O1       -10.3060  101.1530  -13.8680 O.2   505  G3P505     -0.2854
      2  C1        -9.6540  101.7650  -12.9520 C.2   505  G3P505      0.2426
      3  C2       -10.2660  102.9980  -12.3090 C.3   505  G3P505      0.2459
      4  O2        -9.2920  103.6650  -11.4980 O.3   505  G3P505     -0.2119
      5  C3       -11.4710  102.5800  -11.4600 C.3   505  G3P505      0.1946
      6  O1P      -11.1360  101.4760  -10.5910 O.3   505  G3P505     -0.2670
      7  O4P      -11.6580   99.9050   -8.7020 O.3   505  G3P505     -0.1145
      8  O2P      -12.9710  101.9150   -8.9160 O.3   505  G3P505     -0.1145
      9  O3P      -13.2420  100.1220  -10.4990 O.2   505  G3P505     -0.2224
     10  P        -12.2670  100.8460   -9.6600 P.3   505  G3P505      0.5327
@<TRIPOS>BOND
     1     1     2    2
     2     2     3    1
     3     3     4    1
     4     3     5    1
     5     5     6    1
     6     6    10    1
     7     9    10    2
     8    10     8    1
     9    10     7    1
