@<TRIPOS>MOLECULE
1qi1_G3H_A_1.pdb
 10 9 0 0 0
SMALL
GASTEIGER

@<TRIPOS>ATOM
      1  O1        19.6050  133.1650   -1.0070 O.3   504  G3H504     -0.2175
      2  C1        18.7230  132.5270   -0.3180 C.3   504  G3H504      0.2174
      3  C2        18.5640  132.8090    1.1660 C.3   504  G3H504      0.2147
      4  O2        17.9000  131.7340    1.8000 O.3   504  G3H504     -0.2176
      5  C3        17.7510  134.0880    1.3450 C.3   504  G3H504      0.1892
      6  O1P       18.3450  134.9770    2.3080 O.3   504  G3H504     -0.2674
      7  O2P       17.1680  134.0650    4.3490 O.3   504  G3H504     -0.1145
      8  O3P       18.4710  136.0950    4.5550 O.3   504  G3H504     -0.1145
      9  O4P       16.3600  136.1300    3.4160 O.2   504  G3H504     -0.2224
     10  P         17.5700  135.3210    3.6710 P.3   504  G3H504      0.5327
@<TRIPOS>BOND
     1     1     2    1
     2     2     3    1
     3     3     5    1
     4     3     4    1
     5     5     6    1
     6     6    10    1
     7     9    10    2
     8    10     7    1
     9    10     8    1
