@<TRIPOS>MOLECULE
1qi1_NAP_A_1.pdb
 48 52 0 0 0
SMALL
GASTEIGER

@<TRIPOS>ATOM
      1  PA        23.5640  126.8520  -10.4560 P.3   500  NAP500      0.2189
      2  O1A       22.1160  126.6040  -10.5440 O.3   500  NAP500     -0.4371
      3  O2A       24.4680  126.2510  -11.4560 O.2   500  NAP500     -0.5170
      4  O5B       24.1510  126.4740   -9.0040 O.3   500  NAP500     -0.3112
      5  C5B       23.4750  125.5550   -8.1200 C.3   500  NAP500      0.1813
      6  C4B       23.9290  124.1020   -8.1940 C.3   500  NAP500      0.1820
      7  O4B       23.7880  123.6210   -9.5260 O.3   500  NAP500     -0.3136
      8  C3B       25.3870  123.8180   -7.8560 C.3   500  NAP500      0.2157
      9  O3B       25.4530  122.7860   -6.8790 O.3   500  NAP500     -0.2175
     10  C2B       26.0520  123.3570   -9.1500 C.3   500  NAP500      0.2314
     11  O2B       27.2320  122.5650   -8.8710 O.3   500  NAP500     -0.2630
     12  C1B       24.8250  122.6310   -9.6770 C.3   500  NAP500      0.3158
     13  N9A       24.8420  122.0730  -11.0590 N.pl3 500  NAP500     -0.1439
     14  C8A       25.1660  122.7120  -12.1970 C.3   500  NAP500      0.3377
     15  N7A       24.7970  121.9890  -13.2610 N.2   500  NAP500     -0.2095
     16  C5A       24.2430  120.8950  -12.7520 C.2   500  NAP500      0.2526
     17  C6A       23.4670  119.9810  -13.4680 C.2   500  NAP500      0.4393
     18  N6A       23.5410  119.8730  -14.7930 N.pl3 500  NAP500      0.2180
     19  N1A       22.7340  119.1100  -12.7360 N.2   500  NAP500      0.0021
     20  C2A       22.7760  119.1130  -11.4040 C.3   500  NAP500      0.5254
     21  N3A       23.5280  119.9860  -10.7330 N.2   500  NAP500     -0.0055
     22  C4A       24.2550  120.9160  -11.3800 C.2   500  NAP500      0.3518
     23  O3        23.7800  128.3600  -10.4660 O.3   500  NAP500     -0.2703
     24  PN        25.0880  129.2130  -10.6370 P.3   500  NAP500      0.2189
     25  O1N       24.8540  130.1170  -11.7950 O.2   500  NAP500     -0.5170
     26  O2N       26.2620  128.3060  -10.6570 O.3   500  NAP500     -0.4371
     27  O5D       25.2050  130.1150   -9.2680 O.3   500  NAP500     -0.3112
     28  C5D       24.6410  129.7010   -8.0100 C.3   500  NAP500      0.1813
     29  C4D       23.1990  130.1470   -7.9880 C.3   500  NAP500      0.1799
     30  O4D       22.6480  130.2140   -6.6600 O.3   500  NAP500     -0.3327
     31  C3D       22.8960  131.5450   -8.5680 C.3   500  NAP500      0.2158
     32  O3D       23.1010  131.7870   -9.9870 O.3   500  NAP500     -0.2175
     33  C2D       21.4510  131.7070   -8.1080 C.3   500  NAP500      0.2309
     34  O2D       20.4950  131.6400   -9.1880 O.3   500  NAP500     -0.2158
     35  C1D       21.3300  130.5630   -7.1080 C.3   500  NAP500      0.2263
     36  N1N       20.2860  130.8240   -6.1140 N.pl3 500  NAP500     -0.2787
     37  C2N       20.5430  130.5090   -4.7620 C.3   500  NAP500      0.1244
     38  C3N       19.5030  130.6460   -3.8300 C.2   500  NAP500      0.0544
     39  C7N       19.7420  130.2720   -2.5660 C.2   500  NAP500      0.2818
     40  O7N       20.8760  129.8570   -2.3060 O.2   500  NAP500     -0.2670
     41  N7N       18.8060  130.5110   -1.6390 N.am  500  NAP500     -0.0839
     42  C4N       18.2540  131.0520   -4.2730 C.2   500  NAP500      0.0033
     43  C5N       18.0260  131.3830   -5.5890 C.2   500  NAP500      0.0157
     44  C6N       19.0400  131.3020   -6.5160 C.2   500  NAP500      0.0633
     45  P2B       28.5060  123.3550   -9.5210 P.3   500  NAP500      0.5328
     46  O1X       28.6550  124.6750   -8.8660 O.3   500  NAP500     -0.1145
     47  O2X       29.6590  122.4430   -9.5560 O.3   500  NAP500     -0.1145
     48  O3X       28.1210  123.5510  -11.0520 O.2   500  NAP500     -0.2224
@<TRIPOS>BOND
     1    18    17    1
     2    17    16    1
     3    17    19    2
     4    15    16    2
     5    15    14    1
     6    16    22    1
     7    19    20    1
     8    14    13    1
     9    25    24    2
    10     3     1    2
    11    20    21    1
    12    22    13    1
    13    22    21    2
    14    13    12    1
    15    48    45    2
    16    26    24    1
    17    24    23    1
    18    24    27    1
    19     2     1    1
    20    23     1    1
    21     1     4    1
    22    32    31    1
    23    12     7    1
    24    12    10    1
    25    47    45    1
    26     7     6    1
    27    45    11    1
    28    45    46    1
    29    27    28    1
    30    34    33    1
    31    10    11    1
    32    10     8    1
    33     4     5    1
    34    31    33    1
    35    31    29    1
    36     6     5    1
    37     6     8    1
    38    33    35    1
    39    28    29    1
    40    29    30    1
    41     8     9    1
    42    35    30    1
    43    35    36    1
    44    44    36    1
    45    44    43    2
    46    36    37    1
    47    43    42    1
    48    37    38    1
    49    42    38    2
    50    38    39    1
    51    39    40    2
    52    39    41   am
