@<TRIPOS>MOLECULE
1qi2_FCT_A_1.pdb
 33 35 0 0 0
SMALL
GASTEIGER

@<TRIPOS>ATOM
      1  C1A        5.5770   45.3290    9.6990 C.3   500  FCT500      0.1801
      2  C2A        4.3120   45.9150    9.1480 C.3   500  FCT500      0.2229
      3  C3A        3.2930   45.9340   10.2780 C.3   500  FCT500      0.2163
      4  C4A        3.0820   44.5000   10.7970 C.3   500  FCT500      0.1804
      5  C5A        4.4090   44.0070   11.3400 C.3   500  FCT500      0.1778
      6  C6A        4.3400   42.5580   11.8420 C.3   500  FCT500      0.2140
      7  F2A        4.6030   47.2010    8.7190 F     500  FCT500     -0.2317
      8  O3A        2.1080   46.4550    9.7000 O.3   500  FCT500     -0.2174
      9  O4A        2.2080   44.5660   11.9240 O.3   500  FCT500     -0.3257
     10  O5A        5.3980   44.0840   10.3250 O.3   500  FCT500     -0.3480
     11  O6A        3.8760   41.8050   10.7320 O.3   500  FCT500     -0.2176
     12  C1B        1.2010   43.5680   11.9310 C.3   500  FCT500      0.2695
     13  C2B        0.5360   43.6410   13.3080 C.3   500  FCT500      0.2404
     14  C3B       -0.6710   42.6780   13.2870 C.3   500  FCT500      0.2167
     15  C4B       -1.6120   43.1020   12.1530 C.3   500  FCT500      0.1804
     16  C5B       -0.8350   43.0390   10.8360 C.3   500  FCT500      0.1803
     17  C6B       -1.6430   43.3880    9.5950 C.3   500  FCT500      0.2141
     18  O2B        1.5780   43.2590   14.1820 O.3   500  FCT500     -0.2149
     19  O3B       -1.3350   42.7660   14.5290 O.3   500  FCT500     -0.2175
     20  O4B       -2.7180   42.2060   12.1060 O.3   500  FCT500     -0.3257
     21  O5B        0.2650   43.9260   10.9520 O.3   500  FCT500     -0.3257
     22  O6B       -2.1510   44.6980    9.7490 O.3   500  FCT500     -0.2176
     23  C1C       -3.9750   42.8450   12.0010 C.3   500  FCT500      0.2695
     24  C2C       -4.9940   41.7900   11.6240 C.3   500  FCT500      0.2406
     25  C3C       -6.3950   42.4130   11.6580 C.3   500  FCT500      0.2198
     26  C4C       -6.6560   43.0680   13.0410 C.3   500  FCT500      0.2144
     27  C5C       -5.5150   44.0930   13.2900 C.3   500  FCT500      0.1835
     28  C6C       -5.6460   44.8000   14.6540 C.3   500  FCT500      0.2142
     29  O2C       -4.6150   41.3550   10.3200 O.3   500  FCT500     -0.2149
     30  O3C       -7.2910   41.3260   11.4150 O.3   500  FCT500     -0.2174
     31  O4C       -7.8600   43.8210   12.9010 O.3   500  FCT500     -0.2176
     32  O5C       -4.3070   43.3600   13.2790 O.3   500  FCT500     -0.3256
     33  O6C       -5.8890   43.7880   15.6230 O.3   500  FCT500     -0.2176
@<TRIPOS>BOND
     1     7     2    1
     2     2     1    1
     3     2     3    1
     4    17    22    1
     5    17    16    1
     6     1    10    1
     7     8     3    1
     8     3     4    1
     9    29    24    1
    10    10     5    1
    11    11     6    1
    12     4     5    1
    13     4     9    1
    14    16    21    1
    15    16    15    1
    16    21    12    1
    17     5     6    1
    18    30    25    1
    19    24    25    1
    20    24    23    1
    21    25    26    1
    22     9    12    1
    23    12    13    1
    24    23    20    1
    25    23    32    1
    26    20    15    1
    27    15    14    1
    28    31    26    1
    29    26    27    1
    30    32    27    1
    31    14    13    1
    32    14    19    1
    33    27    28    1
    34    13    18    1
    35    28    33    1
