@<TRIPOS>MOLECULE
1qi3_MTT_A_1.pdb
 45 48 0 0 0
SMALL
GASTEIGER

@<TRIPOS>ATOM
      1  O14       35.7420   89.3270   10.1290 O.3   460  MTT460     -0.2176
      2  C14       36.9130   89.7950   10.7220 C.3   460  MTT460      0.2144
      3  C13       37.8030   90.3250    9.5910 C.3   460  MTT460      0.2198
      4  O13       38.0180   89.3050    8.6360 O.3   460  MTT460     -0.2174
      5  C12       39.0640   90.9160   10.1910 C.3   460  MTT460      0.2406
      6  O12       39.8870   91.5100    9.1840 O.3   460  MTT460     -0.2149
      7  C11       38.7730   91.9560   11.2590 C.3   460  MTT460      0.2695
      8  C15       36.6060   90.9140   11.7050 C.3   460  MTT460      0.1835
      9  O15       37.8470   91.4460   12.2180 O.3   460  MTT460     -0.3256
     10  C16       35.8200   90.4850   12.9010 C.3   460  MTT460      0.2142
     11  O16       36.6910   89.9900   13.9330 O.3   460  MTT460     -0.2176
     12  O24       38.2960   93.1800   10.7080 O.3   460  MTT460     -0.3257
     13  C24       39.0950   94.3600   10.7570 C.3   460  MTT460      0.1804
     14  C23       39.0150   95.0590    9.4070 C.3   460  MTT460      0.2167
     15  O23       39.6260   94.3690    8.3290 O.3   460  MTT460     -0.2175
     16  C22       39.6700   96.4290    9.4960 C.3   460  MTT460      0.2404
     17  O22       39.5110   97.1140    8.2570 O.3   460  MTT460     -0.2149
     18  C21       39.0320   97.2230   10.5930 C.3   460  MTT460      0.2695
     19  C25       38.4840   95.2590   11.8690 C.3   460  MTT460      0.1803
     20  O25       39.1710   96.5130   11.8340 O.3   460  MTT460     -0.3257
     21  C26       38.6700   94.6500   13.2250 C.3   460  MTT460      0.2141
     22  O26       39.9520   94.9150   13.7670 O.3   460  MTT460     -0.2176
     23  O34       37.6910   97.6250   10.4920 O.3   460  MTT460     -0.3257
     24  C34       37.2940   98.9180   10.8210 C.3   460  MTT460      0.1804
     25  C33       36.8920   99.6580    9.5560 C.3   460  MTT460      0.2167
     26  O33       38.0010   99.7260    8.6820 O.3   460  MTT460     -0.2175
     27  C32       36.4500  101.0620    9.8730 C.3   460  MTT460      0.2404
     28  O32       35.8490  101.6380    8.7040 O.3   460  MTT460     -0.2149
     29  C31       35.4880  101.1130   10.9970 C.3   460  MTT460      0.2695
     30  C35       36.2080   98.9680   11.8830 C.3   460  MTT460      0.1803
     31  O35       35.8750  100.3450   12.1250 O.3   460  MTT460     -0.3257
     32  C36       36.6270   98.3610   13.1910 C.3   460  MTT460      0.2141
     33  O36       37.8200   98.9730   13.6900 O.3   460  MTT460     -0.2176
     34  O44       34.2870  100.7100   10.4200 O.3   460  MTT460     -0.3257
     35  C44       33.0360  101.1240   10.8810 C.3   460  MTT460      0.1804
     36  C43       32.7190  102.4150   10.1390 C.3   460  MTT460      0.2168
     37  O43       33.1520  103.5310   11.0050 O.3   460  MTT460     -0.2175
     38  C42       31.2840  102.6490    9.7770 C.3   460  MTT460      0.2433
     39  O42       31.1610  102.9460    8.3600 O.3   460  MTT460     -0.2148
     40  C41       30.2670  101.6630   10.1870 C.3   460  MTT460      0.3023
     41  O41       29.2710  101.4640    9.2500 O.3   460  MTT460     -0.1869
     42  C45       32.0400  100.0170   10.7300 C.3   460  MTT460      0.1804
     43  O45       30.7190  100.4830   10.7620 O.3   460  MTT460     -0.3237
     44  C46       32.1440   98.9420   11.8000 C.3   460  MTT460      0.2141
     45  O46       31.9530   99.4540   13.0870 O.3   460  MTT460     -0.2176
@<TRIPOS>BOND
     1    17    16    1
     2    15    14    1
     3    39    38    1
     4     4     3    1
     5    26    25    1
     6    28    27    1
     7     6     5    1
     8    41    40    1
     9    14    16    1
    10    14    13    1
    11    16    18    1
    12    25    27    1
    13    25    24    1
    14     3     5    1
    15     3     2    1
    16    38    36    1
    17    38    40    1
    18    27    29    1
    19     1     2    1
    20    36    35    1
    21    36    37    1
    22    40    43    1
    23     5     7    1
    24    34    35    1
    25    34    29    1
    26    23    18    1
    27    23    24    1
    28    18    20    1
    29    12    13    1
    30    12     7    1
    31     2     8    1
    32    42    43    1
    33    42    35    1
    34    42    44    1
    35    13    19    1
    36    24    30    1
    37    29    31    1
    38     7     9    1
    39     8     9    1
    40     8    10    1
    41    44    45    1
    42    20    19    1
    43    19    21    1
    44    30    31    1
    45    30    32    1
    46    10    11    1
    47    32    33    1
    48    21    22    1
