@<TRIPOS>MOLECULE
1qi4_MTT_A_1.pdb
 45 48 0 0 0
SMALL
GASTEIGER

@<TRIPOS>ATOM
      1  O14       35.4200   89.3210   10.2920 O.3   460  MTT460     -0.2176
      2  C14       36.5800   89.9470   10.7590 C.3   460  MTT460      0.2144
      3  C13       37.5000   90.4240    9.6190 C.3   460  MTT460      0.2198
      4  O13       37.8380   89.2950    8.8310 O.3   460  MTT460     -0.2174
      5  C12       38.7090   91.1020   10.2350 C.3   460  MTT460      0.2406
      6  O12       39.5390   91.6970    9.2530 O.3   460  MTT460     -0.2149
      7  C11       38.3860   92.1610   11.2750 C.3   460  MTT460      0.2695
      8  C15       36.2170   91.1090   11.6710 C.3   460  MTT460      0.1835
      9  O15       37.4340   91.6750   12.2150 O.3   460  MTT460     -0.3256
     10  C16       35.4290   90.7030   12.8790 C.3   460  MTT460      0.2142
     11  O16       36.3080   90.2520   13.9290 O.3   460  MTT460     -0.2176
     12  O24       37.9490   93.3950   10.7110 O.3   460  MTT460     -0.3257
     13  C24       38.7180   94.5670   10.8030 C.3   460  MTT460      0.1804
     14  C23       38.6410   95.2970    9.4640 C.3   460  MTT460      0.2167
     15  O23       39.2220   94.5550    8.4140 O.3   460  MTT460     -0.2175
     16  C22       39.3400   96.6260    9.5780 C.3   460  MTT460      0.2404
     17  O22       39.2810   97.3450    8.3520 O.3   460  MTT460     -0.2149
     18  C21       38.7360   97.4190   10.7000 C.3   460  MTT460      0.2695
     19  C25       38.0800   95.4200   11.9120 C.3   460  MTT460      0.1803
     20  O25       38.7780   96.6640   11.9290 O.3   460  MTT460     -0.3257
     21  C26       38.2270   94.7380   13.2380 C.3   460  MTT460      0.2141
     22  O26       39.5110   95.0300   13.7860 O.3   460  MTT460     -0.2176
     23  O34       37.4330   97.8810   10.5710 O.3   460  MTT460     -0.3257
     24  C34       37.0190   99.1350   10.9540 C.3   460  MTT460      0.1804
     25  C33       36.5900   99.9060    9.7090 C.3   460  MTT460      0.2167
     26  O33       37.7140   99.9520    8.8630 O.3   460  MTT460     -0.2175
     27  C32       36.2670  101.3370   10.1010 C.3   460  MTT460      0.2404
     28  O32       35.6660  101.9800    8.9610 O.3   460  MTT460     -0.2149
     29  C31       35.3580  101.4080   11.2580 C.3   460  MTT460      0.2696
     30  C35       35.9560   99.1740   12.0310 C.3   460  MTT460      0.1803
     31  O35       35.7250  100.5700   12.3340 O.3   460  MTT460     -0.3257
     32  C36       36.3660   98.4790   13.3010 C.3   460  MTT460      0.2141
     33  O36       37.5020   99.1470   13.8740 O.3   460  MTT460     -0.2176
     34  O44       34.0870  101.0900   10.7470 O.3   460  MTT460     -0.3245
     35  C44       32.8860  101.4850   11.3390 C.3   460  MTT460      0.1936
     36  C43       32.5120  102.8440   10.7690 C.3   460  MTT460      0.2238
     37  O43       33.3720  103.8890   11.2280 O.3   460  MTT460     -0.2170
     38  C42       31.1750  103.2720   11.3440 C.3   460  MTT460      0.2821
     39  O42       30.7840  104.5240   10.8700 O.3   460  MTT460     -0.2082
     40  C41       30.1510  102.2190   11.3240 C.2   460  MTT460      0.3505
     41  O41       28.9670  102.6130   10.7970 O.2   460  MTT460     -0.2472
     42  C45       31.8490  100.4060   11.1070 C.3   460  MTT460      0.2312
     43  O45       30.5340  100.9090   11.1090 O.3   460  MTT460     -0.4451
     44  C46       31.9110   99.2150   12.0170 C.3   460  MTT460      0.2280
     45  O46       31.6440   99.5620   13.3640 O.3   460  MTT460     -0.2163
@<TRIPOS>BOND
     1    17    16    1
     2    15    14    1
     3     4     3    1
     4    26    25    1
     5    28    27    1
     6     6     5    1
     7    14    16    1
     8    14    13    1
     9    16    18    1
    10     3     5    1
    11     3     2    1
    12    25    27    1
    13    25    24    1
    14    27    29    1
    15     5     7    1
    16     1     2    1
    17    23    18    1
    18    23    24    1
    19    18    20    1
    20    12    13    1
    21    12     7    1
    22    34    29    1
    23    34    35    1
    24     2     8    1
    25    36    37    1
    26    36    35    1
    27    36    38    1
    28    41    40    2
    29    13    19    1
    30    39    38    1
    31    24    30    1
    32    42    43    1
    33    42    35    1
    34    42    44    1
    35    43    40    1
    36    29    31    1
    37     7     9    1
    38    40    38    1
    39     8     9    1
    40     8    10    1
    41    19    20    1
    42    19    21    1
    43    44    45    1
    44    30    31    1
    45    30    32    1
    46    10    11    1
    47    21    22    1
    48    32    33    1
