@<TRIPOS>MOLECULE
1qi5_MTT_A_1.pdb
 45 48 0 0 0
SMALL
GASTEIGER

@<TRIPOS>ATOM
      1  O14       35.6470   89.5010   10.1350 O.3   460  MTT460     -0.2176
      2  C14       36.8550   90.0670   10.6020 C.3   460  MTT460      0.2144
      3  C13       37.8100   90.5590    9.4950 C.3   460  MTT460      0.2198
      4  O13       38.0880   89.4430    8.6730 O.3   460  MTT460     -0.2174
      5  C12       39.0480   91.1550   10.1350 C.3   460  MTT460      0.2406
      6  O12       39.9000   91.7480    9.1600 O.3   460  MTT460     -0.2149
      7  C11       38.7430   92.2040   11.1820 C.3   460  MTT460      0.2695
      8  C15       36.5460   91.2350   11.5470 C.3   460  MTT460      0.1835
      9  O15       37.7780   91.7440   12.0960 O.3   460  MTT460     -0.3256
     10  C16       35.7400   90.7980   12.7370 C.3   460  MTT460      0.2142
     11  O16       36.5580   90.0860   13.6950 O.3   460  MTT460     -0.2176
     12  O24       38.2930   93.3910   10.5470 O.3   460  MTT460     -0.3257
     13  C24       39.0430   94.5960   10.6670 C.3   460  MTT460      0.1804
     14  C23       39.0560   95.3170    9.3250 C.3   460  MTT460      0.2167
     15  O23       39.7880   94.6570    8.2980 O.3   460  MTT460     -0.2175
     16  C22       39.6750   96.6970    9.4820 C.3   460  MTT460      0.2404
     17  O22       39.6430   97.3650    8.2190 O.3   460  MTT460     -0.2149
     18  C21       38.9250   97.4640   10.5260 C.3   460  MTT460      0.2695
     19  C25       38.3200   95.4240   11.7580 C.3   460  MTT460      0.1803
     20  O25       38.8250   96.7430   11.7580 O.3   460  MTT460     -0.3257
     21  C26       38.5270   94.7870   13.1040 C.3   460  MTT460      0.2141
     22  O26       39.7580   95.1900   13.7170 O.3   460  MTT460     -0.2176
     23  O34       37.6350   97.9550   10.2810 O.3   460  MTT460     -0.3257
     24  C34       37.2230   99.2080   10.6530 C.3   460  MTT460      0.1804
     25  C33       36.8780   99.9880    9.3910 C.3   460  MTT460      0.2167
     26  O33       38.0920  100.1820    8.6690 O.3   460  MTT460     -0.2175
     27  C32       36.2900  101.3180    9.6970 C.3   460  MTT460      0.2404
     28  O32       35.5680  101.8380    8.5650 O.3   460  MTT460     -0.2149
     29  C31       35.3300  101.2980   10.8150 C.3   460  MTT460      0.2695
     30  C35       36.0810   99.1690   11.6510 C.3   460  MTT460      0.1803
     31  O35       35.7270  100.5380   11.9390 O.3   460  MTT460     -0.3257
     32  C36       36.4110   98.5320   12.9740 C.3   460  MTT460      0.2141
     33  O36       37.4690   99.2410   13.6280 O.3   460  MTT460     -0.2176
     34  O44       34.0530  101.0930   10.2280 O.3   460  MTT460     -0.3257
     35  C44       32.9540  101.4960   11.0600 C.3   460  MTT460      0.1804
     36  C43       32.6130  102.9580   10.8750 C.3   460  MTT460      0.2168
     37  O43       33.3640  103.9080   11.6580 O.3   460  MTT460     -0.2175
     38  C42       31.1420  103.2420   11.2050 C.3   460  MTT460      0.2433
     39  O42       30.8630  104.6310   11.1280 O.3   460  MTT460     -0.2148
     40  C41       30.2690  102.2970   10.4450 C.3   460  MTT460      0.3023
     41  O41       30.3520  102.2530    9.0640 O.3   460  MTT460     -0.1869
     42  C45       31.8720  100.4660   10.7870 C.3   460  MTT460      0.1804
     43  O45       30.5690  100.9660   10.9680 O.3   460  MTT460     -0.3237
     44  C46       32.0160   99.3210   11.7980 C.3   460  MTT460      0.2141
     45  O46       31.5520   99.8320   13.0460 O.3   460  MTT460     -0.2176
@<TRIPOS>BOND
     1    17    16    1
     2    15    14    1
     3    28    27    1
     4    26    25    1
     5     4     3    1
     6    41    40    1
     7     6     5    1
     8    14    16    1
     9    14    13    1
    10    25    27    1
    11    25    24    1
    12    16    18    1
    13     3     5    1
    14     3     2    1
    15    27    29    1
    16     1     2    1
    17     5     7    1
    18    34    29    1
    19    34    35    1
    20    23    18    1
    21    23    24    1
    22    40    43    1
    23    40    38    1
    24    18    20    1
    25    12    13    1
    26    12     7    1
    27     2     8    1
    28    24    30    1
    29    13    19    1
    30    42    43    1
    31    42    35    1
    32    42    44    1
    33    29    31    1
    34    36    35    1
    35    36    38    1
    36    36    37    1
    37    39    38    1
    38     7     9    1
    39     8     9    1
    40     8    10    1
    41    30    31    1
    42    30    32    1
    43    19    20    1
    44    19    21    1
    45    44    45    1
    46    10    11    1
    47    32    33    1
    48    21    22    1
