@<TRIPOS>MOLECULE
1qi8_HEM_A_1.pdb
 43 50 0 0 0
SMALL
GASTEIGER

@<TRIPOS>ATOM
      1 FE          8.7590   12.5690   28.1100 Fe    142  HEM142      0.0000
      2  CHA        8.5580   13.3230   31.4580 C.2   142  HEM142      0.0000
      3  CHB        7.2780   15.5610   27.3240 C.2   142  HEM142      0.0000
      4  CHC        8.1990   11.4200   24.8820 C.2   142  HEM142      0.0000
      5  CHD        9.4990    9.2710   29.0270 C.2   142  HEM142      0.0000
      6  NA         8.0210   14.1520   29.1880 N.ar  142  HEM142      0.0000
      7  C1A        8.0870   14.2470   30.5390 C.ar  142  HEM142      0.0000
      8  C2A        7.5350   15.5680   30.8950 C.ar  142  HEM142      0.0000
      9  C3A        7.1800   16.1790   29.7860 C.ar  142  HEM142      0.0000
     10  C4A        7.4970   15.2990   28.6680 C.ar  142  HEM142      0.0000
     11  CMA        6.5430   17.5910   29.6430 C.3   142  HEM142      0.0000
     12  CAA        7.4010   16.0250   32.3800 C.3   142  HEM142      0.0000
     13  CBA        8.5850   16.8620   32.8620 C.3   142  HEM142      0.0000
     14  CGA        8.4030   17.6310   34.1530 C.2   142  HEM142      0.0000
     15  O1A        8.4830   18.8750   34.0520 O.co2 142  HEM142      0.0000
     16  O2A        8.2470   16.9850   35.2110 O.co2 142  HEM142      0.0000
     17  NB         7.8950   13.3140   26.4740 N.2   142  HEM142      0.0000
     18  C1B        7.4070   14.6310   26.2940 C.2   142  HEM142      0.0000
     19  C2B        7.0400   14.8020   24.9360 C.2   142  HEM142      0.0000
     20  C3B        7.2750   13.6770   24.2740 C.2   142  HEM142      0.0000
     21  C4B        7.8300   12.7210   25.2380 C.2   142  HEM142      0.0000
     22  CMB        6.4290   16.1270   24.3520 C.3   142  HEM142      0.0000
     23  CAB        7.0860   13.3660   22.7700 C.2   142  HEM142      0.0000
     24  CBB        6.0430   13.7920   22.0720 C.2   142  HEM142      0.0000
     25  NC         8.8170   10.7310   27.1560 N.ar  142  HEM142      0.0000
     26  C1C        8.6120   10.4870   25.8270 C.ar  142  HEM142      0.0000
     27  C2C        8.8110    9.0590   25.5400 C.ar  142  HEM142      0.0000
     28  C3C        9.1400    8.4550   26.6760 C.ar  142  HEM142      0.0000
     29  C4C        9.1480    9.5220   27.7200 C.ar  142  HEM142      0.0000
     30  CMC        8.6530    8.4270   24.1460 C.3   142  HEM142      0.0000
     31  CAC        9.4910    6.9900   27.0070 C.2   142  HEM142      0.0000
     32  CBC        8.9690    5.9600   26.2960 C.2   142  HEM142      0.0000
     33  ND         8.9330   11.5090   29.8730 N.2   142  HEM142      0.0000
     34  C1D        9.3510   10.2100   30.0470 C.2   142  HEM142      0.0000
     35  C2D        9.6310    9.8970   31.4380 C.2   142  HEM142      0.0000
     36  C3D        9.3650   11.0240   32.1200 C.2   142  HEM142      0.0000
     37  C4D        8.9310   12.0190   31.1860 C.2   142  HEM142      0.0000
     38  CMD       10.0810    8.5460   32.0210 C.3   142  HEM142      0.0000
     39  CAD        9.4370   11.2420   33.6530 C.3   142  HEM142      0.0000
     40  CBD        8.1160   10.8090   34.3100 C.3   142  HEM142      0.0000
     41  CGD        8.1040   10.8780   35.8320 C.2   142  HEM142      0.0000
     42  O1D        7.3700   11.7460   36.3320 O.co2 142  HEM142      0.0000
     43  O2D        8.7660   10.0400   36.4760 O.co2 142  HEM142      0.0000
@<TRIPOS>BOND
     1    24    23    2
     2    23    20    1
     3    30    27    1
     4    20    19    2
     5    20    21    1
     6    22    19    1
     7     4    21    2
     8     4    26    1
     9    19    18    1
    10    21    17    1
    11    27    26   ar
    12    27    28   ar
    13    26    25   ar
    14    18    17    2
    15    18     3    1
    16    32    31    2
    17    17     1    1
    18    28    31    1
    19    28    29   ar
    20    25    29   ar
    21    25     1    1
    22     3    10    2
    23    29     5    1
    24     1     6    1
    25     1    33    1
    26    10     6   ar
    27    10     9   ar
    28     5    34    2
    29     6     7   ar
    30    11     9    1
    31     9     8   ar
    32    33    34    1
    33    33    37    2
    34    34    35    1
    35     7     8   ar
    36     7     2    2
    37     8    12    1
    38    37     2    1
    39    37    36    1
    40    35    38    1
    41    35    36    2
    42    36    39    1
    43    12    13    1
    44    13    14    1
    45    39    40    1
    46    15    14   ar
    47    14    16   ar
    48    40    41    1
    49    41    42   ar
    50    41    43   ar
