@<TRIPOS>MOLECULE
1qin_GIP_A_1.pdb
 31 31 0 0 0
SMALL
GASTEIGER

@<TRIPOS>ATOM
      1  C         -1.7400   -2.1540   36.2730 C.2   300  GIP300      0.3819
      2  OT1       -0.7340   -2.9030   36.2580 O.co2 300  GIP300     -0.2441
      3  OT2       -2.5750   -2.1620   35.3410 O.co2 300  GIP300     -0.2441
      4  N         -1.4230   -1.7120   38.7380 N.3   300  GIP300     -0.1208
      5  CA        -1.9680   -1.1830   37.4720 C.3   300  GIP300      0.1948
      6  CB        -1.3330    0.2150   37.1770 C.3   300  GIP300      0.0402
      7  CB2       -5.8830    3.4320   34.3220 C.3   300  GIP300      0.0950
      8  SG2       -4.8860    4.9110   33.9020 S.3   300  GIP300     -0.0884
      9  CG        -2.0280    0.9390   35.9650 C.3   300  GIP300      0.0889
     10  CD        -3.4350    1.4780   36.2540 C.2   300  GIP300      0.2418
     11  OE        -3.9710    1.2810   37.3510 O.2   300  GIP300     -0.2733
     12  N2        -4.0500    2.1670   35.2990 N.am  300  GIP300     -0.1968
     13  CA2       -5.4030    2.7030   35.5820 C.3   300  GIP300      0.1838
     14  C2        -6.4890    1.6390   35.9870 C.2   300  GIP300      0.2626
     15  O2        -6.5130    0.5450   35.4440 O.2   300  GIP300     -0.2714
     16  N3        -7.3780    2.0830   36.8870 N.am  300  GIP300     -0.1917
     17  CA3       -8.5210    1.2110   37.3180 C.3   300  GIP300      0.2285
     18  C3        -9.4090    2.0400   38.2710 C.2   300  GIP300      0.3865
     19  O31       -9.1990    3.2710   38.3370 O.co2 300  GIP300     -0.2437
     20  O32      -10.2820    1.4440   38.9260 O.co2 300  GIP300     -0.2437
     21  NE2       -4.8270    5.9630   31.2850 N.am  300  GIP300     -0.2537
     22  OF2       -4.8460    5.8890   29.9890 O.3   300  GIP300     -0.4153
     23  CD2       -4.8100    4.8730   32.0620 C.2   300  GIP300      0.1236
     24  OZ1       -4.8560    3.7320   31.5990 O.2   300  GIP300     -0.5322
     25  CG2       -4.7310    7.2620   31.9630 C.ar  300  GIP300      0.0580
     26  CL1       -5.8400    7.8480   32.5860 C.ar  300  GIP300      0.0158
     27  CL2       -3.4670    7.8560   31.9740 C.ar  300  GIP300      0.0158
     28  CM1       -5.6750    9.0760   33.2370 C.ar  300  GIP300      0.0071
     29  CM2       -3.3110    9.0740   32.6250 C.ar  300  GIP300      0.0071
     30  CZ        -4.4180    9.6400   33.2240 C.ar  300  GIP300      0.0301
     31  I         -4.1020   11.5210   34.2080 I     300  GIP300     -0.0425
@<TRIPOS>BOND
     1    22    21    1
     2    21    25    1
     3    21    23   am
     4    24    23    2
     5    25    27   ar
     6    25    26   ar
     7    27    29   ar
     8    23     8    1
     9    26    28   ar
    10    29    30   ar
    11    30    28   ar
    12    30    31    1
    13     8     7    1
    14     7    13    1
    15    12    13    1
    16    12    10   am
    17     3     1   ar
    18    15    14    2
    19    13    14    1
    20     9    10    1
    21     9     6    1
    22    14    16   am
    23    10    11    2
    24     2     1   ar
    25     1     5    1
    26    16    17    1
    27     6     5    1
    28    17    18    1
    29     5     4    1
    30    18    19   ar
    31    18    20   ar
