@<TRIPOS>MOLECULE
1qip_GNB_A_1.pdb
 33 33 0 0 0
SMALL
GASTEIGER

@<TRIPOS>ATOM
      1  C         50.5870   33.7790   11.6720 C.2   1002  GNB1002     0.3819
      2  OT1       50.8900   34.9900   11.6090 O.co2 1002  GNB1002    -0.2441
      3  OT2       51.3550   32.8760   11.2730 O.co2 1002  GNB1002    -0.2441
      4  N         48.6690   34.3620   13.2230 N.3   1002  GNB1002    -0.1208
      5  CA        49.2020   33.3620   12.2560 C.3   1002  GNB1002     0.1948
      6  CB        48.1540   33.1100   11.1410 C.3   1002  GNB1002     0.0402
      7  CB2       47.8320   27.1310    9.4090 C.3   1002  GNB1002     0.0995
      8  SG2       46.2680   27.5240    8.5310 S.3   1002  GNB1002    -0.0315
      9  CG        48.4380   31.8890   10.2020 C.3   1002  GNB1002     0.0889
     10  CD        48.1700   30.5000   10.8220 C.2   1002  GNB1002     0.2418
     11  OE        47.8450   30.4450   12.0110 O.2   1002  GNB1002    -0.2733
     12  N2        48.2760   29.4370   10.0230 N.am  1002  GNB1002    -0.1968
     13  CA2       48.0720   28.0680   10.6030 C.3   1002  GNB1002     0.1840
     14  C2        49.2780   27.6490   11.5120 C.2   1002  GNB1002     0.2626
     15  O2        50.3960   28.1010   11.1940 O.2   1002  GNB1002    -0.2714
     16  N3        49.2650   26.6320   12.3920 N.am  1002  GNB1002    -0.1917
     17  CA3       50.5830   26.1260   12.8770 C.3   1002  GNB1002     0.2285
     18  C3        51.1120   26.3150   14.2850 C.2   1002  GNB1002     0.3865
     19  O31       51.4590   27.4720   14.6180 O.co2 1002  GNB1002    -0.2437
     20  O32       51.2530   25.3390   15.0900 O.co2 1002  GNB1002    -0.2437
     21  CD2       45.7740   25.9560    7.7980 C.2   1002  GNB1002     0.3703
     22  OZ1       45.9150   24.9400    8.4750 O.2   1002  GNB1002    -0.2373
     23  CG2       43.1850   25.4320    5.2130 C.ar  1002  GNB1002     0.0214
     24  CL1       43.9610   26.0340    4.2200 C.ar  1002  GNB1002     0.0010
     25  CL2       41.9360   24.8970    4.9320 C.ar  1002  GNB1002     0.0010
     26  CM1       43.4610   26.1010    2.9210 C.ar  1002  GNB1002     0.0239
     27  CM2       41.4410   24.9700    3.6320 C.ar  1002  GNB1002     0.0239
     28  CZ        42.2070   25.5670    2.6190 C.ar  1002  GNB1002     0.1429
     29  OH1       45.2340   25.8490    6.5240 O.3   1002  GNB1002    -0.4360
     30  CH        43.8310   25.4060    6.6020 C.3   1002  GNB1002     0.2359
     31  N7        41.6860   25.6270    1.2540 N.pl3 1002  GNB1002     0.0577
     32  O8        40.5970   26.2830    0.9640 O.2   1002  GNB1002    -0.1261
     33  O9        42.2360   25.0450    0.2250 O.2   1002  GNB1002    -0.1261
@<TRIPOS>BOND
     1    33    31    2
     2    32    31    2
     3    31    28    1
     4    28    26   ar
     5    28    27   ar
     6    26    24   ar
     7    27    25   ar
     8    24    23   ar
     9    25    23   ar
    10    23    30    1
    11    29    30    1
    12    29    21    1
    13    21    22    2
    14    21     8    1
    15     8     7    1
    16     7    13    1
    17    12    13    1
    18    12    10   am
    19     9    10    1
    20     9     6    1
    21    13    14    1
    22    10    11    2
    23     6     5    1
    24    15    14    2
    25     3     1   ar
    26    14    16   am
    27     2     1   ar
    28     1     5    1
    29     5     4    1
    30    16    17    1
    31    17    18    1
    32    18    19   ar
    33    18    20   ar
