@<TRIPOS>MOLECULE
1qiq_ACC_A_1.pdb
 24 23 0 0 0
SMALL
GASTEIGER

@<TRIPOS>ATOM
      1  C1         8.9170   38.3830    4.7590 C.2   332  ACC332      0.2626
      2  N2         7.5820   38.5260    4.7700 N.am  332  ACC332     -0.1932
      3  C3         9.6940   39.6900    4.8570 C.3   332  ACC332      0.1843
      4  C4         6.7140   37.5380    4.1910 C.3   332  ACC332      0.2085
      5  C5         6.5550   37.7620    2.6850 C.3   332  ACC332      0.0908
      6  O6         9.4500   37.3250    4.4980 O.2   332  ACC332     -0.2714
      7  N7        11.1080   39.4660    4.6580 N.am  332  ACC332     -0.1968
      8  C8        12.0170   39.6410    5.5920 C.2   332  ACC332      0.2418
      9  C9        13.4400   39.3180    5.1710 C.3   332  ACC332      0.0869
     10  C10       13.9140   38.0180    5.8260 C.3   332  ACC332      0.0117
     11  C13       15.3640   37.7240    5.4090 C.3   332  ACC332      0.0311
     12  C16       15.9140   36.4480    6.0420 C.3   332  ACC332      0.1943
     13  N19       15.9410   36.6370    7.5240 N.3   332  ACC332     -0.1208
     14  C20       17.3680   36.2200    5.6480 C.2   332  ACC332      0.3819
     15  O21       18.3010   36.2560    6.3980 O.co2 332  ACC332     -0.2441
     16  O22       17.4930   35.9010    4.3660 O.co2 332  ACC332     -0.2441
     17  C23        5.3350   37.4820    4.8240 C.2   332  ACC332      0.3851
     18  O25        5.2030   38.2760    5.8970 O.co2 332  ACC332     -0.2437
     19  O26        4.4000   36.8520    4.4020 O.co2 332  ACC332     -0.2437
     20  O27       11.7420   40.0220    6.7300 O.2   332  ACC332     -0.2733
     21  C35        9.2520   40.6270    3.7390 C.3   332  ACC332      0.0997
     22  S37        9.5260   39.9530    2.0640 S.3   332  ACC332     -0.0797
     23  S41        5.9850   39.4050    2.2500 S.3   332  ACC332     -0.1369
     24  C42        4.4070   38.9510    1.5290 C.3   332  ACC332      0.0692
@<TRIPOS>BOND
     1    24    23    1
     2    22    21    1
     3    23     5    1
     4     5     4    1
     5    21     3    1
     6     4     2    1
     7     4    17    1
     8    16    14   ar
     9    19    17   ar
    10     6     1    2
    11     7     3    1
    12     7     8   am
    13     1     2   am
    14     1     3    1
    15    17    18   ar
    16     9     8    1
    17     9    10    1
    18    11    10    1
    19    11    12    1
    20     8    20    2
    21    14    12    1
    22    14    15   ar
    23    12    13    1
