@<TRIPOS>MOLECULE
1qir_PLP_A_1.pdb
 15 15 0 0 0
SMALL
GASTEIGER

@<TRIPOS>ATOM
      1  N1        26.7060   -3.5250   14.9840 N.2   410  PLP410     -0.2666
      2  C2        26.1170   -4.3280   15.8830 C.2   410  PLP410      0.0929
      3  C2A       26.7520   -4.4570   17.2800 C.3   410  PLP410      0.0551
      4  C3        25.0070   -4.9940   15.5550 C.2   410  PLP410      0.2045
      5  O3        24.3970   -5.8250   16.4670 O.2   410  PLP410     -0.2857
      6  C4        24.4900   -4.8120   14.3090 C.2   410  PLP410      0.0192
      7  C4A       23.1810   -5.5710   13.9860 C.3   410  PLP410      0.0343
      8  C5        25.1160   -3.9610   13.3990 C.2   410  PLP410      0.0387
      9  C6        26.2280   -3.3220   13.7580 C.3   410  PLP410      0.1545
     10  C5A       24.5300   -3.6140   12.0420 C.2   410  PLP410      0.1806
     11  O4P       23.5490   -4.2510   11.4530 O.2   410  PLP410     -0.3969
     12  P         22.8190   -3.7000   10.1000 P.3   410  PLP410      0.5887
     13  O1P       21.9270   -2.5200   10.4270 O.3   410  PLP410     -0.1039
     14  O2P       21.8430   -4.8910    9.9800 O.3   410  PLP410     -0.1039
     15  O3P       23.8370   -3.5290    9.1440 O.2   410  PLP410     -0.2114
@<TRIPOS>BOND
     1    15    12    2
     2    14    12    1
     3    12    13    1
     4    12    11    1
     5    11    10    1
     6    10     8    2
     7     8     9    1
     8     8     6    1
     9     9     1    1
    10     7     6    1
    11     6     4    2
    12     1     2    2
    13     4     2    1
    14     4     5    1
    15     2     3    1
