@<TRIPOS>MOLECULE
1qis_PLP_A_1.pdb
 15 15 0 0 0
SMALL
GASTEIGER

@<TRIPOS>ATOM
      1  N1        26.7080   -3.5040   14.9440 N.ar  410  PLP410     -0.2452
      2  C2        26.1200   -4.3130   15.8430 C.ar  410  PLP410      0.0978
      3  C2A       26.7540   -4.4390   17.2450 C.3   410  PLP410      0.0555
      4  C3        25.0080   -4.9670   15.5260 C.ar  410  PLP410      0.2049
      5  O3        24.4080   -5.8030   16.4400 O.3   410  PLP410     -0.2857
      6  C4        24.5000   -4.7930   14.2690 C.ar  410  PLP410      0.0182
      7  C4A       23.1830   -5.5560   13.9540 C.3   410  PLP410      0.0342
      8  C5        25.1210   -3.9370   13.3540 C.ar  410  PLP410      0.0261
      9  C6        26.2400   -3.3010   13.7100 C.ar  410  PLP410      0.0965
     10  C5A       24.5300   -3.5980   11.9990 C.3   410  PLP410      0.1815
     11  O4P       23.5280   -4.2990   11.4340 O.3   410  PLP410     -0.2653
     12  P         22.8540   -3.6920   10.0820 P.3   410  PLP410      0.5329
     13  O1P       21.9720   -2.4990   10.4140 O.3   410  PLP410     -0.1145
     14  O2P       21.7910   -4.8360    9.9620 O.3   410  PLP410     -0.1145
     15  O3P       23.8690   -3.5420    9.1070 O.2   410  PLP410     -0.2224
@<TRIPOS>BOND
     1    15    12    2
     2    14    12    1
     3    12    13    1
     4    12    11    1
     5    11    10    1
     6    10     8    1
     7     8     9   ar
     8     8     6   ar
     9     9     1   ar
    10     7     6    1
    11     6     4   ar
    12     1     2   ar
    13     4     2   ar
    14     4     5    1
    15     2     3    1
