@<TRIPOS>MOLECULE
1qit_PLP_A_1.pdb
 15 15 0 0 0
SMALL
GASTEIGER

@<TRIPOS>ATOM
      1  N1        26.7300   -3.7330   14.7260 N.ar  410  PLP410     -0.2452
      2  C2        26.1000   -4.3610   15.7620 C.ar  410  PLP410      0.0978
      3  C2A       26.7290   -4.3310   17.1660 C.3   410  PLP410      0.0555
      4  C3        24.9640   -5.0470   15.5340 C.ar  410  PLP410      0.2049
      5  O3        24.3260   -5.6880   16.5580 O.3   410  PLP410     -0.2857
      6  C4        24.4350   -5.0560   14.2630 C.ar  410  PLP410      0.0182
      7  C4A       23.1240   -5.8040   14.0320 C.3   410  PLP410      0.0342
      8  C5        25.0920   -4.4240   13.2360 C.ar  410  PLP410      0.0261
      9  C6        26.2340   -3.7520   13.4610 C.ar  410  PLP410      0.0965
     10  C5A       24.4970   -4.4200   11.8560 C.3   410  PLP410      0.1815
     11  O4P       23.4900   -3.5390   11.4950 O.3   410  PLP410     -0.2653
     12  P         22.8120   -3.5960   10.0870 P.3   410  PLP410      0.5329
     13  O1P       22.1200   -4.9040   10.0800 O.3   410  PLP410     -0.1145
     14  O2P       21.8410   -2.3960   10.2660 O.3   410  PLP410     -0.1145
     15  O3P       23.8140   -3.3250    9.0240 O.2   410  PLP410     -0.2224
@<TRIPOS>BOND
     1    15    12    2
     2    13    12    1
     3    12    14    1
     4    12    11    1
     5    11    10    1
     6    10     8    1
     7     8     9   ar
     8     8     6   ar
     9     9     1   ar
    10     7     6    1
    11     6     4   ar
    12     1     2   ar
    13     4     2   ar
    14     4     5    1
    15     2     3    1
