@<TRIPOS>MOLECULE
1qiv_DPD_A_1.pdb
 38 40 0 0 0
SMALL
GASTEIGER

@<TRIPOS>ATOM
      1  C11       27.8530   -1.7810   15.2750 C.ar  153  DPD153     -0.0184
      2  C12       26.5950   -2.3160   15.6310 C.ar  153  DPD153     -0.0040
      3  C13       26.5020   -3.4700   16.4300 C.ar  153  DPD153     -0.0003
      4  C14       27.6730   -4.1070   16.8860 C.ar  153  DPD153     -0.0000
      5  C15       28.9290   -3.5850   16.5430 C.ar  153  DPD153     -0.0003
      6  C16       29.0130   -2.4360   15.7450 C.ar  153  DPD153     -0.0040
      7  C21       26.6740   -0.2560   13.6390 C.ar  153  DPD153     -0.0184
      8  C22       25.6920    0.6060   14.1620 C.ar  153  DPD153     -0.0040
      9  C23       24.5080    0.8600   13.4570 C.ar  153  DPD153     -0.0003
     10  C24       24.2860    0.2550   12.2160 C.ar  153  DPD153     -0.0000
     11  C25       25.2500   -0.6040   11.6830 C.ar  153  DPD153     -0.0003
     12  C26       26.4300   -0.8540   12.3880 C.ar  153  DPD153     -0.0040
     13  C1        27.9760   -0.5310   14.3970 C.3   153  DPD153      0.0460
     14  C2        28.4690    0.6800   15.2100 C.3   153  DPD153      0.0275
     15  C3        28.9560    1.8860   14.3780 C.3   153  DPD153      0.0894
     16  N4        28.4010    3.1960   14.7800 N.3   153  DPD153     -0.2180
     17  C5        29.1740    3.9650   15.7780 C.3   153  DPD153      0.0902
     18  C6        28.6850    5.4090   15.9640 C.3   153  DPD153      0.0376
     19  C7        27.3980    5.5150   16.8010 C.3   153  DPD153      0.0905
     20  N8        26.1460    5.2720   16.0410 N.3   153  DPD153     -0.2150
     21  C9        25.7920    6.2300   14.9630 C.3   153  DPD153      0.0951
     22  C19       24.6230    7.1700   15.3410 C.3   153  DPD153      0.0236
     23  C31       25.5140    5.4700   13.6830 C.ar  153  DPD153     -0.0033
     24  C32       24.2210    5.0130   13.3880 C.ar  153  DPD153      0.0371
     25  C33       23.9290    4.3070   12.2140 C.ar  153  DPD153      0.1719
     26  C34       24.9690    4.0270   11.2610 C.ar  153  DPD153      0.1722
     27  C35       26.2730    4.4940   11.5720 C.ar  153  DPD153      0.0398
     28  C36       26.5430    5.1990   12.7540 C.ar  153  DPD153      0.0004
     29  O3        22.6080    3.9380   12.0850 O.3   153  DPD153     -0.4724
     30  C41       21.7160    4.6960   11.2680 C.3   153  DPD153      0.2056
     31  C42       21.9060    4.3610    9.7770 C.3   153  DPD153      0.0473
     32  C43       21.7060    2.8730    9.4430 C.3   153  DPD153      0.0038
     33  C44       20.2700    2.3720    9.6730 C.3   153  DPD153      0.0001
     34  O4        24.7370    3.3360   10.0840 O.3   153  DPD153     -0.4724
     35  C51       25.8150    2.8630    9.2690 C.3   153  DPD153      0.2056
     36  C52       25.2900    2.0430    8.0820 C.3   153  DPD153      0.0473
     37  C53       26.1390    2.1790    6.8060 C.3   153  DPD153      0.0038
     38  C54       25.3290    2.0360    5.5100 C.3   153  DPD153      0.0001
@<TRIPOS>BOND
     1    38    37    1
     2    37    36    1
     3    36    35    1
     4    35    34    1
     5    32    33    1
     6    32    31    1
     7    31    30    1
     8    34    26    1
     9    26    27   ar
    10    26    25   ar
    11    30    29    1
    12    27    28   ar
    13    11    10   ar
    14    11    12   ar
    15    29    25    1
    16    25    24   ar
    17    10     9   ar
    18    12     7   ar
    19    28    23   ar
    20    24    23   ar
    21     9     8   ar
    22     7     8   ar
    23     7    13    1
    24    23    21    1
    25    15    16    1
    26    15    14    1
    27    13    14    1
    28    13     1    1
    29    16    17    1
    30    21    22    1
    31    21    20    1
    32     1     2   ar
    33     1     6   ar
    34     2     3   ar
    35     6     5   ar
    36    17    18    1
    37    18    19    1
    38    20    19    1
    39     3     4   ar
    40     5     4   ar
