@<TRIPOS>MOLECULE
1qiw_DPD_A_1.pdb
 28 30 0 0 0
SMALL
GASTEIGER

@<TRIPOS>ATOM
      1  C11       16.4250   26.5760   10.8570 C.ar  153  DPD153     -0.0184
      2  C12       15.6780   25.3780   10.8660 C.ar  153  DPD153     -0.0040
      3  C13       16.2980   24.1410   11.1070 C.ar  153  DPD153     -0.0003
      4  C14       17.6780   24.0810   11.3450 C.ar  153  DPD153     -0.0000
      5  C15       18.4360   25.2610   11.3410 C.ar  153  DPD153     -0.0003
      6  C16       17.8120   26.4960   11.0980 C.ar  153  DPD153     -0.0040
      7  C21       14.8910   27.8550    9.3290 C.ar  153  DPD153     -0.0184
      8  C22       15.4710   27.5720    8.0730 C.ar  153  DPD153     -0.0040
      9  C23       14.6840   27.5010    6.9100 C.ar  153  DPD153     -0.0003
     10  C24       13.3010   27.7130    6.9830 C.ar  153  DPD153     -0.0000
     11  C25       12.7070   27.9940    8.2200 C.ar  153  DPD153     -0.0003
     12  C26       13.4950   28.0650    9.3810 C.ar  153  DPD153     -0.0040
     13  C1        15.7530   27.9300   10.5930 C.3   153  DPD153      0.0460
     14  C2        14.9720   28.4200   11.8400 C.3   153  DPD153      0.0275
     15  C3        15.7930   28.5960   13.1380 C.3   153  DPD153      0.0894
     16  N4        15.2940   29.6220   14.0880 N.3   153  DPD153     -0.2180
     17  C5        13.9140   29.4550   14.6060 C.3   153  DPD153      0.0902
     18  C6        13.7030   28.1900   15.4560 C.3   153  DPD153      0.0376
     19  C7        12.2240   27.8020   15.6190 C.3   153  DPD153      0.0905
     20  N8        11.6790   26.9880   14.5070 N.3   153  DPD153     -0.2150
     21  C9        10.2300   26.6630   14.5320 C.3   153  DPD153      0.0950
     22  C19        9.9230   25.3670   15.3020 C.3   153  DPD153      0.0236
     23  C31        9.6810   26.6090   13.1190 C.ar  153  DPD153     -0.0065
     24  C32       10.1560   25.6610   12.1920 C.ar  153  DPD153     -0.0029
     25  C33        9.6650   25.5880   10.8770 C.ar  153  DPD153     -0.0003
     26  C34        8.6490   26.4960   10.4410 C.ar  153  DPD153     -0.0000
     27  C35        8.1800   27.4440   11.3830 C.ar  153  DPD153     -0.0003
     28  C36        8.6800   27.5030   12.6900 C.ar  153  DPD153     -0.0029
@<TRIPOS>BOND
     1     9    10   ar
     2     9     8   ar
     3    10    11   ar
     4     8     7   ar
     5    11    12   ar
     6     7    12   ar
     7     7    13    1
     8    26    25   ar
     9    26    27   ar
    10    13     1    1
    11    13    14    1
    12     1     2   ar
    13     1     6   ar
    14     2     3   ar
    15    25    24   ar
    16     6     5   ar
    17     3     4   ar
    18     5     4   ar
    19    27    28   ar
    20    14    15    1
    21    24    23   ar
    22    28    23   ar
    23    23    21    1
    24    15    16    1
    25    16    17    1
    26    20    21    1
    27    20    19    1
    28    21    22    1
    29    17    18    1
    30    18    19    1
