@<TRIPOS>MOLECULE
1qix_III_A_1.pdb
 31 31 0 0 0
SMALL
GASTEIGER

@<TRIPOS>ATOM
      1  N        -18.4160   17.2810   39.8380 N.3     4  VAL4       -0.1231
      2  CA       -17.3510   18.3260   39.9910 C.3     4  VAL4        0.1692
      3  C        -16.3300   18.3020   38.8670 C.2     4  VAL4        0.2592
      4  O        -15.9010   17.3000   38.3010 O.2     4  VAL4       -0.2718
      5  CB       -16.6980   18.3510   41.3740 C.3     4  VAL4        0.0266
      6  CG1      -17.7030   17.9260   42.4450 C.3     4  VAL4        0.0020
      7  CG2      -15.4550   17.4800   41.4970 C.3     4  VAL4        0.0020
      8  N        -15.8790   19.5200   38.5600 N.am    5  GLU5       -0.1966
      9  CA       -14.8810   19.7430   37.5180 C.3     5  GLU5        0.1718
     10  C        -13.6060   20.4150   38.0350 C.2     5  GLU5        0.2458
     11  O        -13.6770   21.6110   38.3310 O.2     5  GLU5       -0.2730
     12  CB       -15.5340   20.6530   36.4600 C.3     5  GLU5        0.0428
     13  CG       -14.6630   20.9700   35.2720 C.3     5  GLU5        0.1163
     14  CD       -14.5210   19.8720   34.2330 C.2     5  GLU5        0.3649
     15  OE1      -15.0590   18.7760   34.3670 O.co2   5  GLU5       -0.2457
     16  OE2      -13.8080   20.1600   33.2330 O.co2   5  GLU5       -0.2457
     17  N        -12.5040   19.7010   38.1460 N.am    6  PRO6       -0.2716
     18  CA       -11.1960   20.2570   38.5470 C.3     6  PRO6        0.1536
     19  C        -10.8850   21.4340   37.6470 C.2     6  PRO6        0.2598
     20  O        -11.0570   21.3080   36.4140 O.2     6  PRO6       -0.2715
     21  CB       -10.1330   19.1810   38.3520 C.3     6  PRO6        0.0310
     22  CG       -10.8590   18.0310   37.7580 C.3     6  PRO6        0.0237
     23  CD       -12.3390   18.2780   37.7930 C.3     6  PRO6        0.0939
     24  N        -10.3840   22.5660   38.1420 N.am    7  ILE7       -0.1978
     25  CA       -10.1460   23.6780   37.2140 C.3     7  ILE7        0.1596
     26  C         -8.7270   24.2100   37.4740 C.2     7  ILE7        0.2287
     27  O         -8.2290   25.0650   36.7030 O.2     7  ILE7       -0.2864
     28  CB       -11.1140   24.8590   37.4450 C.3     7  ILE7        0.0276
     29  CG1      -11.1350   25.2060   38.9320 C.3     7  ILE7        0.0022
     30  CG2      -12.4450   24.5470   36.8260 C.3     7  ILE7        0.0022
     31  CD1      -11.5630   26.6270   39.2170 C.3     7  ILE7        0.0001
@<TRIPOS>BOND
     1    16    14   ar
     2    14    15   ar
     3    14    13    1
     4    13    12    1
     5    20    19    2
     6    12     9    1
     7    27    26    2
     8    30    28    1
     9    25    28    1
    10    25    26    1
    11    25    24    1
    12    28    29    1
    13     9    10    1
    14     9     8    1
    15    19    24   am
    16    19    18    1
    17    22    23    1
    18    22    21    1
    19    23    17    1
    20    10    17   am
    21    10    11    2
    22    17    18    1
    23     4     3    2
    24    21    18    1
    25     8     3   am
    26     3     2    1
    27    29    31    1
    28     1     2    1
    29     2     5    1
    30     5     7    1
    31     5     6    1
