@<TRIPOS>MOLECULE
1qj1_166_B_1.pdb
 27 29 0 0 0
SMALL
GASTEIGER

@<TRIPOS>ATOM
      1  C1         8.1220   21.9910   51.5480 C.3   1248  1661248     0.0082
      2  C2         9.0380   23.2180   51.2330 C.3   1248  1661248     0.0011
      3  C3        10.1350   22.9460   50.2440 C.3   1248  1661248     0.0134
      4  C4         9.6610   22.9600   48.8050 C.3   1248  1661248     0.1335
      5  C5        10.7350   22.4680   47.8050 C.2   1248  1661248     0.4538
      6  N6        11.3720   21.3060   47.9420 N.pl3 1248  1661248     0.1994
      7  N7        11.0240   23.1710   46.7130 N.pl3 1248  1661248     0.1994
      8  O8         8.6890   23.4960   54.2810 O.2   1248  1661248    -0.2883
      9  O9         5.1690   22.9100   55.0940 O.3   1248  1661248    -0.2224
     10  C10        5.7670   21.8320   52.9290 C.3   1248  1661248     0.0601
     11  C11        3.6850   20.7170   52.8630 C.ar  1248  1661248    -0.0235
     12  C12        4.8070   20.9390   52.0860 C.ar  1248  1661248    -0.0235
     13  C13        5.2700   21.6670   54.3980 C.3   1248  1661248     0.1607
     14  C14        3.8540   21.1070   54.3070 C.3   1248  1661248     0.0592
     15  C36        4.7750   20.5070   50.7430 C.ar  1248  1661248    -0.0045
     16  C37        3.5850   19.9100   50.2410 C.ar  1248  1661248    -0.0003
     17  C38        2.4700   19.7850   51.0770 C.ar  1248  1661248    -0.0003
     18  C39        2.5090   20.1940   52.3810 C.ar  1248  1661248    -0.0045
     19  C43        3.4010   19.3480   48.8330 C.ar  1248  1661248     0.0002
     20  C44        2.1690   19.5040   48.1730 C.ar  1248  1661248     0.0033
     21  C45        1.9290   19.0140   46.8980 C.ar  1248  1661248     0.0420
     22  C6         2.9290   18.3500   46.2320 C.ar  1248  1661248     0.1957
     23  C7         4.1590   18.1640   46.8510 C.ar  1248  1661248     0.0420
     24  C8         4.3950   18.6610   48.1400 C.ar  1248  1661248     0.0033
     25  O54        2.6840   17.8950   44.9580 O.3   1248  1661248    -0.2866
     26  C16        7.3390   22.0690   52.8880 C.3   1248  1661248     0.0714
     27  C15        7.6950   23.4430   53.6050 C.2   1248  1661248     0.2074
@<TRIPOS>BOND
     1    25    22    1
     2    22    23   ar
     3    22    21   ar
     4     7     5    2
     5    23    24   ar
     6    21    20   ar
     7     5     6    1
     8     5     4    1
     9    24    19   ar
    10    20    19   ar
    11     4     3    1
    12    19    16    1
    13    16    15   ar
    14    16    17   ar
    15     3     2    1
    16    15    12   ar
    17    17    18   ar
    18     2     1    1
    19     1    26    1
    20    12    11   ar
    21    12    10    1
    22    18    11   ar
    23    11    14    1
    24    26    10    1
    25    26    27    1
    26    10    13    1
    27    27     8    2
    28    14    13    1
    29    13     9    1
