@<TRIPOS>MOLECULE
1qj3_KAP_A_1.pdb
 13 12 0 0 0
SMALL
GASTEIGER

@<TRIPOS>ATOM
      1  CA        23.7660   -4.9350   18.9730 C.3   1430  KAP1430     0.1141
      2  C         24.8580   -3.8890   19.1510 C.2   1430  KAP1430     0.3649
      3  OI1       24.5920   -2.6610   19.0160 O.co2 1430  KAP1430    -0.2457
      4  OI2       26.0320   -4.2220   19.4320 O.co2 1430  KAP1430    -0.2457
      5  CB        22.5100   -4.2820   18.4040 C.3   1430  KAP1430     0.0118
      6  CG        21.2950   -4.6010   19.2580 C.3   1430  KAP1430     0.0010
      7  CD        20.2350   -3.4880   19.1230 C.3   1430  KAP1430     0.0078
      8  CE        19.0550   -4.1200   19.8150 C.3   1430  KAP1430     0.0660
      9  CZ        18.3450   -3.3220   20.8370 C.2   1430  KAP1430     0.1679
     10  CH        18.8090   -2.4090   21.9910 C.3   1430  KAP1430     0.1489
     11  CS        19.7870   -1.3530   21.6310 C.3   1430  KAP1430     0.0285
     12  O         17.1180   -3.4490   20.8100 O.2   1430  KAP1430    -0.2946
     13  N         19.3470   -3.4320   22.9230 N.3   1430  KAP1430    -0.1250
@<TRIPOS>BOND
     1     5     1    1
     2     5     6    1
     3     1     2    1
     4     3     2   ar
     5     7     6    1
     6     7     8    1
     7     2     4   ar
     8     8     9    1
     9    12     9    2
    10     9    10    1
    11    11    10    1
    12    10    13    1
