@<TRIPOS>MOLECULE
1qj3_PLP_A_1.pdb
 15 15 0 0 0
SMALL
GASTEIGER

@<TRIPOS>ATOM
      1  N1        12.3510   -6.4020   19.6660 N.ar  1429  PLP1429    -0.2452
      2  C2        12.8360   -5.9000   18.5510 C.ar  1429  PLP1429     0.0978
      3  C2A       12.4820   -6.5930   17.2730 C.3   1429  PLP1429     0.0555
      4  C3        13.6420   -4.7610   18.6470 C.ar  1429  PLP1429     0.2049
      5  O3        14.1260   -4.2760   17.5330 O.3   1429  PLP1429    -0.2857
      6  C4        13.8990   -4.1980   19.9150 C.ar  1429  PLP1429     0.0182
      7  C4A       14.7330   -2.9770   19.9570 C.3   1429  PLP1429     0.0342
      8  C5        13.3520   -4.7810   21.0360 C.ar  1429  PLP1429     0.0261
      9  C6        12.5620   -5.8970   20.8640 C.ar  1429  PLP1429     0.0965
     10  C5A       13.4400   -4.4550   22.4850 C.3   1429  PLP1429     0.1815
     11  O4P       13.6360   -3.2080   22.9050 O.3   1429  PLP1429    -0.2653
     12  P         14.3690   -2.4820   24.0590 P.3   1429  PLP1429     0.5329
     13  O1P       15.8080   -2.7370   23.8310 O.2   1429  PLP1429    -0.2224
     14  O2P       13.9370   -3.0050   25.4940 O.3   1429  PLP1429    -0.1145
     15  O3P       13.8880   -1.0230   23.9950 O.3   1429  PLP1429    -0.1145
@<TRIPOS>BOND
     1     3     2    1
     2     5     4    1
     3     2     4   ar
     4     2     1   ar
     5     4     6   ar
     6     1     9   ar
     7     6     7    1
     8     6     8   ar
     9     9     8   ar
    10     8    10    1
    11    10    11    1
    12    11    12    1
    13    13    12    2
    14    15    12    1
    15    12    14    1
