@<TRIPOS>MOLECULE
1qj5_PLP_A_1.pdb
 15 15 0 0 0
SMALL
GASTEIGER

@<TRIPOS>ATOM
      1  N1        12.3380   -5.8000   19.4410 N.2   502  PLP502     -0.2505
      2  C2        12.9600   -5.4000   18.3560 C.2   502  PLP502      0.0675
      3  C2A       12.5360   -5.9960   17.0380 C.3   502  PLP502      0.0499
      4  C3        13.8670   -4.3400   18.5180 C.3   502  PLP502      0.1913
      5  O3        14.5840   -3.9650   17.4910 O.3   502  PLP502     -0.2167
      6  C4        14.1200   -3.8630   19.8230 C.3   502  PLP502      0.0581
      7  C4A       14.8170   -2.5390   19.9780 C.3   502  PLP502      0.0075
      8  C5        13.4600   -4.3840   20.9180 C.2   502  PLP502      0.0073
      9  C6        12.5580   -5.4000   20.7130 C.2   502  PLP502      0.0921
     10  C5A       13.8240   -4.0780   22.3510 C.3   502  PLP502      0.1776
     11  O4P       13.6080   -2.7740   22.7430 O.3   502  PLP502     -0.2656
     12  P         14.3000   -2.0870   24.0080 P.3   502  PLP502      0.5329
     13  O1P       15.7870   -2.2530   23.7520 O.2   502  PLP502     -0.2224
     14  O2P       13.9830   -2.9010   25.2300 O.3   502  PLP502     -0.1145
     15  O3P       13.8140   -0.7010   24.0960 O.3   502  PLP502     -0.1145
@<TRIPOS>BOND
     1     3     2    1
     2     5     4    1
     3     2     4    1
     4     2     1    2
     5     4     6    1
     6     1     9    1
     7     6     7    1
     8     6     8    1
     9     9     8    2
    10     8    10    1
    11    10    11    1
    12    11    12    1
    13    13    12    2
    14    12    15    1
    15    12    14    1
