@<TRIPOS>MOLECULE
1qj6_167_B_1.pdb
 28 30 0 0 0
SMALL
GASTEIGER

@<TRIPOS>ATOM
      1  C1         8.5680   22.2910   51.5460 C.3   1248  1671248     0.0082
      2  C2         8.5230   23.4650   50.6050 C.3   1248  1671248     0.0011
      3  C3         9.7580   23.4140   49.7310 C.3   1248  1671248     0.0134
      4  C4         9.7700   22.1790   48.8540 C.3   1248  1671248     0.1335
      5  C5        10.7460   22.2150   47.6960 C.2   1248  1671248     0.4538
      6  N6        10.9510   23.2750   46.9350 N.pl3 1248  1671248     0.1994
      7  N7        11.3860   21.1270   47.3500 N.pl3 1248  1671248     0.1994
      8  O8         8.1020   23.5910   54.4040 O.2   1248  1671248    -0.2883
      9  O9         5.0630   21.5360   54.4810 O.3   1248  1671248    -0.2224
     10  C10        6.0740   21.5780   52.1740 C.3   1248  1671248     0.0601
     11  C11        4.4870   20.1880   51.1960 C.ar  1248  1671248    -0.0235
     12  C12        5.7760   20.6240   51.0170 C.ar  1248  1671248    -0.0235
     13  C13        5.2920   20.8350   53.2810 C.3   1248  1671248     0.1607
     14  C14        3.9780   20.5450   52.5580 C.3   1248  1671248     0.0592
     15  C36        6.4850   20.2010   49.9080 C.ar  1248  1671248    -0.0045
     16  C37        5.7930   19.4520   48.9710 C.ar  1248  1671248    -0.0003
     17  C38        4.4370   19.1270   49.0900 C.ar  1248  1671248    -0.0002
     18  C39        3.7920   19.4580   50.2670 C.ar  1248  1671248    -0.0045
     19  C43        3.6720   18.4980   47.9340 C.ar  1248  1671248     0.0030
     20  C44        2.3830   18.9620   47.6410 C.ar  1248  1671248     0.0369
     21  C45        1.6680   18.4860   46.5570 C.ar  1248  1671248     0.1387
     22  C24        2.2510   17.5150   45.7470 C.ar  1248  1671248     0.0369
     23  C25        3.5160   17.0110   46.0300 C.ar  1248  1671248     0.0031
     24  C6         4.2250   17.5000   47.1200 C.ar  1248  1671248     0.0002
     25  C53        0.3780   19.8610   45.1670 C.3   1248  1671248     0.2525
     26  O54        0.3860   18.9910   46.2900 O.3   1248  1671248    -0.4714
     27  C16        7.4670   22.1570   52.5870 C.3   1248  1671248     0.0714
     28  C15        7.3650   23.4300   53.4780 C.2   1248  1671248     0.2074
@<TRIPOS>BOND
     1    25    26    1
     2    22    23   ar
     3    22    21   ar
     4    23    24   ar
     5    26    21    1
     6    21    20   ar
     7     6     5    2
     8    24    19   ar
     9     7     5    1
    10    20    19   ar
    11     5     4    1
    12    19    17    1
    13     4     3    1
    14    16    17   ar
    15    16    15   ar
    16    17    18   ar
    17     3     2    1
    18    15    12   ar
    19    18    11   ar
    20     2     1    1
    21    12    11   ar
    22    12    10    1
    23    11    14    1
    24     1    27    1
    25    10    27    1
    26    10    13    1
    27    14    13    1
    28    27    28    1
    29    13     9    1
    30    28     8    2
