@<TRIPOS>MOLECULE
1qj7_GR1_B_1.pdb
 33 35 0 0 0
SMALL
GASTEIGER

@<TRIPOS>ATOM
      1  N1        -0.0220   18.9140   46.0580 N.am  1248  GR11248    -0.2761
      2  C7         0.4920   19.1970   44.7140 C.3   1248  GR11248     0.0938
      3  O1         0.0380   17.7300   47.9150 O.2   1248  GR11248    -0.2699
      4  C8         4.2010   18.4430   48.0310 C.ar  1248  GR11248     0.0001
      5  C9         4.8540   17.5470   47.1820 C.ar  1248  GR11248     0.0000
      6  C17        8.9150   22.3590   51.3240 C.3   1248  GR11248     0.0082
      7  C18        8.5070   23.3770   50.2730 C.3   1248  GR11248     0.0011
      8  C19        9.5770   23.5050   49.1860 C.3   1248  GR11248     0.0134
      9  C20       10.4240   22.2550   49.0040 C.3   1248  GR11248     0.1335
     10  C21       11.1670   22.1630   47.7180 C.2   1248  GR11248     0.4538
     11  N2        11.7540   21.0040   47.4630 N.pl3 1248  GR11248     0.1994
     12  N3        11.2610   23.1960   46.8330 N.pl3 1248  GR11248     0.1994
     13  O2         8.9630   23.5140   53.9740 O.2   1248  GR11248    -0.2883
     14  O3         5.2750   21.9470   54.4700 O.3   1248  GR11248    -0.2224
     15  C10        6.4330   21.8150   52.1000 C.3   1248  GR11248     0.0601
     16  C11        4.8280   20.3780   51.1870 C.ar  1248  GR11248    -0.0235
     17  C12        6.0970   20.8660   50.9740 C.ar  1248  GR11248    -0.0235
     18  C13        5.5880   21.1700   53.2740 C.3   1248  GR11248     0.1607
     19  C14        4.2960   20.7630   52.5390 C.3   1248  GR11248     0.0592
     20  C22        6.8270   20.4890   49.8590 C.ar  1248  GR11248    -0.0045
     21  C23        6.2010   19.6610   48.9460 C.ar  1248  GR11248    -0.0003
     22  C24        4.8790   19.2240   49.1130 C.ar  1248  GR11248    -0.0003
     23  C25        4.1860   19.5670   50.2750 C.ar  1248  GR11248    -0.0045
     24  C3         4.1430   16.9000   46.1710 C.ar  1248  GR11248     0.0001
     25  C4         2.7770   17.1270   46.0010 C.ar  1248  GR11248     0.0045
     26  C26        0.6490   18.1920   46.9640 C.2   1248  GR11248     0.2490
     27  C5         2.1340   18.0010   46.8700 C.ar  1248  GR11248     0.0536
     28  C6         2.8500   18.6460   47.8590 C.ar  1248  GR11248     0.0045
     29  C27        1.3460   20.4410   44.7030 C.3   1248  GR11248     0.0233
     30  C1        -1.2930   19.5070   46.5470 C.3   1248  GR11248     0.0938
     31  C2        -2.4480   18.5390   46.8690 C.3   1248  GR11248     0.0233
     32  C16        7.9020   22.1530   52.4290 C.3   1248  GR11248     0.0714
     33  C15        7.9780   23.4190   53.2990 C.2   1248  GR11248     0.2074
@<TRIPOS>BOND
     1    29     2    1
     2     2     1    1
     3    25    24   ar
     4    25    27   ar
     5     1    30    1
     6     1    26   am
     7    24     5   ar
     8    30    31    1
     9    12    10    2
    10    27    26    1
    11    27    28   ar
    12    26     3    2
    13     5     4   ar
    14    11    10    1
    15    10     9    1
    16    28     4   ar
    17     4    22    1
    18    21    22   ar
    19    21    20   ar
    20     9     8    1
    21    22    23   ar
    22     8     7    1
    23    20    17   ar
    24     7     6    1
    25    23    16   ar
    26    17    16   ar
    27    17    15    1
    28    16    19    1
    29     6    32    1
    30    15    32    1
    31    15    18    1
    32    32    33    1
    33    19    18    1
    34    18    14    1
    35    33    13    2
