@<TRIPOS>MOLECULE
1qj8_C8E_A_1.pdb
 21 20 0 0 0
SMALL
GASTEIGER

@<TRIPOS>ATOM
      1  C1        61.0730   16.2670   33.4690 C.3   153  C8E153      0.0000
      2  C2        60.0090   15.8470   32.5280 C.3   153  C8E153      0.0000
      3  C3        59.7870   16.7590   31.4120 C.3   153  C8E153      0.0000
      4  C4        59.1740   18.0070   31.9490 C.3   153  C8E153      0.0000
      5  C5        57.9320   18.2000   31.1320 C.3   153  C8E153      0.0001
      6  C6        58.1020   19.5110   30.4930 C.3   153  C8E153      0.0026
      7  C7        56.9750   19.4450   29.5930 C.3   153  C8E153      0.0321
      8  C8        56.7580   20.7730   28.9560 C.3   153  C8E153      0.1423
      9  O9        56.2060   20.7710   27.6280 O.3   153  C8E153     -0.3511
     10  C10       57.1390   20.4430   26.6170 C.3   153  C8E153      0.1741
     11  C11       56.5090   20.4910   25.2780 C.3   153  C8E153      0.1742
     12  O12       55.9490   21.7760   24.9000 O.3   153  C8E153     -0.3484
     13  C13       54.4780   21.8680   24.8340 C.3   153  C8E153      0.1742
     14  C14       53.6320   22.2690   23.6080 C.3   153  C8E153      0.1742
     15  O15       52.5200   23.2690   23.6170 O.3   153  C8E153     -0.3484
     16  C16       52.1300   23.4300   22.2550 C.3   153  C8E153      0.1742
     17  C17       51.0620   22.4580   21.7030 C.3   153  C8E153      0.1742
     18  O18       50.1560   22.7770   20.6240 O.3   153  C8E153     -0.3483
     19  C19       49.1540   23.7970   21.0160 C.3   153  C8E153      0.1777
     20  C20       47.7260   23.8120   20.3400 C.3   153  C8E153      0.2140
     21  O21       47.7030   24.3210   18.9970 O.3   153  C8E153     -0.2176
@<TRIPOS>BOND
     1    21    20    1
     2    20    19    1
     3    18    19    1
     4    18    17    1
     5    17    16    1
     6    16    15    1
     7    14    15    1
     8    14    13    1
     9    13    12    1
    10    12    11    1
    11    11    10    1
    12    10     9    1
    13     9     8    1
    14     8     7    1
    15     7     6    1
    16     6     5    1
    17     5     4    1
    18     3     4    1
    19     3     2    1
    20     2     1    1
