@<TRIPOS>MOLECULE
1qjc_PNS_B_1.pdb
 22 21 0 0 0
SMALL
GASTEIGER

@<TRIPOS>ATOM
      1  O23       32.4810   46.2910   51.6410 O.3   1163  PNS1163    -0.1145
      2  P24       33.6750   45.2650   51.7520 P.3   1163  PNS1163     0.5326
      3  O25       33.8840   44.5090   50.4270 O.2   1163  PNS1163    -0.2224
      4  O26       34.9560   46.0100   52.2170 O.3   1163  PNS1163    -0.1145
      5  O27       33.0940   44.2740   52.9140 O.3   1163  PNS1163    -0.2702
      6  C28       33.9470   43.3130   53.5440 C.3   1163  PNS1163     0.1565
      7  C29       33.6060   43.1800   55.0660 C.3   1163  PNS1163     0.0647
      8  C30       33.7790   44.5830   55.7350 C.3   1163  PNS1163     0.0056
      9  C31       32.1130   42.6940   55.2030 C.3   1163  PNS1163     0.0056
     10  C32       34.6350   42.1000   55.6400 C.3   1163  PNS1163     0.2312
     11  O33       35.9970   42.4880   55.3660 O.3   1163  PNS1163    -0.2131
     12  C34       34.4790   41.7980   57.1940 C.2   1163  PNS1163     0.2719
     13  O35       33.6160   40.9250   57.5580 O.2   1163  PNS1163    -0.2706
     14  N36       35.2920   42.4890   58.0580 N.am  1163  PNS1163    -0.2028
     15  C37       35.2740   42.3130   59.5320 C.3   1163  PNS1163     0.1248
     16  C38       36.4970   41.4480   59.9510 C.3   1163  PNS1163     0.1102
     17  C39       36.2300   39.9770   59.6420 C.2   1163  PNS1163     0.2432
     18  O40       35.5470   39.2560   60.3950 O.2   1163  PNS1163    -0.2733
     19  N41       36.7530   39.5080   58.5170 N.am  1163  PNS1163    -0.2044
     20  C42       36.5900   38.0820   58.0200 C.3   1163  PNS1163     0.1276
     21  C43       35.4600   38.0910   57.1040 C.3   1163  PNS1163     0.0920
     22  S44       35.2720   36.4550   56.5450 S.3   1163  PNS1163    -0.0802
@<TRIPOS>BOND
     1     3     2    2
     2     1     2    1
     3     2     4    1
     4     2     5    1
     5     5     6    1
     6     6     7    1
     7     7     9    1
     8     7    10    1
     9     7     8    1
    10    11    10    1
    11    10    12    1
    12    22    21    1
    13    21    20    1
    14    12    13    2
    15    12    14   am
    16    20    19    1
    17    14    15    1
    18    19    17   am
    19    15    16    1
    20    17    16    1
    21    17    18    2
