@<TRIPOS>MOLECULE
1qjd_HEC_A_1.pdb
 43 50 0 0 0
SMALL
GASTEIGER

@<TRIPOS>ATOM
      1 FE         29.9550   58.4450   43.1700 Fe    1569  HEC1569     0.0000
      2  CHA       28.1840   55.6440   43.4100 C.2   1569  HEC1569     0.0000
      3  CHB       28.5450   59.1410   40.1780 C.2   1569  HEC1569     0.0000
      4  CHC       31.4840   61.5730   43.0730 C.2   1569  HEC1569     0.0000
      5  CHD       31.8090   57.6400   45.8060 C.2   1569  HEC1569     0.0000
      6  NA        28.5060   57.7130   42.1310 N.ar  1569  HEC1569     0.0000
      7  C1A       27.8270   56.5540   42.4250 C.ar  1569  HEC1569     0.0000
      8  C2A       26.9290   56.1830   41.3480 C.ar  1569  HEC1569     0.0000
      9  C3A       27.0650   57.1300   40.3760 C.ar  1569  HEC1569     0.0000
     10  C4A       28.0360   58.0770   40.8780 C.ar  1569  HEC1569     0.0000
     11  CMA       26.0430   57.3450   39.2540 C.3   1569  HEC1569     0.0000
     12  CAA       26.1340   54.8800   41.2870 C.3   1569  HEC1569     0.0000
     13  CBA       26.6500   53.8790   40.2410 C.3   1569  HEC1569     0.0000
     14  CGA       25.7860   52.6270   40.2760 C.2   1569  HEC1569     0.0000
     15  O1A       26.0240   51.7570   39.4150 O.co2 1569  HEC1569     0.0000
     16  O2A       24.9100   52.5740   41.1630 O.co2 1569  HEC1569     0.0000
     17  NB        29.9720   60.0840   41.9120 N.2   1569  HEC1569     0.0000
     18  C1B       29.4060   60.0990   40.6600 C.2   1569  HEC1569     0.0000
     19  C2B       29.7310   61.3290   39.9610 C.2   1569  HEC1569     0.0000
     20  C3B       30.5190   62.0600   40.7880 C.2   1569  HEC1569     0.0000
     21  C4B       30.6940   61.2570   41.9880 C.2   1569  HEC1569     0.0000
     22  CMB       29.1700   61.6900   38.5920 C.3   1569  HEC1569     0.0000
     23  CAB       31.0240   63.3380   40.5460 C.3   1569  HEC1569     0.0000
     24  CBB       30.1430   64.5050   40.5000 C.3   1569  HEC1569     0.0000
     25  NC        31.2990   59.4300   44.2530 N.ar  1569  HEC1569     0.0000
     26  C1C       31.7810   60.7200   44.1200 C.ar  1569  HEC1569     0.0000
     27  C2C       32.7730   61.0260   45.1320 C.ar  1569  HEC1569     0.0000
     28  C3C       32.9070   59.9080   45.8910 C.ar  1569  HEC1569     0.0000
     29  C4C       31.9920   58.9220   45.3360 C.ar  1569  HEC1569     0.0000
     30  CMC       33.3360   62.4120   45.4200 C.3   1569  HEC1569     0.0000
     31  CAC       33.9380   59.6790   46.8060 C.3   1569  HEC1569     0.0000
     32  CBC       34.0310   60.4990   48.0130 C.3   1569  HEC1569     0.0000
     33  ND        30.0090   56.9390   44.3230 N.2   1569  HEC1569     0.0000
     34  C1D       30.8850   56.7200   45.3680 C.2   1569  HEC1569     0.0000
     35  C2D       30.5910   55.4760   46.0390 C.2   1569  HEC1569     0.0000
     36  C3D       29.5210   54.9230   45.4120 C.2   1569  HEC1569     0.0000
     37  C4D       29.1560   55.8610   44.3600 C.2   1569  HEC1569     0.0000
     38  CMD       31.3630   54.8410   47.1930 C.3   1569  HEC1569     0.0000
     39  CAD       28.6900   53.7540   45.9540 C.3   1569  HEC1569     0.0000
     40  CBD       27.3120   54.1720   46.5000 C.3   1569  HEC1569     0.0000
     41  CGD       27.4300   55.2300   47.5830 C.2   1569  HEC1569     0.0000
     42  O1D       26.7200   56.2510   47.5350 O.co2 1569  HEC1569     0.0000
     43  O2D       28.2540   55.0330   48.4990 O.co2 1569  HEC1569     0.0000
@<TRIPOS>BOND
     1    22    19    1
     2    11     9    1
     3    15    14   ar
     4    19    18    1
     5    19    20    2
     6     3    18    1
     7     3    10    2
     8    13    14    1
     9    13    12    1
    10    14    16   ar
    11     9    10   ar
    12     9     8   ar
    13    24    23    1
    14    23    20    1
    15    18    17    2
    16    20    21    1
    17    10     6   ar
    18    12     8    1
    19     8     7   ar
    20    17    21    1
    21    17     1    1
    22    21     4    2
    23     6     7   ar
    24     6     1    1
    25     7     2    2
    26     4    26    1
    27     1    25    1
    28     1    33    1
    29     2    37    1
    30    26    25   ar
    31    26    27   ar
    32    25    29   ar
    33    33    37    2
    34    33    34    1
    35    37    36    1
    36    27    30    1
    37    27    28   ar
    38    29     5    1
    39    29    28   ar
    40    34     5    2
    41    34    35    1
    42    36    39    1
    43    36    35    2
    44    28    31    1
    45    39    40    1
    46    35    38    1
    47    40    41    1
    48    31    32    1
    49    42    41   ar
    50    41    43   ar
