@<TRIPOS>MOLECULE
1qje_IP1_A_1.pdb
 24 25 0 0 0
SMALL
GASTEIGER

@<TRIPOS>ATOM
      1  C1        17.2160   36.0830    5.4880 C.2   1333  IP11333     0.3819
      2  C2        15.7870   36.2980    5.9380 C.3   1333  IP11333     0.1943
      3  C3        15.1070   37.4250    5.2070 C.3   1333  IP11333     0.0311
      4  C4        13.7890   37.8350    5.9020 C.3   1333  IP11333     0.0117
      5  C7        13.1320   38.9360    5.1010 C.3   1333  IP11333     0.0869
      6  C10       11.7670   39.2970    5.6090 C.2   1333  IP11333     0.2418
      7  N11       10.7350   39.4020    4.7560 N.am  1333  IP11333    -0.1951
      8  C12        9.3990   39.6720    5.2560 C.3   1333  IP11333     0.1995
      9  C13        8.8590   38.3230    5.8310 C.2   1333  IP11333     0.2491
     10  N14       15.6120   36.3580    7.4170 N.3   1333  IP11333    -0.1208
     11  O15       11.5980   39.4620    6.8230 O.2   1333  IP11333    -0.2733
     12  C16        8.1910   39.5740    4.3310 C.3   1333  IP11333     0.1529
     13  S17        8.3320   38.6500    2.7860 S.3   1333  IP11333    -0.1184
     14  O18        9.1820   37.3700    6.4960 O.2   1333  IP11333    -0.2729
     15  O19       17.4230   35.7870    4.3010 O.co2 1333  IP11333    -0.2441
     16  O20       18.0970   36.1980    6.3430 O.co2 1333  IP11333    -0.2441
     17  N29        7.6530   38.5370    5.1990 N.am  1333  IP11333    -0.2594
     18  C30        6.8730   37.4240    4.6830 C.3   1333  IP11333     0.1888
     19  C31        5.4770   37.2440    5.3560 C.2   1333  IP11333     0.3833
     20  C32        6.7360   37.7700    3.1790 C.3   1333  IP11333     0.0681
     21  C33        6.7470   36.4690    2.4240 C.3   1333  IP11333     0.0131
     22  C37        5.4920   38.6200    2.9770 C.3   1333  IP11333     0.0131
     23  O42        4.7060   36.3700    4.8500 O.co2 1333  IP11333    -0.2438
     24  O43        5.2750   37.9610    6.3160 O.co2 1333  IP11333    -0.2438
@<TRIPOS>BOND
     1    21    20    1
     2    13    20    1
     3    13    12    1
     4    22    20    1
     5    20    18    1
     6    15     1   ar
     7    12    17    1
     8    12     8    1
     9    18    17    1
    10    18    19    1
    11     7     8    1
    12     7     6   am
    13    23    19   ar
    14     5     6    1
    15     5     4    1
    16    17     9   am
    17     3     4    1
    18     3     2    1
    19     8     9    1
    20    19    24   ar
    21     1     2    1
    22     1    16   ar
    23     6    11    2
    24     9    14    2
    25     2    10    1
