@<TRIPOS>MOLECULE
1qje_ACV_A_1.pdb
 24 23 0 0 0
SMALL
GASTEIGER

@<TRIPOS>ATOM
      1  C1        17.3700   36.4940    5.2880 C.2   1334  ACV1334     0.3819
      2  C2        15.9910   36.6400    5.9220 C.3   1334  ACV1334     0.1943
      3  C3        15.3270   37.8580    5.3180 C.3   1334  ACV1334     0.0311
      4  C4        13.8100   37.8770    5.4000 C.3   1334  ACV1334     0.0117
      5  C7        13.3380   39.2620    5.0850 C.3   1334  ACV1334     0.0869
      6  C10       11.9600   39.6220    5.5480 C.2   1334  ACV1334     0.2418
      7  N11       10.9560   39.4170    4.6720 N.am  1334  ACV1334    -0.1968
      8  C12        9.5530   39.7600    4.7990 C.3   1334  ACV1334     0.1843
      9  C13        8.6860   38.5320    4.5470 C.2   1334  ACV1334     0.2626
     10  N14       16.0280   36.6840    7.4160 N.3   1334  ACV1334    -0.1208
     11  O15       11.7030   40.1100    6.6390 O.2   1334  ACV1334    -0.2733
     12  C16        9.2890   40.6710    3.5950 C.3   1334  ACV1334     0.0997
     13  S17        9.3750   39.8450    1.9650 S.3   1334  ACV1334    -0.0797
     14  O18        9.0510   37.3750    4.4680 O.2   1334  ACV1334    -0.2714
     15  O19       18.3480   36.7250    6.0200 O.co2 1334  ACV1334    -0.2441
     16  O20       17.4060   36.1640    4.0930 O.co2 1334  ACV1334    -0.2441
     17  N29        7.3850   38.7970    4.5020 N.am  1334  ACV1334    -0.1941
     18  C30        6.3270   37.9050    4.0810 C.3   1334  ACV1334     0.1977
     19  C31        5.1940   37.7710    4.9470 C.2   1334  ACV1334     0.3842
     20  C32        6.1410   37.9330    2.5420 C.3   1334  ACV1334     0.0311
     21  C33        7.2840   37.0200    1.9730 C.3   1334  ACV1334     0.0023
     22  C37        5.9650   39.3350    1.9620 C.3   1334  ACV1334     0.0023
     23  O42        4.9980   38.4030    6.0110 O.co2 1334  ACV1334    -0.2437
     24  O43        4.3060   36.8500    4.4970 O.co2 1334  ACV1334    -0.2437
@<TRIPOS>BOND
     1    22    20    1
     2    13    12    1
     3    21    20    1
     4    20    18    1
     5    12     8    1
     6    18    17    1
     7    18    19    1
     8    16     1   ar
     9    14     9    2
    10    24    19   ar
    11    17     9   am
    12     9     8    1
    13     7     8    1
    14     7     6   am
    15    19    23   ar
    16     5     4    1
    17     5     6    1
    18     1     2    1
    19     1    15   ar
    20     3     4    1
    21     3     2    1
    22     6    11    2
    23     2    10    1
