@<TRIPOS>MOLECULE
1qjf_ACS_A_1.pdb
 25 25 0 0 0
SMALL
GASTEIGER

@<TRIPOS>ATOM
      1  N1        15.8020   36.5640    7.5470 N.3   1333  ACS1333    -0.1208
      2  C2        15.9010   36.5040    6.0360 C.3   1333  ACS1333     0.1943
      3  C3        17.3350   36.2390    5.5800 C.2   1333  ACS1333     0.3819
      4  O4        18.2500   36.3230    6.4340 O.co2 1333  ACS1333    -0.2441
      5  O5        17.4960   35.9670    4.3560 O.co2 1333  ACS1333    -0.2441
      6  C6        15.2520   37.6400    5.2810 C.3   1333  ACS1333     0.0311
      7  C7        13.7990   37.9120    5.7130 C.3   1333  ACS1333     0.0117
      8  C10       13.3400   39.2320    5.1070 C.3   1333  ACS1333     0.0869
      9  C13       11.9900   39.5690    5.6700 C.2   1333  ACS1333     0.2418
     10  N16       11.0120   39.4710    4.7720 N.am  1333  ACS1333    -0.1951
     11  O17       11.7750   39.9320    6.8350 O.2   1333  ACS1333    -0.2733
     12  C18        9.6190   39.6660    5.1560 C.3   1333  ACS1333     0.2003
     13  C19        8.9230   38.3440    5.5430 C.2   1333  ACS1333     0.2491
     14  O20        9.1580   37.4730    6.3800 O.2   1333  ACS1333    -0.2729
     15  N21        7.9680   38.5530    4.6300 N.am  1333  ACS1333    -0.2587
     16  C22        6.8960   37.6370    4.3150 C.3   1333  ACS1333     0.1932
     17  C23        5.6600   37.5730    5.2490 C.2   1333  ACS1333     0.3835
     18  C24        6.6430   37.4530    2.8690 C.3   1333  ACS1333     0.1232
     19  S25        5.4040   38.6890    2.3710 S.O   1333  ACS1333     0.0450
     20  O28        6.1100   39.9600    1.9620 O.2   1333  ACS1333    -0.2558
     21  C29        4.9110   37.8940    0.8020 C.3   1333  ACS1333     0.1061
     22  O35        5.6040   38.3390    6.1570 O.co2 1333  ACS1333    -0.2438
     23  O36        4.8570   36.6600    4.8740 O.co2 1333  ACS1333    -0.2438
     24  C42        8.5760   39.7370    4.0220 C.3   1333  ACS1333     0.1628
     25  S44        9.3430   39.6550    2.3130 S.3   1333  ACS1333    -0.0585
@<TRIPOS>BOND
     1    21    19    1
     2    20    19    2
     3    25    24    1
     4    19    18    1
     5    18    16    1
     6    24    15    1
     7    24    12    1
     8    16    15    1
     9    16    17    1
    10     5     3   ar
    11    15    13   am
    12    10    12    1
    13    10     9   am
    14    23    17   ar
    15     8     9    1
    16     8     7    1
    17    12    13    1
    18    17    22   ar
    19     6     7    1
    20     6     2    1
    21    13    14    2
    22     3     2    1
    23     3     4   ar
    24     9    11    2
    25     2     1    1
