@<TRIPOS>MOLECULE
1qjg_EQU_A_1.pdb
 20 23 0 0 0
SMALL
GASTEIGER

@<TRIPOS>ATOM
      1  C1        10.6830   68.0160  -32.0610 C.ar  130  EQU130      0.1957
      2  C2         9.8810   66.8960  -32.2230 C.ar  130  EQU130      0.0420
      3  C3        10.3090   65.9170  -33.1560 C.ar  130  EQU130      0.0029
      4  C4        11.5750   66.0980  -33.9200 C.ar  130  EQU130     -0.0041
      5  C5        12.3360   67.2470  -33.7070 C.ar  130  EQU130      0.0030
      6  C6        11.8990   68.1880  -32.7980 C.ar  130  EQU130      0.0420
      7  C10        9.4820   64.7480  -33.3430 C.ar  130  EQU130     -0.0002
      8  C11        9.9060   63.7590  -34.2980 C.ar  130  EQU130     -0.0046
      9  C12       11.1260   63.9420  -35.0380 C.ar  130  EQU130     -0.0260
     10  C13       11.9680   65.1020  -34.8500 C.ar  130  EQU130     -0.0261
     11  C16       11.5080   62.9140  -36.0250 C.3   130  EQU130      0.0290
     12  C17       13.0380   62.8330  -36.2480 C.3   130  EQU130      0.0556
     13  C18       13.6370   64.2020  -36.6230 C.3   130  EQU130      0.0119
     14  C19       13.2540   65.3180  -35.6100 C.3   130  EQU130      0.0265
     15  C24       11.1650   61.4430  -35.7370 C.3   130  EQU130      0.0125
     16  C25       11.7770   60.7780  -37.0290 C.3   130  EQU130      0.0648
     17  C26       12.9970   61.7410  -37.2920 C.2   130  EQU130      0.1502
     18  C27       13.7920   62.2510  -35.0320 C.3   130  EQU130      0.0077
     19  O1        10.2820   68.9000  -31.2160 O.3   130  EQU130     -0.2866
     20  O26       13.7970   61.6470  -38.1890 O.2   130  EQU130     -0.2961
@<TRIPOS>BOND
     1    20    17    2
     2    17    16    1
     3    17    12    1
     4    16    15    1
     5    13    12    1
     6    13    14    1
     7    12    11    1
     8    12    18    1
     9    11    15    1
    10    11     9    1
    11    14    10    1
    12     9    10   ar
    13     9     8   ar
    14    10     4   ar
    15     8     7   ar
    16     4     5   ar
    17     4     3   ar
    18     5     6   ar
    19     7     3   ar
    20     3     2   ar
    21     6     1   ar
    22     2     1   ar
    23     1    19    1
