@<TRIPOS>MOLECULE
1qjp_C8E_A_1.pdb
 21 20 0 0 0
SMALL
GASTEIGER

@<TRIPOS>ATOM
      1  C1        29.1720   20.9650   49.9150 C.3   1172  C8E1172     0.0000
      2  C2        30.5290   21.0890   49.4050 C.3   1172  C8E1172     0.0000
      3  C3        31.3290   22.1200   50.0590 C.3   1172  C8E1172     0.0000
      4  C4        32.3980   22.4720   49.1460 C.3   1172  C8E1172     0.0000
      5  C5        33.6870   22.0460   49.7350 C.3   1172  C8E1172     0.0001
      6  C6        34.6130   23.1590   49.7660 C.3   1172  C8E1172     0.0026
      7  C7        35.8650   22.4290   49.8150 C.3   1172  C8E1172     0.0321
      8  C8        36.9130   23.3200   50.3360 C.3   1172  C8E1172     0.1423
      9  O9        38.0940   23.7050   49.6620 O.3   1172  C8E1172    -0.3511
     10  C10       38.9250   22.6950   49.1280 C.3   1172  C8E1172     0.1741
     11  C11       40.1150   23.4180   48.5770 C.3   1172  C8E1172     0.1742
     12  O12       40.9930   23.8550   49.6310 O.3   1172  C8E1172    -0.3484
     13  C13       42.2440   23.1090   49.7430 C.3   1172  C8E1172     0.1742
     14  C14       42.8410   22.5160   51.0590 C.3   1172  C8E1172     0.1742
     15  O15       43.9470   22.9620   51.8940 O.3   1172  C8E1172    -0.3484
     16  C16       45.1470   22.2390   51.5630 C.3   1172  C8E1172     0.1742
     17  C17       45.4190   21.0250   52.4600 C.3   1172  C8E1172     0.1742
     18  O18       46.7430   20.6430   52.8820 O.3   1172  C8E1172    -0.3483
     19  C19       47.3720   19.7150   51.9540 C.3   1172  C8E1172     0.1777
     20  C20       47.7920   18.2480   52.3400 C.3   1172  C8E1172     0.2140
     21  O21       46.8840   17.4530   53.1100 O.3   1172  C8E1172    -0.2176
@<TRIPOS>BOND
     1    11    10    1
     2    11    12    1
     3    10     9    1
     4     4     5    1
     5     4     3    1
     6     2     1    1
     7     2     3    1
     8    12    13    1
     9     9     8    1
    10     5     6    1
    11    13    14    1
    12     6     7    1
    13     7     8    1
    14    14    15    1
    15    16    15    1
    16    16    17    1
    17    19    20    1
    18    19    18    1
    19    20    21    1
    20    17    18    1
