@<TRIPOS>MOLECULE
1qju_W01_1_1.pdb
 24 26 0 0 0
SMALL
GASTEIGER

@<TRIPOS>ATOM
      1  O1       130.0670 -124.5310   12.0490 O.2   7001  W017001    -0.3581
      2  N2       128.9070 -124.8190   12.8390 N.ar  7001  W017001    -0.0817
      3  C3       128.2560 -123.6960   12.9850 C.ar  7001  W017001     0.1007
      4  CM3      126.9950 -123.6470   13.7660 C.3   7001  W017001     0.0557
      5  C4       128.9290 -122.6600   12.3220 C.ar  7001  W017001     0.0536
      6  C5       130.0280 -123.2130   11.7660 C.ar  7001  W017001     0.1542
      7  C1C      131.0120 -122.7550   10.7680 C.3   7001  W017001     0.0712
      8  C2C      132.4290 -122.8860   11.2850 C.3   7001  W017001     0.0554
      9  C3C      133.4120 -122.3870   10.2520 C.3   7001  W017001     0.2058
     10  O1B      133.8300 -123.5460    9.6100 O.3   7001  W017001    -0.4761
     11  C1B      134.8020 -123.4680    8.6980 C.ar  7001  W017001     0.1305
     12  C2B      136.1740 -123.6630    9.0730 C.ar  7001  W017001     0.0125
     13  CM2      136.5270 -124.0070   10.4750 C.3   7001  W017001     0.0342
     14  C3B      137.2330 -123.5380    8.1250 C.ar  7001  W017001     0.0088
     15  C4B      136.9230 -123.2050    6.7760 C.ar  7001  W017001     0.0650
     16  C5B      135.5720 -123.0130    6.3780 C.ar  7001  W017001     0.0088
     17  C6B      134.5280 -123.1470    7.3260 C.ar  7001  W017001     0.0125
     18  CM6      133.1220 -122.9780    6.8290 C.3   7001  W017001     0.0342
     19  C2A      137.9910 -123.0220    5.8540 C.1   7001  W017001     0.0737
     20  N1A      139.2830 -123.3720    6.1120 N.2   7001  W017001    -0.0864
     21  N3A      137.8350 -122.4580    4.6540 N.2   7001  W017001    -0.1062
     22  N4A      139.0760 -122.4540    4.1810 N.pl3 7001  W017001    -0.1131
     23  CM4      139.4380 -121.8810    2.8760 C.3   7001  W017001     0.1630
     24  N5A      139.9370 -122.9940    5.0200 N.pl3 7001  W017001    -0.0181
@<TRIPOS>BOND
     1    23    22    1
     2    22    21    1
     3    22    24    1
     4    21    19    2
     5    24    20    1
     6    19    20    2
     7    19    15    1
     8    16    15   ar
     9    16    17   ar
    10    15    14   ar
    11    18    17    1
    12    17    11   ar
    13    14    12   ar
    14    11    12   ar
    15    11    10    1
    16    12    13    1
    17    10     9    1
    18     9     8    1
    19     7     8    1
    20     7     6    1
    21     6     1   ar
    22     6     5   ar
    23     1     2   ar
    24     5     3   ar
    25     2     3   ar
    26     3     4    1
