@<TRIPOS>MOLECULE
1qjw_GLC_A_1.pdb
 11 11 0 0 0
SMALL
GASTEIGER

@<TRIPOS>ATOM
      1  C1        29.1520   34.8900   36.8170 C.3   903  GLC903      0.1777
      2  C2        29.7000   35.3060   38.1940 C.3   903  GLC903      0.2141
      3  C3        29.4740   34.2320   39.2660 C.3   903  GLC903      0.2173
      4  C4        28.0150   33.7900   39.3770 C.3   903  GLC903      0.2142
      5  C5        27.2780   33.8870   38.0390 C.3   903  GLC903      0.1810
      6  C6        26.4270   35.1570   37.9640 C.3   903  GLC903      0.2141
      7  O2        31.0840   35.5760   38.0930 O.3   903  GLC903     -0.2176
      8  O3        29.9170   34.6990   40.5220 O.3   903  GLC903     -0.2175
      9  O4        27.9960   32.4360   39.8390 O.3   903  GLC903     -0.2176
     10  O5        28.2070   33.8110   36.9380 O.3   903  GLC903     -0.3481
     11  O6        25.7250   35.2080   36.7370 O.3   903  GLC903     -0.2176
@<TRIPOS>BOND
     1    11     6    1
     2     1    10    1
     3     1     2    1
     4    10     5    1
     5     6     5    1
     6     5     4    1
     7     7     2    1
     8     2     3    1
     9     3     4    1
    10     3     8    1
    11     4     9    1
