@<TRIPOS>MOLECULE
1qjw_MGL_A_1.pdb
 13 13 0 0 0
SMALL
GASTEIGER

@<TRIPOS>ATOM
      1  C1        32.6520   42.3300   29.8370 C.3   901  MGL901      0.2695
      2  C2        32.4310   42.3800   31.3480 C.3   901  MGL901      0.2406
      3  C3        32.4440   40.9770   31.9640 C.3   901  MGL901      0.2198
      4  C4        31.5730   39.9940   31.1670 C.3   901  MGL901      0.2144
      5  C5        31.8660   40.0730   29.6690 C.3   901  MGL901      0.1835
      6  C6        30.8860   39.2040   28.8860 C.3   901  MGL901      0.2142
      7  C7        32.9000   43.7530   27.9250 C.3   901  MGL901      0.1769
      8  O1        32.4920   43.6380   29.2930 O.3   901  MGL901     -0.3259
      9  O2        33.4410   43.1560   31.9560 O.3   901  MGL901     -0.2149
     10  O3        31.9600   41.0560   33.2870 O.3   901  MGL901     -0.2174
     11  O4        31.8410   38.6630   31.6170 O.3   901  MGL901     -0.2176
     12  O5        31.7220   41.4260   29.2370 O.3   901  MGL901     -0.3256
     13  O6        31.4190   38.8890   27.6190 O.3   901  MGL901     -0.2176
@<TRIPOS>BOND
     1    13     6    1
     2     7     8    1
     3     6     5    1
     4    12     5    1
     5    12     1    1
     6     8     1    1
     7     5     4    1
     8     1     2    1
     9     4    11    1
    10     4     3    1
    11     2     9    1
    12     2     3    1
    13     3    10    1
