@<TRIPOS>MOLECULE
1qjw_SGC_A_1.pdb
 11 11 0 0 0
SMALL
GASTEIGER

@<TRIPOS>ATOM
      1  C1        30.8230   38.1240   32.4540 C.3   902  SGC902      0.1776
      2  C2        31.0050   36.6180   32.5850 C.3   902  SGC902      0.2124
      3  O2        30.9450   36.0110   31.3130 O.3   902  SGC902     -0.2177
      4  C3        29.9230   36.0360   33.5050 C.3   902  SGC902      0.1977
      5  O3        30.1780   34.6590   33.7230 O.3   902  SGC902     -0.2193
      6  C4        29.8880   36.7790   34.8550 C.3   902  SGC902      0.1206
      7  C5        29.8180   38.2930   34.6120 C.3   902  SGC902      0.1614
      8  O5        30.8850   38.6990   33.7550 O.3   902  SGC902     -0.3498
      9  C6        29.9340   39.0570   35.9220 C.3   902  SGC902      0.2124
     10  O6        30.0740   40.4350   35.6540 O.3   902  SGC902     -0.2177
     11  S4        28.4720   36.2830   35.8700 S.3   902  SGC902     -0.0777
@<TRIPOS>BOND
     1     3     2    1
     2     1     2    1
     3     1     8    1
     4     2     4    1
     5     4     5    1
     6     4     6    1
     7     8     7    1
     8     7     6    1
     9     7     9    1
    10     6    11    1
    11    10     9    1
