@<TRIPOS>MOLECULE
1qjw_MAN_A_1.pdb
 11 11 0 0 0
SMALL
GASTEIGER

@<TRIPOS>ATOM
      1  C1        -0.5780   48.1290   50.1030 C.3   503  MAN503      0.1777
      2  C2        -0.1710   49.3850   49.3270 C.3   503  MAN503      0.2141
      3  C3         0.6760   50.3130   50.1960 C.3   503  MAN503      0.2173
      4  C4        -0.0120   50.5850   51.5350 C.3   503  MAN503      0.2142
      5  C5        -0.3860   49.2700   52.2220 C.3   503  MAN503      0.1810
      6  C6        -1.1590   49.5370   53.5050 C.3   503  MAN503      0.2141
      7  O2        -1.3280   50.0710   48.8930 O.3   503  MAN503     -0.2176
      8  O3         0.8960   51.5340   49.5190 O.3   503  MAN503     -0.2175
      9  O4         0.8470   51.3300   52.3720 O.3   503  MAN503     -0.2176
     10  O5        -1.2080   48.4930   51.3410 O.3   503  MAN503     -0.3481
     11  O6        -2.3320   50.2660   53.2170 O.3   503  MAN503     -0.2176
@<TRIPOS>BOND
     1     7     2    1
     2     2     1    1
     3     2     3    1
     4     8     3    1
     5     1    10    1
     6     3     4    1
     7    10     5    1
     8     4     5    1
     9     4     9    1
    10     5     6    1
    11    11     6    1
