@<TRIPOS>MOLECULE
1qjx_W02_1_1.pdb
 24 26 0 0 0
SMALL
GASTEIGER

@<TRIPOS>ATOM
      1  O1       130.0340 -124.6470   11.9770 O.2   7002  W027002    -0.3581
      2  N2       128.9260 -124.9580   12.8150 N.ar  7002  W027002    -0.0817
      3  C3       128.3240 -123.8180   13.0370 C.ar  7002  W027002     0.1007
      4  CM3      127.1140 -123.7540   13.8990 C.3   7002  W027002     0.0557
      5  C4       128.9720 -122.7670   12.3890 C.ar  7002  W027002     0.0536
      6  C5       130.0150 -123.3180   11.7510 C.ar  7002  W027002     0.1542
      7  C1C      130.9710 -122.8610   10.7460 C.3   7002  W027002     0.0712
      8  C2C      132.3750 -122.9740   11.2840 C.3   7002  W027002     0.0554
      9  C3C      133.3790 -122.4880   10.2680 C.3   7002  W027002     0.2058
     10  O1B      133.8160 -123.6180    9.6190 O.3   7002  W027002    -0.4761
     11  C1B      134.7750 -123.4840    8.6450 C.ar  7002  W027002     0.1306
     12  C2B      136.1480 -123.6530    8.9630 C.ar  7002  W027002     0.0131
     13  CM2      136.5240 -124.0340   10.3820 C.3   7002  W027002     0.0342
     14  C3B      137.1710 -123.4660    7.9990 C.ar  7002  W027002     0.0170
     15  C4B      136.8140 -123.0930    6.6770 C.ar  7002  W027002     0.0932
     16  C5B      135.4480 -122.9230    6.3320 C.ar  7002  W027002     0.0170
     17  C6B      134.4530 -123.1220    7.3000 C.ar  7002  W027002     0.0131
     18  CM6      133.0090 -122.9810    6.8590 C.3   7002  W027002     0.0342
     19  N2A      137.8790 -122.8450    5.6660 N.pl3 7002  W027002    -0.0928
     20  N1A      139.1000 -123.2280    5.8810 N.pl3 7002  W027002    -0.0141
     21  N3A      137.6850 -122.2330    4.4800 N.2   7002  W027002    -0.1063
     22  C4A      138.9170 -122.2630    3.9700 C.1   7002  W027002     0.0521
     23  CM4      139.3480 -121.7010    2.6700 C.3   7002  W027002     0.1185
     24  N5A      139.7900 -122.8720    4.8180 N.2   7002  W027002    -0.0905
@<TRIPOS>BOND
     1    23    22    1
     2    22    21    2
     3    22    24    2
     4    21    19    1
     5    24    20    1
     6    19    20    1
     7    19    15    1
     8    16    15   ar
     9    16    17   ar
    10    15    14   ar
    11    18    17    1
    12    17    11   ar
    13    14    12   ar
    14    11    12   ar
    15    11    10    1
    16    12    13    1
    17    10     9    1
    18     9     8    1
    19     7     8    1
    20     7     6    1
    21     6     1   ar
    22     6     5   ar
    23     1     2   ar
    24     5     3   ar
    25     2     3   ar
    26     3     4    1
