@<TRIPOS>MOLECULE
1qjy_W03_1_1.pdb
 24 26 0 0 0
SMALL
GASTEIGER

@<TRIPOS>ATOM
      1  O1       129.9830 -124.5930   12.0460 O.2   7003  W037003    -0.3581
      2  N2       128.9530 -124.9240   12.9460 N.ar  7003  W037003    -0.0817
      3  C3       128.3240 -123.8170   13.1900 C.ar  7003  W037003     0.1007
      4  CM3      127.1680 -123.8120   14.1110 C.3   7003  W037003     0.0557
      5  C4       128.8870 -122.7530   12.4920 C.ar  7003  W037003     0.0536
      6  C5       129.9080 -123.2780   11.7990 C.ar  7003  W037003     0.1542
      7  C1C      130.9430 -122.7510   10.8830 C.3   7003  W037003     0.0712
      8  C2C      132.3620 -123.0590   11.3320 C.3   7003  W037003     0.0554
      9  C3C      133.3740 -122.5590   10.3190 C.3   7003  W037003     0.2058
     10  O1B      133.9940 -123.6510    9.7060 O.3   7003  W037003    -0.4761
     11  C1B      134.8800 -123.4730    8.6890 C.ar  7003  W037003     0.1305
     12  C2B      136.2890 -123.6150    8.8770 C.ar  7003  W037003     0.0119
     13  CM2      136.8040 -124.0650   10.2070 C.3   7003  W037003     0.0342
     14  C3B      137.2260 -123.3420    7.8330 C.ar  7003  W037003     0.0010
     15  C4B      136.7510 -122.9050    6.5630 C.ar  7003  W037003     0.0288
     16  C5B      135.3580 -122.7720    6.3610 C.ar  7003  W037003     0.0010
     17  C6B      134.4490 -123.0550    7.3910 C.ar  7003  W037003     0.0119
     18  CM6      132.9990 -122.9370    7.0260 C.3   7003  W037003     0.0342
     19  C2A      137.6170 -122.6330    5.4420 C.2   7003  W037003     0.1560
     20  C1A      137.2000 -121.8710    4.4040 C.3   7003  W037003     0.2661
     21  N3A      138.9290 -122.9350    5.2900 N.2   7003  W037003    -0.3720
     22  C4A      139.2800 -122.3540    4.1630 C.2   7003  W037003     0.2529
     23  CM4      140.6690 -122.4970    3.6760 C.3   7003  W037003     0.1099
     24  O5A      138.2530 -121.6760    3.5710 O.2   7003  W037003    -0.4469
@<TRIPOS>BOND
     1    24    22    1
     2    24    20    1
     3    23    22    1
     4    22    21    2
     5    20    19    1
     6    21    19    2
     7    19    15    1
     8    16    15   ar
     9    16    17   ar
    10    15    14   ar
    11    18    17    1
    12    17    11   ar
    13    14    12   ar
    14    11    12   ar
    15    11    10    1
    16    12    13    1
    17    10     9    1
    18     9     8    1
    19     7     8    1
    20     7     6    1
    21     6     1   ar
    22     6     5   ar
    23     1     2   ar
    24     5     3   ar
    25     2     3   ar
    26     3     4    1
