@<TRIPOS>MOLECULE
1qk0_MAN_A_1.pdb
 11 11 0 0 0
SMALL
GASTEIGER

@<TRIPOS>ATOM
      1  C1        14.4330   47.2120   60.4190 C.3   504  MAN504      0.1777
      2  C2        13.7020   48.5360   60.6290 C.3   504  MAN504      0.2141
      3  C3        14.6020   49.5150   61.3630 C.3   504  MAN504      0.2173
      4  C4        14.9600   48.9890   62.7590 C.3   504  MAN504      0.2142
      5  C5        15.0310   47.4520   62.7960 C.3   504  MAN504      0.1810
      6  C6        13.7170   46.8270   63.2660 C.3   504  MAN504      0.2141
      7  O2        12.5040   48.3440   61.3490 O.3   504  MAN504     -0.2176
      8  O3        13.9550   50.7620   61.4710 O.3   504  MAN504     -0.2175
      9  O4        16.2120   49.5130   63.1500 O.3   504  MAN504     -0.2176
     10  O5        15.3660   46.9440   61.4890 O.3   504  MAN504     -0.3481
     11  O6        13.8770   45.4320   63.4360 O.3   504  MAN504     -0.2176
@<TRIPOS>BOND
     1     1     2    1
     2     1    10    1
     3     2     7    1
     4     2     3    1
     5     3     8    1
     6     3     4    1
     7    10     5    1
     8     4     5    1
     9     4     9    1
    10     5     6    1
    11     6    11    1
