@<TRIPOS>MOLECULE
1qk0_BGC_A_1.pdb
 11 11 0 0 0
SMALL
GASTEIGER

@<TRIPOS>ATOM
      1  C2        27.0940   30.6310   41.6600 C.3   903  BGC903      0.2141
      2  C3        25.8990   30.2210   42.5120 C.3   903  BGC903      0.2173
      3  C4        25.8650   31.0270   43.8130 C.3   903  BGC903      0.2142
      4  C5        25.9210   32.5260   43.5170 C.3   903  BGC903      0.1810
      5  C6        26.0290   33.3190   44.8100 C.3   903  BGC903      0.2141
      6  C1        27.1130   32.1440   41.4540 C.3   903  BGC903      0.1777
      7  O2        27.0340   29.9820   40.4070 O.3   903  BGC903     -0.2176
      8  O3        25.9720   28.8420   42.8040 O.3   903  BGC903     -0.2175
      9  O4        24.6890   30.7280   44.5260 O.3   903  BGC903     -0.2176
     10  O5        27.0730   32.8090   42.7190 O.3   903  BGC903     -0.3481
     11  O6        27.3730   33.3330   45.2510 O.3   903  BGC903     -0.2176
@<TRIPOS>BOND
     1     7     1    1
     2     6     1    1
     3     6    10    1
     4     1     2    1
     5     2     8    1
     6     2     3    1
     7    10     4    1
     8     4     3    1
     9     4     5    1
    10     3     9    1
    11     5    11    1
