@<TRIPOS>MOLECULE
1qk0_GLC_B_1.pdb
 11 11 0 0 0
SMALL
GASTEIGER

@<TRIPOS>ATOM
      1  C1        42.0160   80.2930   86.2890 C.3   903  GLC903      0.1777
      2  C2        42.0540   78.7870   86.5660 C.3   903  GLC903      0.2141
      3  C3        40.8910   78.3620   87.4660 C.3   903  GLC903      0.2173
      4  C4        40.8260   79.2370   88.7170 C.3   903  GLC903      0.2142
      5  C5        40.7840   80.7140   88.3280 C.3   903  GLC903      0.1810
      6  C6        40.8080   81.5880   89.5720 C.3   903  GLC903      0.2141
      7  O2        41.9810   78.0770   85.3450 O.3   903  GLC903     -0.2176
      8  O3        41.0540   77.0130   87.8410 O.3   903  GLC903     -0.2175
      9  O4        39.6840   78.9100   89.4860 O.3   903  GLC903     -0.2176
     10  O5        41.9290   81.0260   87.5200 O.3   903  GLC903     -0.3481
     11  O6        42.0840   81.5370   90.1710 O.3   903  GLC903     -0.2176
@<TRIPOS>BOND
     1     7     2    1
     2     1     2    1
     3     1    10    1
     4     2     3    1
     5     3     8    1
     6     3     4    1
     7    10     5    1
     8     5     4    1
     9     5     6    1
    10     4     9    1
    11     6    11    1
