@<TRIPOS>MOLECULE
1qk2_GLC_A_1.pdb
 11 11 0 0 0
SMALL
GASTEIGER

@<TRIPOS>ATOM
      1  C1        29.1160   35.4020   37.6000 C.3   903  GLC903      0.1777
      2  C2        29.4770   35.8020   39.0360 C.3   903  GLC903      0.2141
      3  C3        29.2390   34.6520   40.0190 C.3   903  GLC903      0.2173
      4  C4        27.8080   34.1160   39.9520 C.3   903  GLC903      0.2142
      5  C5        27.3020   34.0430   38.5100 C.3   903  GLC903      0.1810
      6  C6        26.2090   35.0790   38.2260 C.3   903  GLC903      0.2141
      7  O2        30.8300   36.1980   39.0950 O.3   903  GLC903     -0.2176
      8  O3        29.5520   35.0450   41.3400 O.3   903  GLC903     -0.2175
      9  O4        27.8130   32.7950   40.4940 O.3   903  GLC903     -0.2176
     10  O5        28.3930   34.1550   37.5760 O.3   903  GLC903     -0.3481
     11  O6        26.4720   36.2880   38.9060 O.3   903  GLC903     -0.2176
@<TRIPOS>BOND
     1    10     1    1
     2    10     5    1
     3     1     2    1
     4     6     5    1
     5     6    11    1
     6     5     4    1
     7     2     7    1
     8     2     3    1
     9     4     3    1
    10     4     9    1
    11     3     8    1
