@<TRIPOS>MOLECULE
1qk2_MAN_A_1.pdb
 11 11 0 0 0
SMALL
GASTEIGER

@<TRIPOS>ATOM
      1  C1        -0.5500   49.1690   50.6370 C.3   503  MAN503      0.1777
      2  C2         0.2380   50.3430   50.0420 C.3   503  MAN503      0.2141
      3  C3         0.9440   51.1530   51.1350 C.3   503  MAN503      0.2173
      4  C4        -0.0130   51.4920   52.2800 C.3   503  MAN503      0.2142
      5  C5        -0.7120   50.2330   52.7890 C.3   503  MAN503      0.1810
      6  C6        -1.7120   50.5780   53.8800 C.3   503  MAN503      0.2141
      7  O2        -0.6220   51.1900   49.3130 O.3   503  MAN503     -0.2176
      8  O3         1.4540   52.3500   50.5810 O.3   503  MAN503     -0.2175
      9  O4         0.7030   52.0940   53.3350 O.3   503  MAN503     -0.2176
     10  O5        -1.4020   49.6120   51.7020 O.3   503  MAN503     -0.3481
     11  O6        -1.0250   50.9470   55.0540 O.3   503  MAN503     -0.2176
@<TRIPOS>BOND
     1     7     2    1
     2     2     1    1
     3     2     3    1
     4     8     3    1
     5     1    10    1
     6     3     4    1
     7    10     5    1
     8     4     5    1
     9     4     9    1
    10     5     6    1
    11     6    11    1
