@<TRIPOS>MOLECULE
1qk2_SGC_A_1.pdb
 11 11 0 0 0
SMALL
GASTEIGER

@<TRIPOS>ATOM
      1  C1        30.3380   38.4450   33.0340 C.3   902  SGC902      0.1776
      2  C2        30.5110   36.9370   33.2180 C.3   902  SGC902      0.2124
      3  O2        30.3260   36.2680   31.9830 O.3   902  SGC902     -0.2177
      4  C3        29.5140   36.4020   34.2510 C.3   902  SGC902      0.1977
      5  O3        29.8060   35.0500   34.5390 O.3   902  SGC902     -0.2193
      6  C4        29.5640   37.2140   35.5490 C.3   902  SGC902      0.1206
      7  C5        29.4340   38.7080   35.2410 C.3   902  SGC902      0.1614
      8  O5        30.4500   39.0880   34.3080 O.3   902  SGC902     -0.3498
      9  C6        29.6010   39.5260   36.5150 C.3   902  SGC902      0.2124
     10  O6        29.8080   40.8840   36.1970 O.3   902  SGC902     -0.2177
     11  S4        28.2570   36.7160   36.6870 S.3   902  SGC902     -0.0777
@<TRIPOS>BOND
     1     3     2    1
     2     1     2    1
     3     1     8    1
     4     2     4    1
     5     4     5    1
     6     4     6    1
     7     8     7    1
     8     7     6    1
     9     7     9    1
    10     6    11    1
    11    10     9    1
