@<TRIPOS>MOLECULE
1qk2_MGL_A_1.pdb
 13 13 0 0 0
SMALL
GASTEIGER

@<TRIPOS>ATOM
      1  C1        32.7230   42.3360   30.4540 C.3   901  MGL901      0.2695
      2  C2        32.1360   42.5700   31.8360 C.3   901  MGL901      0.2406
      3  C3        31.9400   41.2270   32.5290 C.3   901  MGL901      0.2198
      4  C4        31.1470   40.2380   31.6400 C.3   901  MGL901      0.2144
      5  C5        31.6220   40.2440   30.1700 C.3   901  MGL901      0.1835
      6  C6        30.6160   39.5350   29.2750 C.3   901  MGL901      0.2142
      7  C7        34.4120   43.6210   29.3680 C.3   901  MGL901      0.1769
      8  O1        33.0570   43.5690   29.8230 O.3   901  MGL901     -0.3259
      9  O2        32.9830   43.3950   32.6090 O.3   901  MGL901     -0.2149
     10  O3        31.2630   41.4240   33.7510 O.3   901  MGL901     -0.2174
     11  O4        31.3510   38.9160   32.1470 O.3   901  MGL901     -0.2176
     12  O5        31.7790   41.5880   29.6970 O.3   901  MGL901     -0.3256
     13  O6        31.2900   38.8740   28.2250 O.3   901  MGL901     -0.2176
@<TRIPOS>BOND
     1    13     6    1
     2     6     5    1
     3     7     8    1
     4    12     5    1
     5    12     1    1
     6     8     1    1
     7     5     4    1
     8     1     2    1
     9     4    11    1
    10     4     3    1
    11     2     3    1
    12     2     9    1
    13     3    10    1
