@<TRIPOS>MOLECULE
1qk3_5GP_A_1.pdb
 24 26 0 0 0
SMALL
GASTEIGER

@<TRIPOS>ATOM
      1  P         60.5190  108.3350  114.3770 P.3   300  5GP300      0.5327
      2  O1P       59.0930  108.5740  114.6540 O.3   300  5GP300     -0.1145
      3  O2P       60.8490  108.3850  112.8960 O.2   300  5GP300     -0.2224
      4  O3P       61.4530  109.2730  115.2070 O.3   300  5GP300     -0.1145
      5  O5'       60.9550  106.8580  114.8660 O.3   300  5GP300     -0.2675
      6  C5'       61.5070  106.6510  116.1800 C.3   300  5GP300      0.1859
      7  C4'       61.8940  105.2010  116.4460 C.3   300  5GP300      0.1801
      8  O4'       60.6160  104.4950  116.6290 O.3   300  5GP300     -0.3326
      9  C3'       62.5890  104.3960  115.3670 C.3   300  5GP300      0.2158
     10  O3'       63.9940  104.5490  115.3850 O.3   300  5GP300     -0.2175
     11  C2'       62.2710  102.9660  115.7810 C.3   300  5GP300      0.2310
     12  O2'       63.1130  102.5420  116.8670 O.3   300  5GP300     -0.2158
     13  C1'       60.8240  103.1110  116.2570 C.3   300  5GP300      0.2293
     14  N9        59.7550  102.7170  115.3190 N.pl3 300  5GP300     -0.2354
     15  C8        58.9860  103.4930  114.4960 C.3   300  5GP300      0.2246
     16  N7        58.0820  102.8470  113.8100 N.2   300  5GP300     -0.2322
     17  C5        58.2410  101.5220  114.2800 C.2   300  5GP300      0.2182
     18  C6        57.4920  100.3820  113.9100 C.1   300  5GP300      0.2372
     19  O6        56.5620  100.3110  113.1170 O.2   300  5GP300     -0.2069
     20  N1        57.9230   99.2500  114.6210 N.2   300  5GP300     -0.2485
     21  C2        58.9540   99.2570  115.5350 C.1   300  5GP300      0.2531
     22  N2        59.1760   98.0480  116.0990 N.pl3 300  5GP300     -0.0226
     23  N3        59.6720  100.3310  115.8870 N.2   300  5GP300     -0.3074
     24  C4        59.2490  101.4350  115.2060 C.2   300  5GP300      0.2300
@<TRIPOS>BOND
     1     3     1    2
     2    19    18    2
     3    16    17    2
     4    16    15    1
     5    18    17    1
     6    18    20    2
     7    17    24    1
     8     1     2    1
     9     1     5    1
    10     1     4    1
    11    15    14    1
    12    20    21    2
    13     5     6    1
    14    24    14    1
    15    24    23    2
    16    14    13    1
    17     9    10    1
    18     9    11    1
    19     9     7    1
    20    21    23    2
    21    21    22    1
    22    11    13    1
    23    11    12    1
    24     6     7    1
    25    13     8    1
    26     7     8    1
