@<TRIPOS>MOLECULE
1qk4_IMP_A_1.pdb
 23 25 0 0 0
SMALL
GASTEIGER

@<TRIPOS>ATOM
      1  P         30.5970    4.8380    8.5200 P.3   300  IMP300      0.5327
      2  O1P       31.6600    5.2520    7.5520 O.2   300  IMP300     -0.2224
      3  O2P       30.3900    3.3610    8.4050 O.3   300  IMP300     -0.1145
      4  O3P       30.9030    5.2830    9.9690 O.3   300  IMP300     -0.1145
      5  O5'       29.1890    5.5410    8.2060 O.3   300  IMP300     -0.2675
      6  C5'       28.8100    6.5940    9.1010 C.3   300  IMP300      0.1860
      7  C4'       27.4870    7.2540    8.7950 C.3   300  IMP300      0.1823
      8  O4'       27.7650    7.9630    7.5420 O.3   300  IMP300     -0.3135
      9  C3'       26.2470    6.4230    8.4930 C.3   300  IMP300      0.2184
     10  O3'       25.4970    6.1000    9.6560 O.3   300  IMP300     -0.2174
     11  C2'       25.4210    7.3240    7.6090 C.3   300  IMP300      0.2570
     12  O2'       24.5140    8.1210    8.3380 O.3   300  IMP300     -0.2130
     13  C1'       26.5070    8.1630    6.9000 C.3   300  IMP300      0.3186
     14  N9        26.6910    7.6500    5.5170 N.pl3 300  IMP300     -0.1435
     15  C8        27.6020    6.7690    4.9950 C.3   300  IMP300      0.3382
     16  N7        27.4270    6.5730    3.7220 N.2   300  IMP300     -0.2054
     17  C5        26.3640    7.3620    3.3670 C.2   300  IMP300      0.2446
     18  C6        25.7050    7.5340    2.1180 C.1   300  IMP300      0.1792
     19  O6        25.9980    7.0220    1.0390 O.2   300  IMP300     -0.2203
     20  N1        24.5780    8.3890    2.1990 N.2   300  IMP300     -0.1458
     21  C2        24.1900    9.0100    3.3740 C.3   300  IMP300      0.4017
     22  N3        24.8050    8.8160    4.5500 N.2   300  IMP300     -0.0334
     23  C4        25.8620    8.0070    4.4740 C.2   300  IMP300      0.3528
@<TRIPOS>BOND
     1    19    18    2
     2    18    20    2
     3    18    17    1
     4    20    21    1
     5    17    16    2
     6    17    23    1
     7    21    22    1
     8    16    15    1
     9    23    22    2
    10    23    14    1
    11    15    14    1
    12    14    13    1
    13    13     8    1
    14    13    11    1
    15     8     7    1
    16     2     1    2
    17    11    12    1
    18    11     9    1
    19     5     1    1
    20     5     6    1
    21     3     1    1
    22     9     7    1
    23     9    10    1
    24     1     4    1
    25     7     6    1
