@<TRIPOS>MOLECULE
1qk5_XMP_A_1.pdb
 24 26 0 0 0
SMALL
GASTEIGER

@<TRIPOS>ATOM
      1  P         21.1510    6.4820   60.5390 P.3   300  XMP300      0.5327
      2  O1P       21.8990    5.2200   60.7670 O.3   300  XMP300     -0.1145
      3  O2P       20.0490    6.3930   59.5230 O.2   300  XMP300     -0.2224
      4  O5'       22.1180    7.5170   59.8670 O.3   300  XMP300     -0.2675
      5  O3P       20.6910    7.0940   61.8050 O.3   300  XMP300     -0.1145
      6  C5'       23.4910    7.3200   59.6190 C.3   300  XMP300      0.1859
      7  C4'       24.1250    8.5010   60.3460 C.3   300  XMP300      0.1801
      8  O4'       25.5130    8.5140   59.9980 O.3   300  XMP300     -0.3326
      9  C1'       25.6120    9.1790   58.7630 C.3   300  XMP300      0.2293
     10  N9        26.0050    8.1270   57.8410 N.pl3 300  XMP300     -0.2353
     11  C4        27.0410    8.2890   56.9560 C.2   300  XMP300      0.2316
     12  N3        27.8510    9.3450   56.8880 N.2   300  XMP300     -0.2901
     13  N1        28.9190    8.0560   55.2460 N.2   300  XMP300     -0.2311
     14  C2        28.8150    9.2260   55.9670 C.1   300  XMP300      0.3668
     15  O2        29.6160   10.1330   55.7200 O.2   300  XMP300     -0.1744
     16  C6        28.1010    6.9530   55.3320 C.1   300  XMP300      0.2388
     17  O6        28.2500    5.9620   54.6700 O.2   300  XMP300     -0.2068
     18  C5        27.0810    7.0980   56.2940 C.2   300  XMP300      0.2183
     19  N7        26.0840    6.2420   56.7100 N.2   300  XMP300     -0.2322
     20  C8        25.4450    6.9160   57.6450 C.3   300  XMP300      0.2246
     21  C2'       24.2570    9.7940   58.4300 C.3   300  XMP300      0.2310
     22  O2'       24.5480   11.0380   57.8370 O.3   300  XMP300     -0.2158
     23  C3'       23.6730    9.8570   59.8090 C.3   300  XMP300      0.2158
     24  O3'       24.1250   10.9770   60.6460 O.3   300  XMP300     -0.2175
@<TRIPOS>BOND
     1    17    16    2
     2    13    16    2
     3    13    14    2
     4    16    18    1
     5    15    14    2
     6    14    12    2
     7    18    19    2
     8    18    11    1
     9    19    20    1
    10    12    11    2
    11    11    10    1
    12    20    10    1
    13    22    21    1
    14    10     9    1
    15    21     9    1
    16    21    23    1
    17     9     8    1
    18     3     1    2
    19     6     4    1
    20     6     7    1
    21    23     7    1
    22    23    24    1
    23     4     1    1
    24     8     7    1
    25     1     2    1
    26     1     5    1
