@<TRIPOS>MOLECULE
1qka_III_B_1.pdb
 30 29 0 0 0
SMALL
GASTEIGER

@<TRIPOS>ATOM
      1  N          6.8330   16.6540   15.2600 N.3     1  LYS1       -0.1231
      2  CA         6.4060   17.9620   14.6680 C.3     1  LYS1        0.1693
      3  C          5.1830   18.4930   15.4130 C.2     1  LYS1        0.2592
      4  O          4.4460   17.6900   16.0100 O.2     1  LYS1       -0.2718
      5  CB         6.0750   17.8590   13.1660 C.3     1  LYS1        0.0285
      6  CG         5.2490   16.6220   12.7870 C.3     1  LYS1        0.0035
      7  CD         5.2030   16.5520   11.2420 C.3     1  LYS1        0.0206
      8  CE         6.4910   15.8840   10.7430 C.3     1  LYS1        0.1093
      9  NZ         6.4390   14.4200   11.0120 N.3     1  LYS1       -0.1314
     10  N          5.0260   19.8010   15.4630 N.am    2  ARG2       -0.1966
     11  CA         3.9390   20.4660   16.1150 C.3     2  ARG2        0.1729
     12  C          2.5920   20.2950   15.3940 C.2     2  ARG2        0.2617
     13  O          2.5030   20.5640   14.1820 O.2     2  ARG2       -0.2715
     14  CB         4.1160   22.0070   16.1970 C.3     2  ARG2        0.0348
     15  CG         5.3820   22.4170   16.9860 C.3     2  ARG2        0.0492
     16  CD         5.2560   22.2330   18.5070 C.3     2  ARG2        0.2205
     17  NE         6.5810   22.4550   19.0930 N.pl3   2  ARG2       -0.0865
     18  CZ         7.1360   21.9310   20.1800 C.cat   2  ARG2        0.5346
     19  NH1        6.4640   21.0970   20.9560 N.pl3   2  ARG2        0.1354
     20  NH2        8.4120   22.2230   20.4850 N.pl3   2  ARG2        0.1354
     21  N          1.5850   20.0240   16.2150 N.am    3  LYS3       -0.1942
     22  CA         0.2130   19.9480   15.7330 C.3     3  LYS3        0.1978
     23  C         -0.7760   20.5460   16.7500 C.2     3  LYS3        0.3842
     24  O         -1.9930   20.3050   16.6110 O.co2   3  LYS3       -0.2437
     25  CB        -0.2890   18.5670   15.3350 C.3     3  LYS3        0.0333
     26  CG        -1.3710   18.7780   14.2310 C.3     3  LYS3        0.0039
     27  CD        -1.9800   17.4510   13.8700 C.3     3  LYS3        0.0206
     28  CE        -3.0850   17.4940   12.8500 C.3     3  LYS3        0.1093
     29  NZ        -3.9270   18.7030   12.7750 N.3     3  LYS3       -0.1314
     30  OXT       -0.4090   21.3940   17.5910 O.co2   3  LYS3       -0.2437
@<TRIPOS>BOND
     1     8     9    1
     2     8     7    1
     3     7     6    1
     4    29    28    1
     5     6     5    1
     6    28    27    1
     7     5     2    1
     8    27    26    1
     9    13    12    2
    10    26    25    1
    11     2     1    1
    12     2     3    1
    13    25    22    1
    14    12    11    1
    15    12    21   am
    16     3    10   am
    17     3     4    2
    18    10    11    1
    19    22    21    1
    20    22    23    1
    21    11    14    1
    22    14    15    1
    23    24    23   ar
    24    23    30   ar
    25    15    16    1
    26    16    17    1
    27    17    18    2
    28    18    20    1
    29    18    19    1
