@<TRIPOS>MOLECULE
1qkb_III_B_1.pdb
 26 25 0 0 0
SMALL
GASTEIGER

@<TRIPOS>ATOM
      1  N          6.9540   16.5470   15.1220 N.3     1  LYS1       -0.1231
      2  CA         6.4560   17.8430   14.5550 C.3     1  LYS1        0.1693
      3  C          5.2380   18.3380   15.3310 C.2     1  LYS1        0.2592
      4  O          4.4820   17.5120   15.8490 O.2     1  LYS1       -0.2718
      5  CB         6.1980   17.7410   13.0490 C.3     1  LYS1        0.0285
      6  CG         5.2540   16.6210   12.6200 C.3     1  LYS1        0.0035
      7  CD         5.1780   16.5400   11.0930 C.3     1  LYS1        0.0206
      8  CE         6.4350   15.8900   10.4940 C.3     1  LYS1        0.1093
      9  NZ         6.5840   14.4590   10.9350 N.3     1  LYS1       -0.1314
     10  N          5.0710   19.6460   15.4290 N.am    2  VAL2       -0.1966
     11  CA         3.9410   20.2190   16.1820 C.3     2  VAL2        0.1727
     12  C          2.6510   20.1800   15.3760 C.2     2  VAL2        0.2617
     13  O          2.6630   20.4870   14.1830 O.2     2  VAL2       -0.2715
     14  CB         4.2440   21.6680   16.5990 C.3     2  VAL2        0.0290
     15  CG1        5.4140   21.6780   17.6030 C.3     2  VAL2        0.0023
     16  CG2        4.5080   22.6200   15.4620 C.3     2  VAL2        0.0023
     17  N          1.5590   19.8180   16.0730 N.am    3  LYS3       -0.1942
     18  CA         0.2770   19.7990   15.3790 C.3     3  LYS3        0.1978
     19  C         -0.7350   20.6380   16.1740 C.2     3  LYS3        0.3842
     20  O         -1.6780   21.1460   15.5200 O.co2   3  LYS3       -0.2437
     21  CB        -0.2820   18.3680   15.2540 C.3     3  LYS3        0.0333
     22  CG        -1.4010   18.4250   14.1870 C.3     3  LYS3        0.0039
     23  CD        -2.1110   17.0860   14.1500 C.3     3  LYS3        0.0206
     24  CE        -3.4420   17.2520   13.4300 C.3     3  LYS3        0.1093
     25  NZ        -3.1130   17.0310   11.9760 N.3     3  LYS3       -0.1314
     26  OXT       -0.5830   20.7290   17.4140 O.co2   3  LYS3       -0.2437
@<TRIPOS>BOND
     1     8     9    1
     2     8     7    1
     3     7     6    1
     4    25    24    1
     5     6     5    1
     6     5     2    1
     7    24    23    1
     8    23    22    1
     9    13    12    2
    10    22    21    1
    11     2     1    1
    12     2     3    1
    13    21    18    1
    14     3    10   am
    15     3     4    2
    16    12    17   am
    17    12    11    1
    18    18    17    1
    19    18    19    1
    20    10    11    1
    21    16    14    1
    22    20    19   ar
    23    19    26   ar
    24    11    14    1
    25    14    15    1
