@<TRIPOS>MOLECULE
1qkc_GMH_A_1.pdb
 13 13 0 0 0
SMALL
GASTEIGER

@<TRIPOS>ATOM
      1  C1        61.1090   61.6990   52.3390 C.3   1012  GMH1012     0.1777
      2  C2        61.0200   61.9060   50.7880 C.3   1012  GMH1012     0.2141
      3  C3        61.5360   60.6540   50.0290 C.3   1012  GMH1012     0.2173
      4  C4        62.9280   60.2320   50.5320 C.3   1012  GMH1012     0.2142
      5  C5        62.8440   59.9950   52.0540 C.3   1012  GMH1012     0.1810
      6  C6        64.1480   59.4660   52.6390 C.3   1012  GMH1012     0.2142
      7  C7        64.2270   57.9230   52.5210 C.3   1012  GMH1012     0.2174
      8  O2        61.7850   63.0430   50.4130 O.3   1012  GMH1012    -0.2176
      9  O3        61.5990   60.9160   48.6410 O.3   1012  GMH1012    -0.2175
     10  O4        63.3410   59.0420   49.8680 O.3   1012  GMH1012    -0.2176
     11  O5        62.4390   61.2380   52.7190 O.3   1012  GMH1012    -0.3481
     12  O6        65.2230   60.0900   51.9590 O.3   1012  GMH1012    -0.2176
     13  O7        65.4530   57.4550   53.0700 O.3   1012  GMH1012    -0.2175
@<TRIPOS>BOND
     1     9     3    1
     2    10     4    1
     3     3     4    1
     4     3     2    1
     5     8     2    1
     6     4     5    1
     7     2     1    1
     8    12     6    1
     9     5     6    1
    10     5    11    1
    11     1    11    1
    12     7     6    1
    13     7    13    1
