@<TRIPOS>MOLECULE
1qki_NAP_A_1.pdb
 48 52 0 0 0
SMALL
GASTEIGER

@<TRIPOS>ATOM
      1  PA        26.0550   64.2910  104.3680 P.3   800  NAP800      0.2189
      2  O1A       24.9660   63.4440  104.9170 O.2   800  NAP800     -0.5170
      3  O2A       27.3150   64.1560  105.1430 O.3   800  NAP800     -0.4371
      4  O5B       25.5770   65.7830  104.6980 O.3   800  NAP800     -0.3112
      5  C5B       26.0270   66.9190  103.9630 C.3   800  NAP800      0.1813
      6  C4B       25.7840   68.1720  104.7870 C.3   800  NAP800      0.1820
      7  O4B       25.0080   67.7670  105.9320 O.3   800  NAP800     -0.3136
      8  C3B       27.1010   68.6690  105.3560 C.3   800  NAP800      0.2157
      9  O3B       27.3710   70.0540  105.1370 O.3   800  NAP800     -0.2175
     10  C2B       26.9400   68.3120  106.8120 C.3   800  NAP800      0.2314
     11  O2B       27.7270   69.1860  107.6070 O.3   800  NAP800     -0.2630
     12  C1B       25.4830   68.5710  106.9670 C.3   800  NAP800      0.3158
     13  N9A       25.0390   68.0950  108.2820 N.pl3 800  NAP800     -0.1439
     14  C8A       25.4930   67.0250  109.0210 C.3   800  NAP800      0.3377
     15  N7A       24.7960   66.8120  110.1180 N.2   800  NAP800     -0.2095
     16  C5A       23.8780   67.8270  110.1230 C.2   800  NAP800      0.2526
     17  C6A       22.8960   68.1210  111.0360 C.2   800  NAP800      0.4393
     18  N6A       22.5690   67.3070  112.0850 N.pl3 800  NAP800      0.2180
     19  N1A       22.2070   69.2750  110.8500 N.2   800  NAP800      0.0021
     20  C2A       22.4410   70.0110  109.7710 C.3   800  NAP800      0.5254
     21  N3A       23.2880   69.7720  108.7910 N.2   800  NAP800     -0.0055
     22  C4A       24.0020   68.6560  109.0430 C.2   800  NAP800      0.3518
     23  O3        26.2340   64.0160  102.8310 O.3   800  NAP800     -0.2703
     24  PN        27.5440   64.0180  101.9970 P.3   800  NAP800      0.2189
     25  O1N       28.5070   65.0290  102.4740 O.3   800  NAP800     -0.4371
     26  O2N       27.3210   64.1810  100.5400 O.2   800  NAP800     -0.5170
     27  O5D       28.2750   62.5990  102.0960 O.3   800  NAP800     -0.3112
     28  C5D       28.5890   61.9000  103.3140 C.3   800  NAP800      0.1813
     29  C4D       29.9600   61.2450  103.1740 C.3   800  NAP800      0.1799
     30  O4D       29.9900   60.6970  101.8300 O.3   800  NAP800     -0.3327
     31  C3D       31.0270   62.3210  103.1900 C.3   800  NAP800      0.2158
     32  O3D       32.1880   61.9530  103.9220 O.3   800  NAP800     -0.2175
     33  C2D       31.2730   62.5290  101.7210 C.3   800  NAP800      0.2309
     34  O2D       32.5010   63.2160  101.5030 O.3   800  NAP800     -0.2158
     35  C1D       31.2260   61.0750  101.2650 C.3   800  NAP800      0.2263
     36  N1N       31.1320   61.0220   99.7960 N.pl3 800  NAP800     -0.2787
     37  C2N       32.2120   61.0660   99.0520 C.3   800  NAP800      0.1244
     38  C3N       32.1410   61.2340   97.7020 C.2   800  NAP800      0.0544
     39  C7N       33.2550   61.3090   96.7170 C.2   800  NAP800      0.2818
     40  O7N       34.2020   60.5510   96.8930 O.2   800  NAP800     -0.2670
     41  N7N       33.0430   62.1030   95.6460 N.am  800  NAP800     -0.0839
     42  C4N       30.8990   61.3350   97.1250 C.2   800  NAP800      0.0033
     43  C5N       29.7730   61.2170   97.8890 C.2   800  NAP800      0.0157
     44  C6N       29.9410   61.0360   99.2170 C.2   800  NAP800      0.0633
     45  P2B       29.2790   68.9310  107.6870 P.3   800  NAP800      0.5328
     46  O1X       29.8080   69.4320  106.4040 O.2   800  NAP800     -0.2224
     47  O2X       29.4150   67.4710  107.8820 O.3   800  NAP800     -0.1145
     48  O3X       29.7140   69.7460  108.8330 O.3   800  NAP800     -0.1145
@<TRIPOS>BOND
     1    41    39   am
     2    39    40    2
     3    39    38    1
     4    42    38    2
     5    42    43    1
     6    38    37    1
     7    43    44    2
     8    37    36    1
     9    44    36    1
    10    36    35    1
    11    26    24    2
    12    35    33    1
    13    35    30    1
    14    34    33    1
    15    33    31    1
    16    30    29    1
    17    24    27    1
    18    24    25    1
    19    24    23    1
    20    27    28    1
    21    23     1    1
    22    29    31    1
    23    29    28    1
    24    31    32    1
    25     5     4    1
    26     5     6    1
    27     1     4    1
    28     1     2    2
    29     1     3    1
    30     6     8    1
    31     6     7    1
    32     9     8    1
    33     8    10    1
    34     7    12    1
    35    46    45    2
    36    10    12    1
    37    10    11    1
    38    12    13    1
    39    11    45    1
    40    45    47    1
    41    45    48    1
    42    13    14    1
    43    13    22    1
    44    21    22    2
    45    21    20    1
    46    14    15    1
    47    22    16    1
    48    20    19    1
    49    15    16    2
    50    16    17    1
    51    19    17    2
    52    17    18    1
