@<TRIPOS>MOLECULE
1qkj_UDP_A_1.pdb
 25 26 0 0 0
SMALL
GASTEIGER

@<TRIPOS>ATOM
      1  N1        33.8720   22.3980   20.4020 N.am  353  UDP353     -0.1766
      2  C2        35.1800   22.8160   20.2280 C.1   353  UDP353      0.2845
      3  N3        35.3600   24.1640   19.9880 N.2   353  UDP353     -0.2452
      4  C4        34.3670   25.1040   19.9070 C.1   353  UDP353      0.2182
      5  C5        33.0340   24.5660   20.1150 C.2   353  UDP353      0.1242
      6  C6        32.8310   23.2660   20.3530 C.2   353  UDP353      0.0929
      7  O2        36.1270   22.0490   20.2650 O.2   353  UDP353     -0.1918
      8  O4        34.6410   26.2790   19.6510 O.2   353  UDP353     -0.2085
      9  C1'       33.6380   20.9730   20.5170 C.3   353  UDP353      0.2401
     10  C2'       33.5760   20.5670   21.9640 C.3   353  UDP353      0.2319
     11  O2'       34.3740   19.3940   22.1210 O.3   353  UDP353     -0.2157
     12  C3'       32.1140   20.2780   22.1990 C.3   353  UDP353      0.2158
     13  C4'       31.6670   19.8160   20.8590 C.3   353  UDP353      0.1799
     14  O4'       32.3730   20.6370   19.9260 O.3   353  UDP353     -0.3320
     15  O3'       31.9020   19.2600   23.1560 O.3   353  UDP353     -0.2175
     16  C5'       30.1780   19.9470   20.7010 C.3   353  UDP353      0.1813
     17  O5'       29.7850   19.5060   19.4240 O.3   353  UDP353     -0.3111
     18  PA        28.2440   19.5970   18.9590 P.3   353  UDP353      0.2231
     19  O1A       27.9500   20.9840   18.5060 O.3   353  UDP353     -0.4370
     20  O2A       28.0310   18.4820   18.0260 O.2   353  UDP353     -0.5169
     21  O3A       27.4260   19.3760   20.2860 O.3   353  UDP353     -0.2261
     22  PB        26.9300   18.0530   20.9590 P.3   353  UDP353      0.5373
     23  O1B       25.9380   17.5370   20.0130 O.2   353  UDP353     -0.2221
     24  O2B       26.3740   18.5140   22.2660 O.3   353  UDP353     -0.1143
     25  O3B       28.1490   17.2060   21.0910 O.3   353  UDP353     -0.1143
@<TRIPOS>BOND
     1    20    18    2
     2    19    18    1
     3    18    17    1
     4    18    21    1
     5    17    16    1
     6     8     4    2
     7     4     3    2
     8     4     5    1
     9    14     9    1
    10    14    13    1
    11     3     2    2
    12    23    22    2
    13     5     6    2
    14     2     7    2
    15     2     1   am
    16    21    22    1
    17     6     1    1
    18     1     9    1
    19     9    10    1
    20    16    13    1
    21    13    12    1
    22    22    25    1
    23    22    24    1
    24    10    11    1
    25    10    12    1
    26    12    15    1
