@<TRIPOS>MOLECULE
1qkm_GEN_A_1.pdb
 20 22 0 0 0
SMALL
GASTEIGER

@<TRIPOS>ATOM
      1  C1        19.0240    6.9420  114.6830 C.ar  600  GEN600      0.0798
      2  C2        18.7150    7.2530  116.0120 C.ar  600  GEN600      0.2020
      3  O2        17.4740    6.8840  116.5100 O.3   600  GEN600     -0.2864
      4  C3        19.5540    7.9330  116.8530 C.ar  600  GEN600      0.0843
      5  C4        20.8110    8.3040  116.3680 C.ar  600  GEN600      0.2049
      6  O4        21.7120    9.0070  117.1070 O.3   600  GEN600     -0.2862
      7  C5        21.1690    8.0260  115.0360 C.ar  600  GEN600      0.1126
      8  C6        22.4650    8.4860  114.4820 C.ar  600  GEN600      0.2047
      9  O6        23.3280    9.0930  115.0980 O.2   600  GEN600     -0.2862
     10  C7        22.7310    8.1260  113.0680 C.ar  600  GEN600      0.0767
     11  C8        21.7980    7.4240  112.3740 C.ar  600  GEN600      0.1826
     12  O9        20.6000    7.0510  112.9140 O.2   600  GEN600     -0.4500
     13  C10       20.2900    7.3550  114.2140 C.ar  600  GEN600      0.1548
     14  C11       23.9720    8.4110  112.2590 C.ar  600  GEN600      0.0064
     15  C12       25.2480    8.3780  112.8180 C.ar  600  GEN600      0.0035
     16  C13       26.3820    8.6240  112.0620 C.ar  600  GEN600      0.0420
     17  C14       26.2570    8.9000  110.7170 C.ar  600  GEN600      0.1957
     18  O14       27.4010    9.1220  109.9700 O.3   600  GEN600     -0.2866
     19  C15       24.9990    8.9640  110.1140 C.ar  600  GEN600      0.0420
     20  C16       23.8410    8.7110  110.8910 C.ar  600  GEN600      0.0035
@<TRIPOS>BOND
     1    18    17    1
     2    19    17   ar
     3    19    20   ar
     4    17    16   ar
     5    20    14   ar
     6    16    15   ar
     7    14    15   ar
     8    14    10    1
     9    11    12   ar
    10    11    10   ar
    11    12    13   ar
    12    10     8   ar
    13    13     1   ar
    14    13     7   ar
    15     8     7   ar
    16     8     9    2
    17     1     2   ar
    18     7     5   ar
    19     2     3    1
    20     2     4   ar
    21     5     4   ar
    22     5     6    1
