@<TRIPOS>MOLECULE
1qkn_RAL_A_1.pdb
 34 38 0 0 0
SMALL
GASTEIGER

@<TRIPOS>ATOM
      1  C1        16.9310   29.5250    8.7290 C.ar  600  RAL600      0.0039
      2  C2        15.8390   30.1280    8.1030 C.ar  600  RAL600      0.0421
      3  C3        15.1550   31.1320    8.7770 C.ar  600  RAL600      0.1962
      4  O3        14.0660   31.7180    8.1660 O.3   600  RAL600     -0.2866
      5  C4        15.5780   31.5290   10.0650 C.ar  600  RAL600      0.0485
      6  C5        16.6460   30.9470   10.6570 C.ar  600  RAL600      0.0327
      7  S6        17.3610   31.2370   12.1470 S.2   600  RAL600     -0.0867
      8  C7        18.5990   30.1110   12.0670 C.ar  600  RAL600      0.0325
      9  C8        19.6040   29.8810   13.1400 C.ar  600  RAL600      0.0063
     10  C9        19.2300   29.5540   14.4130 C.ar  600  RAL600      0.0038
     11  C10       20.1620   29.3210   15.4300 C.ar  600  RAL600      0.0420
     12  C11       21.5120   29.4270   15.1430 C.ar  600  RAL600      0.1957
     13  O11       22.4470   29.2040   16.1390 O.3   600  RAL600     -0.2866
     14  C12       21.9140   29.7600   13.8570 C.ar  600  RAL600      0.0420
     15  C13       20.9610   29.9850   12.8660 C.ar  600  RAL600      0.0038
     16  C14       17.3510   29.9080    9.9890 C.ar  600  RAL600      0.0098
     17  C15       18.4770   29.4450   10.8130 C.ar  600  RAL600      0.0454
     18  C16       19.3470   28.4220   10.4480 C.2   600  RAL600      0.1960
     19  O16       19.2450   27.3330   11.0420 O.2   600  RAL600     -0.2866
     20  C17       20.3630   28.5880    9.4140 C.ar  600  RAL600      0.0392
     21  C18       21.1230   27.5080    8.9700 C.ar  600  RAL600      0.0063
     22  C19       22.1230   27.6120    7.9710 C.ar  600  RAL600      0.0370
     23  C20       22.3250   28.8770    7.4450 C.ar  600  RAL600      0.1386
     24  C21       21.5720   29.9490    7.8960 C.ar  600  RAL600      0.0370
     25  C22       20.6060   29.8300    8.8500 C.ar  600  RAL600      0.0063
     26  O23       23.2300   29.2790    6.4660 O.3   600  RAL600     -0.4740
     27  C24       23.4640   28.3530    5.4320 C.3   600  RAL600      0.2226
     28  C25       24.7760   28.7900    4.7940 C.3   600  RAL600      0.1200
     29  N26       24.7430   29.7120    3.6430 N.3   600  RAL600     -0.2696
     30  C27       26.0710   29.5940    2.9850 C.3   600  RAL600      0.0722
     31  C28       26.1790   30.4500    1.7240 C.3   600  RAL600      0.0174
     32  C29       25.9590   31.9320    2.0940 C.3   600  RAL600      0.0029
     33  C30       24.6040   32.0420    2.7970 C.3   600  RAL600      0.0174
     34  C31       24.5390   31.1170    4.0200 C.3   600  RAL600      0.0722
@<TRIPOS>BOND
     1    31    32    1
     2    31    30    1
     3    32    33    1
     4    33    34    1
     5    30    29    1
     6    29    34    1
     7    29    28    1
     8    28    27    1
     9    27    26    1
    10    26    23    1
    11    23    24   ar
    12    23    22   ar
    13    24    25   ar
    14    22    21   ar
    15     2     1   ar
    16     2     3   ar
    17     4     3    1
    18     1    16   ar
    19     3     5   ar
    20    25    20   ar
    21    21    20   ar
    22    20    18    1
    23    16     6   ar
    24    16    17   ar
    25     5     6   ar
    26    18    17    1
    27    18    19    2
    28     6     7   ar
    29    17     8   ar
    30     8     7   ar
    31     8     9    1
    32    15     9   ar
    33    15    14   ar
    34     9    10   ar
    35    14    12   ar
    36    10    11   ar
    37    12    11   ar
    38    12    13    1
