@<TRIPOS>MOLECULE
1qko_RET_A_1.pdb
 20 20 0 0 0
SMALL
GASTEIGER

@<TRIPOS>ATOM
      1  C1        14.7960   45.2810   -0.3780 C.3   300  RET300      0.0183
      2  C2        14.4040   46.3000   -1.5590 C.3   300  RET300      0.0044
      3  C3        15.1100   47.6170   -1.5410 C.3   300  RET300      0.0047
      4  C4        14.8220   48.3410   -0.1910 C.3   300  RET300      0.0217
      5  C5        15.0890   47.4700    0.9960 C.2   300  RET300     -0.0479
      6  C6        15.1300   46.0750    0.9430 C.2   300  RET300     -0.0307
      7  C7        15.5320   45.2850    2.1560 C.2   300  RET300     -0.0052
      8  C8        15.7150   43.9000    2.3580 C.2   300  RET300     -0.0046
      9  C9        16.2250   43.2810    3.6100 C.2   300  RET300     -0.0219
     10  C10       16.3720   41.9800    3.5870 C.2   300  RET300     -0.0046
     11  C11       16.9160   41.2350    4.5970 C.2   300  RET300     -0.0046
     12  C12       16.9930   39.9540    4.5530 C.2   300  RET300     -0.0221
     13  C13       17.6010   39.1950    5.6640 C.3   300  RET300      0.0440
     14  C14       17.5670   37.8530    5.7030 C.2   300  RET300     -0.0221
     15  C15       17.0750   36.9240    4.9010 C.2   300  RET300     -0.0046
     16  C16       13.5270   44.3420   -0.1880 C.3   300  RET300      0.0043
     17  C17       16.0700   44.4770   -0.8350 C.3   300  RET300      0.0043
     18  C18       15.3370   48.3260    2.2140 C.3   300  RET300      0.0260
     19  C19       16.5850   44.1640    4.8060 C.3   300  RET300      0.0310
     20  C20       18.2440   39.8780    6.8000 C.3   300  RET300      0.0094
@<TRIPOS>BOND
     1     2     3    1
     2     2     1    1
     3     3     4    1
     4    17     1    1
     5     1    16    1
     6     1     6    1
     7     4     5    1
     8     6     5    2
     9     6     7    1
    10     5    18    1
    11     7     8    2
    12     8     9    1
    13    10     9    2
    14    10    11    1
    15     9    19    1
    16    12    11    2
    17    12    13    1
    18    15    14    2
    19    13    14    1
    20    13    20    1
