@<TRIPOS>MOLECULE
1qkp_RET_A_1.pdb
 20 20 0 0 0
SMALL
GASTEIGER

@<TRIPOS>ATOM
      1  C1        14.8820   45.3020   -0.3680 C.3   300  RET300      0.0183
      2  C2        14.4280   46.2630   -1.5090 C.3   300  RET300      0.0044
      3  C3        14.9670   47.6270   -1.4830 C.3   300  RET300      0.0047
      4  C4        14.7080   48.3190   -0.1050 C.3   300  RET300      0.0217
      5  C5        15.1590   47.4500    1.0560 C.2   300  RET300     -0.0479
      6  C6        15.2550   46.0670    0.9760 C.2   300  RET300     -0.0307
      7  C7        15.7270   45.3370    2.1910 C.2   300  RET300     -0.0052
      8  C8        15.9300   44.0260    2.4380 C.2   300  RET300     -0.0046
      9  C9        16.4420   43.4150    3.6590 C.2   300  RET300     -0.0219
     10  C10       16.5540   42.0600    3.6540 C.2   300  RET300     -0.0043
     11  C11       17.0350   41.1970    4.6870 C.2   300  RET300     -0.0007
     12  C12       17.0230   39.8610    4.5080 C.2   300  RET300     -0.0046
     13  C13       17.4200   38.8300    5.3940 C.2   300  RET300     -0.0261
     14  C14       17.1930   37.5730    4.8910 C.2   300  RET300     -0.0300
     15  C15       17.3880   36.3340    5.5020 C.3   300  RET300      0.0304
     16  C16       13.7130   44.3170   -0.1580 C.3   300  RET300      0.0043
     17  C17       16.0820   44.5300   -0.9810 C.3   300  RET300      0.0043
     18  C18       15.4840   48.2860    2.2810 C.3   300  RET300      0.0260
     19  C19       16.8180   44.2790    4.8370 C.3   300  RET300      0.0310
     20  C20       17.9680   39.1480    6.7720 C.3   300  RET300      0.0307
@<TRIPOS>BOND
     1     2     3    1
     2     2     1    1
     3     3     4    1
     4    17     1    1
     5     1    16    1
     6     1     6    1
     7     4     5    1
     8     6     5    2
     9     6     7    1
    10     5    18    1
    11     7     8    2
    12     8     9    1
    13    10     9    2
    14    10    11    1
    15     9    19    1
    16    12    11    2
    17    12    13    1
    18    14    13    2
    19    14    15    1
    20    13    20    1
