@<TRIPOS>MOLECULE
1qkq_MAN_A_1.pdb
 12 12 0 0 0
SMALL
GASTEIGER

@<TRIPOS>ATOM
      1  C1         3.1500   19.4270   74.6380 C.3   858  MAN858      0.3024
      2  C2         4.4640   18.6390   74.5610 C.3   858  MAN858      0.2434
      3  C3         5.4950   19.3960   73.7120 C.3   858  MAN858      0.2199
      4  C4         4.8060   20.3510   72.7350 C.3   858  MAN858      0.2144
      5  C5         3.9090   21.3690   73.4720 C.3   858  MAN858      0.1836
      6  C6         2.6870   21.7650   72.6570 C.3   858  MAN858      0.2142
      7  O1         2.4430   19.0690   75.7680 O.3   858  MAN858     -0.1869
      8  O2         4.2280   17.3600   73.9960 O.3   858  MAN858     -0.2148
      9  O3         6.2870   18.4680   72.9860 O.3   858  MAN858     -0.2174
     10  O4         5.7890   21.0470   71.9860 O.3   858  MAN858     -0.2176
     11  O5         3.4310   20.8250   74.7230 O.3   858  MAN858     -0.3236
     12  O6         1.5450   21.9620   73.4820 O.3   858  MAN858     -0.2176
@<TRIPOS>BOND
     1    10     4    1
     2     6     5    1
     3     6    12    1
     4     4     5    1
     5     4     3    1
     6     9     3    1
     7     5    11    1
     8     3     2    1
     9     8     2    1
    10     2     1    1
    11     1    11    1
    12     1     7    1
