@<TRIPOS>MOLECULE
1qks_HEC_A_1.pdb
 43 50 0 0 0
SMALL
GASTEIGER

@<TRIPOS>ATOM
      1 FE         28.8250   -1.4540   50.7400 Fe    601  HEC601      0.0000
      2  CHA       29.2370   -3.8870   53.0290 C.2   601  HEC601      0.0000
      3  CHB       30.9850    0.5280   52.3950 C.2   601  HEC601      0.0000
      4  CHC       28.7640    0.7050   48.1280 C.2   601  HEC601      0.0000
      5  CHD       26.4010   -3.3220   49.2270 C.2   601  HEC601      0.0000
      6  NA        29.8500   -1.6210   52.3840 N.2   601  HEC601      0.0000
      7  C1A       29.9400   -2.7150   53.2140 C.2   601  HEC601      0.0000
      8  C2A       30.8970   -2.4970   54.2820 C.2   601  HEC601      0.0000
      9  C3A       31.3580   -1.2460   54.1230 C.2   601  HEC601      0.0000
     10  C4A       30.6990   -0.6960   52.9460 C.2   601  HEC601      0.0000
     11  CMA       32.3910   -0.5630   55.0040 C.3   601  HEC601      0.0000
     12  CAA       31.2530   -3.4910   55.3860 C.3   601  HEC601      0.0000
     13  CBA       30.3420   -3.2820   56.5920 C.3   601  HEC601      0.0000
     14  CGA       30.5090   -4.3500   57.6700 C.2   601  HEC601      0.0000
     15  O1A       31.2940   -5.3030   57.4800 O.co2 601  HEC601      0.0000
     16  O2A       29.8330   -4.2360   58.7170 O.co2 601  HEC601      0.0000
     17  NB        29.6160    0.2850   50.3810 N.ar  601  HEC601      0.0000
     18  C1B       30.4890    1.0130   51.1940 C.ar  601  HEC601      0.0000
     19  C2B       30.9680    2.2210   50.5660 C.ar  601  HEC601      0.0000
     20  C3B       30.4060    2.2160   49.3060 C.ar  601  HEC601      0.0000
     21  C4B       29.5580    1.0330   49.2150 C.ar  601  HEC601      0.0000
     22  CMB       31.8660    3.2950   51.2100 C.3   601  HEC601      0.0000
     23  CAB       30.5980    3.3100   48.2530 C.3   601  HEC601      0.0000
     24  CBB       32.0500    3.4750   47.7990 C.3   601  HEC601      0.0000
     25  NC        27.8030   -1.3360   49.0510 N.2   601  HEC601      0.0000
     26  C1C       27.9110   -0.3800   48.0650 C.2   601  HEC601      0.0000
     27  C2C       26.9660   -0.6130   46.9850 C.2   601  HEC601      0.0000
     28  C3C       26.2440   -1.6800   47.3520 C.2   601  HEC601      0.0000
     29  C4C       26.7930   -2.1560   48.6050 C.2   601  HEC601      0.0000
     30  CMC       26.8520    0.2140   45.7030 C.3   601  HEC601      0.0000
     31  CAC       24.9470   -2.1440   46.7090 C.3   601  HEC601      0.0000
     32  CBC       25.0190   -2.6090   45.2650 C.3   601  HEC601      0.0000
     33  ND        28.0160   -3.2360   51.0290 N.ar  601  HEC601      0.0000
     34  C1D       27.0090   -3.8590   50.3290 C.ar  601  HEC601      0.0000
     35  C2D       26.7400   -5.2030   50.8240 C.ar  601  HEC601      0.0000
     36  C3D       27.5950   -5.3670   51.8690 C.ar  601  HEC601      0.0000
     37  C4D       28.3430   -4.1430   51.9990 C.ar  601  HEC601      0.0000
     38  CMD       25.7960   -6.2340   50.2030 C.3   601  HEC601      0.0000
     39  CAD       27.7750   -6.6020   52.7510 C.3   601  HEC601      0.0000
     40  CBD       26.8830   -6.6710   53.9780 C.3   601  HEC601      0.0000
     41  CGD       25.4200   -6.8200   53.6270 C.2   601  HEC601      0.0000
     42  O1D       24.6650   -5.8410   53.7640 O.co2 601  HEC601      0.0000
     43  O2D       25.0090   -7.9200   53.1850 O.co2 601  HEC601      0.0000
@<TRIPOS>BOND
     1    32    31    1
     2    30    27    1
     3    31    28    1
     4    27    28    2
     5    27    26    1
     6    28    29    1
     7    24    23    1
     8    26     4    2
     9    26    25    1
    10     4    21    1
    11    23    20    1
    12    29    25    2
    13    29     5    1
    14    25     1    1
    15    21    20   ar
    16    21    17   ar
    17     5    34    2
    18    20    19   ar
    19    38    35    1
    20    34    35   ar
    21    34    33   ar
    22    17     1    1
    23    17    18   ar
    24    19    18   ar
    25    19    22    1
    26     1    33    1
    27     1     6    1
    28    35    36   ar
    29    33    37   ar
    30    18     3    1
    31    36    37   ar
    32    36    39    1
    33    37     2    2
    34     6    10    1
    35     6     7    2
    36     3    10    2
    37    39    40    1
    38    10     9    1
    39     2     7    1
    40    43    41   ar
    41     7     8    1
    42    41    42   ar
    43    41    40    1
    44     9     8    2
    45     9    11    1
    46     8    12    1
    47    12    13    1
    48    13    14    1
    49    15    14   ar
    50    14    16   ar
