@<TRIPOS>MOLECULE
1qks_DHE_A_1.pdb
 49 56 0 0 0
SMALL
GASTEIGER

@<TRIPOS>ATOM
      1 FE         14.9510    3.5270   36.2950 Fe    602  DHE602      0.0000
      2  CHA       11.6120    2.9870   36.0770 C.2   602  DHE602      0.0000
      3  CHB       14.6710    3.9340   39.6480 C.2   602  DHE602      0.0000
      4  CHC       18.3130    3.7480   36.5190 C.2   602  DHE602      0.0000
      5  CHD       15.1780    3.5090   32.9000 C.2   602  DHE602      0.0000
      6  NA        13.4000    3.4550   37.6470 N.2   602  DHE602      0.0000
      7  C1A       12.0740    3.2570   37.3380 C.2   602  DHE602      0.0000
      8  C2A       11.3130    3.3750   38.5280 C.2   602  DHE602      0.0000
      9  C3A       12.1860    3.6210   39.5530 C.2   602  DHE602      0.0000
     10  C4A       13.4940    3.6840   38.9860 C.2   602  DHE602      0.0000
     11  CMA       11.8740    3.8030   41.0060 C.3   602  DHE602      0.0000
     12  CAA        9.8190    3.2580   38.6090 C.3   602  DHE602      0.0000
     13  CBA        9.1380    4.4440   38.1070 C.3   602  DHE602      0.0000
     14  CGA        7.6770    4.3900   38.0330 C.2   602  DHE602      0.0000
     15  O1A        7.1570    3.3380   37.6540 O.co2 602  DHE602      0.0000
     16  O2A        7.0120    5.4090   38.3560 O.co2 602  DHE602      0.0000
     17  NB        16.3060    3.7910   37.8310 N.pl3 602  DHE602      0.0000
     18  C1B       15.9360    3.9100   39.1330 C.2   602  DHE602      0.0000
     19  C2B       17.1330    4.0140   39.9740 C.2   602  DHE602      0.0000
     20  OMB       17.1660    4.2380   41.1570 O.2   602  DHE602      0.0000
     21  C3B       18.3230    3.7590   39.0760 C.2   602  DHE602      0.0000
     22  CGB       18.7910    2.2690   39.3800 C.3   602  DHE602      0.0000
     23  CAB       19.4780    4.6800   39.2890 C.3   602  DHE602      0.0000
     24  CBB       19.1930    6.1250   39.3820 C.2   602  DHE602      0.0000
     25  O1B       19.7650    6.7760   40.2840 O.co2 602  DHE602      0.0000
     26  O2B       18.4180    6.6420   38.5580 O.co2 602  DHE602      0.0000
     27  C4B       17.6570    3.7770   37.7180 C.2   602  DHE602      0.0000
     28  NC        16.4920    3.6400   34.9200 N.2   602  DHE602      0.0000
     29  C1C       17.8040    3.7120   35.2610 C.2   602  DHE602      0.0000
     30  C2C       18.6410    3.7660   34.0480 C.2   602  DHE602      0.0000
     31  OMC       19.8480    3.8730   34.0030 O.2   602  DHE602      0.0000
     32  C3C       17.7100    3.6440   32.8650 C.2   602  DHE602      0.0000
     33  CGC       18.0090    2.2110   32.1960 C.3   602  DHE602      0.0000
     34  CAC       17.8760    4.7210   31.8590 C.3   602  DHE602      0.0000
     35  CBC       17.5650    6.0920   32.3270 C.2   602  DHE602      0.0000
     36  O1C       16.9190    6.8580   31.5830 O.co2 602  DHE602      0.0000
     37  O2C       17.9690    6.4350   33.4470 O.co2 602  DHE602      0.0000
     38  C4C       16.3590    3.5960   33.5670 C.2   602  DHE602      0.0000
     39  ND        13.6170    3.2760   34.7470 N.ar  602  DHE602      0.0000
     40  C1D       13.9240    3.2790   33.4160 C.ar  602  DHE602      0.0000
     41  C2D       12.7380    3.0100   32.6750 C.ar  602  DHE602      0.0000
     42  C3D       11.7280    2.8080   33.5800 C.ar  602  DHE602      0.0000
     43  C4D       12.2740    3.0190   34.8780 C.ar  602  DHE602      0.0000
     44  CMD       12.6750    2.9720   31.1860 C.3   602  DHE602      0.0000
     45  CAD       10.3280    2.4320   33.3100 C.2   602  DHE602      0.0000
     46  CBD        9.8710    1.7550   32.3200 C.2   602  DHE602      0.0000
     47  CGD        8.4590    1.3460   32.1450 C.2   602  DHE602      0.0000
     48  O1D        8.1350    0.7460   31.1090 O.co2 602  DHE602      0.0000
     49  O2D        7.6380    1.6200   33.0510 O.co2 602  DHE602      0.0000
@<TRIPOS>BOND
     1    48    47   ar
     2    44    41    1
     3    36    35   ar
     4    34    35    1
     5    34    32    1
     6    47    46    1
     7    47    49   ar
     8    33    32    1
     9    46    45    2
    10    35    37   ar
    11    41    40   ar
    12    41    42   ar
    13    32    38    1
    14    32    30    2
    15     5    40    2
    16     5    38    1
    17    45    42    1
    18    40    39   ar
    19    38    28    2
    20    42    43   ar
    21    31    30    1
    22    30    29    1
    23    39    43   ar
    24    39     1    1
    25    43     2    2
    26    28    29    1
    27    28     1    1
    28    29     4    2
    29     2     7    1
    30     1     6    1
    31     1    17    1
    32     4    27    1
    33     7     6    2
    34     7     8    1
    35     6    10    1
    36    15    14   ar
    37    27    17    1
    38    27    21    2
    39    17    18    1
    40    14    13    1
    41    14    16   ar
    42    13    12    1
    43     8    12    1
    44     8     9    2
    45    26    24   ar
    46    10     9    1
    47    10     3    2
    48    21    23    1
    49    21    22    1
    50    21    19    1
    51    18     3    1
    52    18    19    2
    53    23    24    1
    54    24    25   ar
    55     9    11    1
    56    19    20    1
