@<TRIPOS>MOLECULE
1qkt_EST_A_1.pdb
 20 23 0 0 0
SMALL
GASTEIGER

@<TRIPOS>ATOM
      1  C1         0.8670   53.1380  165.0150 C.ar  600  EST600     -0.0013
      2  C2         2.2480   53.1920  164.7900 C.ar  600  EST600      0.0417
      3  C3         3.0360   52.0260  164.9340 C.ar  600  EST600      0.1954
      4  O3         4.3950   52.1060  164.7050 O.3   600  EST600     -0.2866
      5  C4         2.4410   50.7930  165.3090 C.ar  600  EST600      0.0375
      6  C5         1.0210   50.7210  165.5500 C.ar  600  EST600     -0.0230
      7  C6         0.3830   49.3850  165.9720 C.3   600  EST600      0.0261
      8  C7        -1.1480   49.4320  166.2430 C.3   600  EST600      0.0050
      9  C8        -1.8940   50.4480  165.3740 C.3   600  EST600      0.0044
     10  C9        -1.2990   51.8780  165.6350 C.3   600  EST600      0.0220
     11  C10        0.2190   51.9220  165.3920 C.ar  600  EST600     -0.0263
     12  C11       -2.0700   52.8890  164.7620 C.3   600  EST600      0.0044
     13  C12       -3.5920   52.8930  164.9630 C.3   600  EST600      0.0028
     14  C13       -4.2090   51.5020  164.7630 C.3   600  EST600      0.0282
     15  C14       -3.4470   50.4920  165.6850 C.3   600  EST600      0.0028
     16  C15       -4.3350   49.2580  165.5460 C.3   600  EST600      0.0027
     17  C16       -5.7850   49.8370  165.7130 C.3   600  EST600      0.0329
     18  C17       -5.6600   51.3340  165.3010 C.3   600  EST600      0.1519
     19  O17       -6.7310   51.6750  164.3560 O.3   600  EST600     -0.2232
     20  C18       -4.1860   51.1040  163.2410 C.3   600  EST600      0.0025
@<TRIPOS>BOND
     1    20    14    1
     2    19    18    1
     3     4     3    1
     4    12    13    1
     5    12    10    1
     6    14    13    1
     7    14    18    1
     8    14    15    1
     9     2     3   ar
    10     2     1   ar
    11     3     5   ar
    12     1    11   ar
    13    18    17    1
    14     5     6   ar
    15     9    10    1
    16     9    15    1
    17     9     8    1
    18    11     6   ar
    19    11    10    1
    20    16    15    1
    21    16    17    1
    22     6     7    1
    23     7     8    1
