@<TRIPOS>MOLECULE
1qku_EST_A_1.pdb
 20 23 0 0 0
SMALL
GASTEIGER

@<TRIPOS>ATOM
      1  C1       104.1060   17.2030   24.7750 C.ar  600  EST600     -0.0013
      2  C2       102.9950   17.8340   25.3700 C.ar  600  EST600      0.0417
      3  C3       101.6950   17.3550   25.1200 C.ar  600  EST600      0.1954
      4  O3       100.5980   17.9900   25.7040 O.3   600  EST600     -0.2866
      5  C4       101.5060   16.2400   24.2740 C.ar  600  EST600      0.0375
      6  C5       102.6210   15.5880   23.6600 C.ar  600  EST600     -0.0230
      7  C6       102.3710   14.3790   22.7350 C.3   600  EST600      0.0261
      8  C7       103.6440   13.7530   22.0860 C.3   600  EST600      0.0050
      9  C8       104.8980   13.8730   22.9530 C.3   600  EST600      0.0044
     10  C9       105.1780   15.3880   23.2610 C.3   600  EST600      0.0220
     11  C10      103.9570   16.0780   23.9180 C.ar  600  EST600     -0.0263
     12  C11      106.4620   15.4590   24.1250 C.3   600  EST600      0.0044
     13  C12      107.7110   14.8030   23.5080 C.3   600  EST600      0.0028
     14  C13      107.4630   13.3430   23.1240 C.3   600  EST600      0.0282
     15  C14      106.1700   13.2700   22.2420 C.3   600  EST600      0.0028
     16  C15      106.2280   11.8210   21.7920 C.3   600  EST600      0.0027
     17  C16      107.7010   11.7130   21.2630 C.3   600  EST600      0.0329
     18  C17      108.4940   12.7190   22.1350 C.3   600  EST600      0.1519
     19  O17      109.6100   12.0270   22.7460 O.3   600  EST600     -0.2232
     20  C18      107.3790   12.4490   24.4190 C.3   600  EST600      0.0025
@<TRIPOS>BOND
     1    17    16    1
     2    17    18    1
     3    16    15    1
     4     8     7    1
     5     8     9    1
     6    18    19    1
     7    18    14    1
     8    15     9    1
     9    15    14    1
    10     7     6    1
    11     9    10    1
    12    14    13    1
    13    14    20    1
    14    10    11    1
    15    10    12    1
    16    13    12    1
    17     6    11   ar
    18     6     5   ar
    19    11     1   ar
    20     5     3   ar
    21     1     2   ar
    22     3     2   ar
    23     3     4    1
