@<TRIPOS>MOLECULE
1ql3_HEC_A_1.pdb
 43 50 0 0 0
SMALL
GASTEIGER

@<TRIPOS>ATOM
      1 FE         13.9220   11.5720   28.7630 Fe    101  HEC101      0.0000
      2  CHA       11.0210   11.6650   30.5380 C.2   101  HEC101      0.0000
      3  CHB       12.5110    9.3610   26.5530 C.2   101  HEC101      0.0000
      4  CHC       16.7820   11.6440   26.7940 C.2   101  HEC101      0.0000
      5  CHD       15.4900   13.4680   31.1250 C.2   101  HEC101      0.0000
      6  NA        12.1370   10.6780   28.5930 N.ar  101  HEC101      0.0000
      7  C1A       11.0330   10.8880   29.3910 C.ar  101  HEC101      0.0000
      8  C2A        9.8940   10.1760   28.8630 C.ar  101  HEC101      0.0000
      9  C3A       10.3080    9.5580   27.7310 C.ar  101  HEC101      0.0000
     10  C4A       11.7180    9.8360   27.5850 C.ar  101  HEC101      0.0000
     11  CMA        9.4980    8.6920   26.7640 C.3   101  HEC101      0.0000
     12  CAA        8.5150   10.0530   29.5610 C.3   101  HEC101      0.0000
     13  CBA        8.5240    8.7180   30.3130 C.3   101  HEC101      0.0000
     14  CGA        7.2780    8.4410   31.1300 C.2   101  HEC101      0.0000
     15  O1A        7.3790    7.5590   32.0130 O.co2 101  HEC101      0.0000
     16  O2A        6.2190    9.0830   30.8960 O.co2 101  HEC101      0.0000
     17  NB        14.5240   10.6790   27.0160 N.2   101  HEC101      0.0000
     18  C1B       13.8230    9.7270   26.3120 C.2   101  HEC101      0.0000
     19  C2B       14.6580    9.1550   25.2890 C.2   101  HEC101      0.0000
     20  C3B       15.7910    9.8970   25.2450 C.2   101  HEC101      0.0000
     21  C4B       15.7250   10.8350   26.3480 C.2   101  HEC101      0.0000
     22  CMB       14.2620    7.9420   24.4490 C.3   101  HEC101      0.0000
     23  CAB       17.0180    9.8190   24.3240 C.3   101  HEC101      0.0000
     24  CBB       16.6590   10.1480   22.8720 C.3   101  HEC101      0.0000
     25  NC        15.7470   12.4490   28.8860 N.ar  101  HEC101      0.0000
     26  C1C       16.7910   12.3800   27.9790 C.ar  101  HEC101      0.0000
     27  C2C       17.9300   13.0900   28.4910 C.ar  101  HEC101      0.0000
     28  C3C       17.6010   13.5360   29.7320 C.ar  101  HEC101      0.0000
     29  C4C       16.2190   13.1600   29.9740 C.ar  101  HEC101      0.0000
     30  CMC       19.2830   13.1680   27.7610 C.3   101  HEC101      0.0000
     31  CAC       18.4120   14.1680   30.8440 C.3   101  HEC101      0.0000
     32  CBC       19.2780   15.3490   30.4140 C.3   101  HEC101      0.0000
     33  ND        13.3620   12.3850   30.5070 N.2   101  HEC101      0.0000
     34  C1D       14.1550   13.1170   31.3670 C.2   101  HEC101      0.0000
     35  C2D       13.3520   13.5800   32.4880 C.2   101  HEC101      0.0000
     36  C3D       12.0830   13.1470   32.2810 C.2   101  HEC101      0.0000
     37  C4D       12.1050   12.3600   31.0650 C.2   101  HEC101      0.0000
     38  CMD       13.8640   14.4680   33.6380 C.3   101  HEC101      0.0000
     39  CAD       10.8300   13.5100   33.0600 C.3   101  HEC101      0.0000
     40  CBD       10.1940   14.6640   32.2930 C.3   101  HEC101      0.0000
     41  CGD        9.0040   15.3190   32.9880 C.2   101  HEC101      0.0000
     42  O1D        8.5220   14.8190   34.0330 O.co2 101  HEC101      0.0000
     43  O2D        8.5480   16.3580   32.4640 O.co2 101  HEC101      0.0000
@<TRIPOS>BOND
     1    24    23    1
     2    23    20    1
     3    22    19    1
     4    20    19    2
     5    20    21    1
     6    19    18    1
     7    18     3    1
     8    18    17    2
     9    21     4    2
    10    21    17    1
    11     3    10    2
    12    11     9    1
    13     4    26    1
    14    17     1    1
    15    10     9   ar
    16    10     6   ar
    17     9     8   ar
    18    30    27    1
    19    26    27   ar
    20    26    25   ar
    21    27    28   ar
    22     6     1    1
    23     6     7   ar
    24     1    25    1
    25     1    33    1
    26     8     7   ar
    27     8    12    1
    28    25    29   ar
    29     7     2    2
    30    12    13    1
    31    28    29   ar
    32    28    31    1
    33    29     5    1
    34    13    14    1
    35    32    31    1
    36    33    37    2
    37    33    34    1
    38     2    37    1
    39    16    14   ar
    40    37    36    1
    41     5    34    2
    42    14    15   ar
    43    34    35    1
    44    36    35    2
    45    36    39    1
    46    40    41    1
    47    40    39    1
    48    43    41   ar
    49    35    38    1
    50    41    42   ar
