@<TRIPOS>MOLECULE
1ql4_HEC_A_1.pdb
 43 50 0 0 0
SMALL
GASTEIGER

@<TRIPOS>ATOM
      1 FE         14.0180   11.2320   29.2090 Fe    101  HEC101      0.0000
      2  CHA       11.0980   11.3480   30.9850 C.2   101  HEC101      0.0000
      3  CHB       12.5720    9.1170   26.9560 C.2   101  HEC101      0.0000
      4  CHC       16.8510   11.3560   27.2870 C.2   101  HEC101      0.0000
      5  CHD       15.5710   13.0820   31.6550 C.2   101  HEC101      0.0000
      6  NA        12.2000   10.3810   29.0190 N.ar  101  HEC101      0.0000
      7  C1A       11.1020   10.5800   29.8240 C.ar  101  HEC101      0.0000
      8  C2A        9.9640    9.8480   29.3040 C.ar  101  HEC101      0.0000
      9  C3A       10.3760    9.2430   28.1670 C.ar  101  HEC101      0.0000
     10  C4A       11.7740    9.5660   27.9970 C.ar  101  HEC101      0.0000
     11  CMA        9.5480    8.3970   27.1900 C.3   101  HEC101      0.0000
     12  CAA        8.5660    9.7490   29.9270 C.3   101  HEC101      0.0000
     13  CBA        8.6410    8.4880   30.7940 C.3   101  HEC101      0.0000
     14  CGA        7.3650    8.1590   31.5420 C.2   101  HEC101      0.0000
     15  O1A        7.4150    7.2450   32.3990 O.co2 101  HEC101      0.0000
     16  O2A        6.3150    8.7850   31.2760 O.co2 101  HEC101      0.0000
     17  NB        14.6180   10.3620   27.4980 N.2   101  HEC101      0.0000
     18  C1B       13.9020    9.4550   26.7440 C.2   101  HEC101      0.0000
     19  C2B       14.7580    8.8640   25.7420 C.2   101  HEC101      0.0000
     20  C3B       15.9110    9.5740   25.7400 C.2   101  HEC101      0.0000
     21  C4B       15.8200   10.5260   26.8460 C.2   101  HEC101      0.0000
     22  CMB       14.3990    7.6750   24.8490 C.3   101  HEC101      0.0000
     23  CAB       17.1400    9.5090   24.8500 C.3   101  HEC101      0.0000
     24  CBB       16.8100    9.8840   23.4040 C.3   101  HEC101      0.0000
     25  NC        15.8050   12.1520   29.3800 N.ar  101  HEC101      0.0000
     26  C1C       16.8430   12.1020   28.4660 C.ar  101  HEC101      0.0000
     27  C2C       17.9850   12.7740   29.0020 C.ar  101  HEC101      0.0000
     28  C3C       17.6710   13.1510   30.2720 C.ar  101  HEC101      0.0000
     29  C4C       16.2910   12.7940   30.5010 C.ar  101  HEC101      0.0000
     30  CMC       19.3180   12.8980   28.2440 C.3   101  HEC101      0.0000
     31  CAC       18.4570   13.7450   31.4090 C.3   101  HEC101      0.0000
     32  CBC       19.3130   14.9490   31.0720 C.3   101  HEC101      0.0000
     33  ND        13.4490   12.0520   30.9830 N.2   101  HEC101      0.0000
     34  C1D       14.2370   12.7520   31.8750 C.2   101  HEC101      0.0000
     35  C2D       13.4190   13.2380   32.9680 C.2   101  HEC101      0.0000
     36  C3D       12.1560   12.8020   32.7450 C.2   101  HEC101      0.0000
     37  C4D       12.1840   12.0290   31.5220 C.2   101  HEC101      0.0000
     38  CMD       13.9010   14.1710   34.0710 C.3   101  HEC101      0.0000
     39  CAD       10.8930   13.1430   33.5060 C.3   101  HEC101      0.0000
     40  CBD       10.2290   14.2800   32.7280 C.3   101  HEC101      0.0000
     41  CGD        9.0560   14.9320   33.4450 C.2   101  HEC101      0.0000
     42  O1D        8.5870   14.4370   34.5000 O.co2 101  HEC101      0.0000
     43  O2D        8.5950   15.9750   32.9420 O.co2 101  HEC101      0.0000
@<TRIPOS>BOND
     1    24    23    1
     2    22    19    1
     3    23    20    1
     4    20    19    2
     5    20    21    1
     6    19    18    1
     7    18     3    1
     8    18    17    2
     9    21     4    2
    10    21    17    1
    11     3    10    2
    12    11     9    1
    13     4    26    1
    14    17     1    1
    15    10     9   ar
    16    10     6   ar
    17     9     8   ar
    18    30    27    1
    19    26    27   ar
    20    26    25   ar
    21    27    28   ar
    22     6     1    1
    23     6     7   ar
    24     1    25    1
    25     1    33    1
    26     8     7   ar
    27     8    12    1
    28    25    29   ar
    29     7     2    2
    30    12    13    1
    31    28    29   ar
    32    28    31    1
    33    29     5    1
    34    13    14    1
    35    33    37    2
    36    33    34    1
    37     2    37    1
    38    32    31    1
    39    16    14   ar
    40    37    36    1
    41    14    15   ar
    42     5    34    2
    43    34    35    1
    44    40    41    1
    45    40    39    1
    46    36    35    2
    47    36    39    1
    48    43    41   ar
    49    35    38    1
    50    41    42   ar
