@<TRIPOS>MOLECULE
1ql7_ZEN_A_1.pdb
 34 38 0 0 0
SMALL
GASTEIGER

@<TRIPOS>ATOM
      1  N1        18.5230    7.5480   11.0100 N.ar  999  ZEN999     -0.2422
      2  C2        19.1260    6.3320   11.0810 C.ar  999  ZEN999      0.1002
      3  C3        20.3680    6.1970   11.7260 C.ar  999  ZEN999      0.0352
      4  C5        20.3140    8.5760   12.2170 C.ar  999  ZEN999      0.0352
      5  C6        19.0800    8.6570   11.5570 C.ar  999  ZEN999      0.1002
      6  C4        20.9660    7.3330   12.3030 C.ar  999  ZEN999      0.0510
      7  N7        22.2210    7.2210   12.9640 N.pl3 999  ZEN999     -0.3074
      8  C8        22.7030    5.9010   13.3960 C.3   999  ZEN999      0.0913
      9  C9        24.2500    5.8860   13.3330 C.3   999  ZEN999      0.0305
     10  C11       24.1850    8.4250   13.8120 C.3   999  ZEN999      0.0305
     11  C12       22.6520    8.2880   13.8790 C.3   999  ZEN999      0.0913
     12  C10       24.9150    7.0770   14.1230 C.3   999  ZEN999      0.0801
     13  C13       26.3620    7.2260   13.7020 C.2   999  ZEN999      0.2253
     14  O23       26.5470    7.1770   12.4830 O.2   999  ZEN999     -0.2749
     15  N14       27.3690    7.4100   14.5240 N.am  999  ZEN999     -0.2766
     16  C15       27.2480    7.4710   15.9930 C.3   999  ZEN999      0.1126
     17  C16       27.9910    8.7340   16.5080 C.3   999  ZEN999      0.1173
     18  C18       29.3300    8.8400   14.4790 C.3   999  ZEN999      0.1173
     19  C19       28.7220    7.5290   13.9770 C.3   999  ZEN999      0.1126
     20  N17       29.3550    8.7870   15.9380 N.3   999  ZEN999     -0.1520
     21  S20       30.2340   10.0180   16.5540 S.O2  999  ZEN999      0.0634
     22  O21       31.4610   10.1160   15.7850 O.2   999  ZEN999     -0.1528
     23  O22       30.3610    9.7750   17.9680 O.2   999  ZEN999     -0.1528
     24  C24       29.3520   11.5230   16.3460 C.ar  999  ZEN999      0.1222
     25  C25       29.4770   12.2390   15.1630 C.ar  999  ZEN999      0.0199
     26  C33       28.4800   11.9650   17.3500 C.ar  999  ZEN999      0.0199
     27  C34       27.7540   13.1400   17.1810 C.ar  999  ZEN999      0.0014
     28  C26       28.7550   13.4120   14.9810 C.ar  999  ZEN999      0.0014
     29  C27       27.8890   13.8680   16.0000 C.ar  999  ZEN999      0.0009
     30  C28       27.1650   15.0340   15.8170 C.ar  999  ZEN999      0.0114
     31  C30       28.1580   15.3090   13.6220 C.ar  999  ZEN999      0.0114
     32  C31       28.8860   14.1390   13.7990 C.ar  999  ZEN999      0.0009
     33  C29       27.3010   15.7520   14.6320 C.ar  999  ZEN999      0.0577
     34 CL32       26.3820   17.1890   14.4050 Cl    999  ZEN999     -0.0822
@<TRIPOS>BOND
     1     1     2   ar
     2     1     5   ar
     3     2     3   ar
     4     5     4   ar
     5     3     6   ar
     6     4     6   ar
     7     6     7    1
     8    14    13    2
     9     7     8    1
    10     7    11    1
    11     9     8    1
    12     9    12    1
    13    31    32   ar
    14    31    33   ar
    15    13    12    1
    16    13    15   am
    17    32    28   ar
    18    10    11    1
    19    10    12    1
    20    19    18    1
    21    19    15    1
    22    34    33    1
    23    18    20    1
    24    15    16    1
    25    33    30   ar
    26    28    25   ar
    27    28    29   ar
    28    25    24   ar
    29    22    21    2
    30    30    29   ar
    31    20    17    1
    32    20    21    1
    33    16    17    1
    34    29    27   ar
    35    24    21    1
    36    24    26   ar
    37    21    23    2
    38    27    26   ar
