@<TRIPOS>MOLECULE
1ql8_ZEN_A_1.pdb
 34 38 0 0 0
SMALL
GASTEIGER

@<TRIPOS>ATOM
      1  N1        47.5810   52.3480   77.1950 N.ar  999  ZEN999     -0.2422
      2  C2        48.5050   51.3560   77.1150 C.ar  999  ZEN999      0.1002
      3  C3        49.5910   51.3350   78.0020 C.ar  999  ZEN999      0.0352
      4  C5        48.7500   53.3780   79.0240 C.ar  999  ZEN999      0.0352
      5  C6        47.6830   53.3500   78.1130 C.ar  999  ZEN999      0.1002
      6  C4        49.7190   52.3560   78.9690 C.ar  999  ZEN999      0.0510
      7  N7        50.8290   52.3400   79.8810 N.pl3 999  ZEN999     -0.3074
      8  C8        51.8680   51.2900   79.8020 C.3   999  ZEN999      0.0913
      9  C9        53.2290   51.9160   79.4430 C.3   999  ZEN999      0.0305
     10  C11       52.5330   54.0670   80.5330 C.3   999  ZEN999      0.0305
     11  C12       51.1210   53.4700   80.7980 C.3   999  ZEN999      0.0913
     12  C10       53.6380   52.9660   80.5100 C.3   999  ZEN999      0.0801
     13  C13       55.0400   53.5570   80.2270 C.2   999  ZEN999      0.2253
     14  O23       55.3020   53.7490   79.0270 O.2   999  ZEN999     -0.2749
     15  N14       55.9440   53.8530   81.1610 N.am  999  ZEN999     -0.2766
     16  C15       55.7430   53.6750   82.6120 C.3   999  ZEN999      0.1126
     17  C16       55.9550   55.0530   83.3060 C.3   999  ZEN999      0.1173
     18  C18       57.4360   55.7660   81.4560 C.3   999  ZEN999      0.1173
     19  C19       57.2590   54.3920   80.7750 C.3   999  ZEN999      0.1126
     20  N17       57.2730   55.6340   82.9260 N.3   999  ZEN999     -0.1520
     21  S20       57.5920   57.0620   83.7120 S.O2  999  ZEN999      0.0634
     22  O21       59.0270   57.1290   83.9190 O.2   999  ZEN999     -0.1528
     23  O22       56.7770   57.1010   84.9140 O.2   999  ZEN999     -0.1528
     24  C24       57.1440   58.4840   82.7280 C.ar  999  ZEN999      0.1222
     25  C25       58.0010   58.9380   81.7080 C.ar  999  ZEN999      0.0199
     26  C33       55.9350   59.1620   82.9680 C.ar  999  ZEN999      0.0199
     27  C34       55.5850   60.2800   82.1920 C.ar  999  ZEN999      0.0014
     28  C26       57.6560   60.0520   80.9230 C.ar  999  ZEN999      0.0014
     29  C27       56.4390   60.7310   81.1680 C.ar  999  ZEN999      0.0009
     30  C28       56.0950   61.8500   80.3850 C.ar  999  ZEN999      0.0114
     31  C30       58.1640   61.6170   79.1230 C.ar  999  ZEN999      0.0114
     32  C31       58.5130   60.5000   79.9000 C.ar  999  ZEN999      0.0009
     33  C29       56.9560   62.2920   79.3640 C.ar  999  ZEN999      0.0577
     34 CL32       56.5220   63.6850   78.3940 Cl    999  ZEN999     -0.0822
@<TRIPOS>BOND
     1     2     1   ar
     2     2     3   ar
     3     1     5   ar
     4     3     6   ar
     5     5     4   ar
     6    34    33    1
     7     6     4   ar
     8     6     7    1
     9    14    13    2
    10    31    33   ar
    11    31    32   ar
    12    33    30   ar
    13     9     8    1
    14     9    12    1
    15     8     7    1
    16     7    11    1
    17    32    28   ar
    18    13    12    1
    19    13    15   am
    20    30    29   ar
    21    12    10    1
    22    10    11    1
    23    19    15    1
    24    19    18    1
    25    28    29   ar
    26    28    25   ar
    27    15    16    1
    28    29    27   ar
    29    18    20    1
    30    25    24   ar
    31    27    26   ar
    32    16    17    1
    33    24    26   ar
    34    24    21    1
    35    20    17    1
    36    20    21    1
    37    21    22    2
    38    21    23    2
