@<TRIPOS>MOLECULE
1ql9_ZEN_A_1.pdb
 34 38 0 0 0
SMALL
GASTEIGER

@<TRIPOS>ATOM
      1  N1        18.2230   50.5650   59.9120 N.ar  999  ZEN999     -0.2422
      2  C2        17.9420   51.0010   61.1640 C.ar  999  ZEN999      0.1002
      3  C3        16.7870   50.5590   61.8240 C.ar  999  ZEN999      0.0352
      4  C5        16.2510   49.2190   59.8740 C.ar  999  ZEN999      0.0352
      5  C6        17.4170   49.6950   59.2640 C.ar  999  ZEN999      0.1002
      6  C4        15.9280   49.6580   61.1670 C.ar  999  ZEN999      0.0510
      7  N7        14.7500   49.1820   61.8130 N.pl3 999  ZEN999     -0.3074
      8  C8        14.4290   49.5320   63.2230 C.3   999  ZEN999      0.0913
      9  C9        13.0270   50.2030   63.3210 C.3   999  ZEN999      0.0305
     10  C11       12.3770   49.1220   61.1300 C.3   999  ZEN999      0.0305
     11  C12       13.7350   48.3930   61.0840 C.3   999  ZEN999      0.0913
     12  C10       11.9290   49.3530   62.6090 C.3   999  ZEN999      0.0801
     13  C13       10.5660   50.0330   62.6130 C.2   999  ZEN999      0.2253
     14  O23       10.5770   51.2380   62.8600 O.2   999  ZEN999     -0.2749
     15  N14        9.4420   49.4100   62.3370 N.am  999  ZEN999     -0.2766
     16  C15        9.3660   47.9510   62.0360 C.3   999  ZEN999      0.1126
     17  C16        8.5640   47.7320   60.7300 C.3   999  ZEN999      0.1173
     18  C18        7.4540   49.9040   60.9880 C.3   999  ZEN999      0.1173
     19  C19        8.1660   50.1570   62.3430 C.3   999  ZEN999      0.1126
     20  N17        7.2720   48.4430   60.8410 N.3   999  ZEN999     -0.1520
     21  S20        6.2200   48.0300   59.6480 S.O2  999  ZEN999      0.0634
     22  O21        5.0680   48.9160   59.7320 O.2   999  ZEN999     -0.1528
     23  O22        5.9520   46.6270   59.8260 O.2   999  ZEN999     -0.1528
     24  C24        6.9580   48.2550   58.0380 C.ar  999  ZEN999      0.1222
     25  C25        6.9530   49.5250   57.4270 C.ar  999  ZEN999      0.0199
     26  C33        7.5660   47.1690   57.3800 C.ar  999  ZEN999      0.0199
     27  C34        8.1500   47.3420   56.1160 C.ar  999  ZEN999      0.0014
     28  C26        7.5350   49.7090   56.1580 C.ar  999  ZEN999      0.0014
     29  C27        8.1350   48.6060   55.5000 C.ar  999  ZEN999      0.0009
     30  C28        8.7140   48.7820   54.2470 C.ar  999  ZEN999      0.0114
     31  C30        8.1040   51.1390   54.2760 C.ar  999  ZEN999      0.0114
     32  C31        7.5190   50.9720   55.5360 C.ar  999  ZEN999      0.0009
     33  C29        8.7040   50.0390   53.6350 C.ar  999  ZEN999      0.0577
     34 CL32        9.4500   50.2280   52.0690 Cl    999  ZEN999     -0.0822
@<TRIPOS>BOND
     1    34    33    1
     2    33    30   ar
     3    33    31   ar
     4    30    29   ar
     5    31    32   ar
     6    29    27   ar
     7    29    28   ar
     8    32    28   ar
     9    27    26   ar
    10    28    25   ar
    11    26    24   ar
    12    25    24   ar
    13    24    21    1
    14     5     4   ar
    15     5     1   ar
    16    21    22    2
    17    21    23    2
    18    21    20    1
    19     4     6   ar
    20     1     2   ar
    21    17    20    1
    22    17    16    1
    23    20    18    1
    24    18    19    1
    25    11    10    1
    26    11     7    1
    27    10    12    1
    28     2     3   ar
    29     6     7    1
    30     6     3   ar
    31     7     8    1
    32    16    15    1
    33    15    19    1
    34    15    13   am
    35    12    13    1
    36    12     9    1
    37    13    14    2
    38     8     9    1
