@<TRIPOS>MOLECULE
1qlb_HEM_C_1.pdb
 43 50 0 0 0
SMALL
GASTEIGER

@<TRIPOS>ATOM
      1 FE        -36.6620   23.4330   31.9940 Fe    1255  HEM1255     0.0000
      2  CHA      -33.5000   24.0210   30.8300 C.2   1255  HEM1255     0.0000
      3  CHB      -35.5140   23.7100   35.2250 C.2   1255  HEM1255     0.0000
      4  CHC      -39.8710   22.9330   33.1920 C.2   1255  HEM1255     0.0000
      5  CHD      -37.8800   23.3750   28.7810 C.2   1255  HEM1255     0.0000
      6  NA       -34.8560   23.8100   32.8660 N.2   1255  HEM1255     0.0000
      7  C1A      -33.6680   24.0570   32.2140 C.2   1255  HEM1255     0.0000
      8  C2A      -32.6690   24.4790   33.1740 C.2   1255  HEM1255     0.0000
      9  C3A      -33.2680   24.4900   34.3900 C.2   1255  HEM1255     0.0000
     10  C4A      -34.5970   23.9550   34.2100 C.2   1255  HEM1255     0.0000
     11  CMA      -32.6690   24.9910   35.6990 C.3   1255  HEM1255     0.0000
     12  CAA      -31.2080   24.8440   32.8900 C.3   1255  HEM1255     0.0000
     13  CBA      -30.4320   23.5680   32.6340 C.3   1255  HEM1255     0.0000
     14  CGA      -28.9760   23.8150   32.2870 C.2   1255  HEM1255     0.0000
     15  O1A      -28.3010   22.8400   31.9000 O.co2 1255  HEM1255     0.0000
     16  O2A      -28.5050   24.9680   32.4020 O.co2 1255  HEM1255     0.0000
     17  NB       -37.4940   23.2010   33.8340 N.ar  1255  HEM1255     0.0000
     18  C1B      -36.8460   23.3350   35.0440 C.ar  1255  HEM1255     0.0000
     19  C2B      -37.7470   22.9410   36.0980 C.ar  1255  HEM1255     0.0000
     20  C3B      -38.9880   22.9040   35.5610 C.ar  1255  HEM1255     0.0000
     21  C4B      -38.8320   23.0110   34.1300 C.ar  1255  HEM1255     0.0000
     22  CMB      -37.3200   22.6210   37.5430 C.3   1255  HEM1255     0.0000
     23  CAB      -40.1980   22.8020   36.2430 C.3   1255  HEM1255     0.0000
     24  CBB      -40.6140   21.5660   36.8480 C.3   1255  HEM1255     0.0000
     25  NC       -38.5290   23.1740   31.1470 N.2   1255  HEM1255     0.0000
     26  C1C      -39.7310   23.0210   31.8070 C.2   1255  HEM1255     0.0000
     27  C2C      -40.8160   23.0420   30.8540 C.2   1255  HEM1255     0.0000
     28  C3C      -40.2640   23.2310   29.6290 C.2   1255  HEM1255     0.0000
     29  C4C      -38.8260   23.2220   29.8020 C.2   1255  HEM1255     0.0000
     30  CMC      -42.3150   22.8960   31.1360 C.3   1255  HEM1255     0.0000
     31  CAC      -40.9730   23.4140   28.4510 C.3   1255  HEM1255     0.0000
     32  CBC      -41.1010   24.7470   27.9080 C.3   1255  HEM1255     0.0000
     33  ND       -35.8440   23.5850   30.1700 N.ar  1255  HEM1255     0.0000
     34  C1D      -36.4990   23.5320   28.9540 C.ar  1255  HEM1255     0.0000
     35  C2D      -35.5300   23.6220   27.8870 C.ar  1255  HEM1255     0.0000
     36  C3D      -34.3020   23.6100   28.4630 C.ar  1255  HEM1255     0.0000
     37  C4D      -34.5060   23.7810   29.8860 C.ar  1255  HEM1255     0.0000
     38  CMD      -35.8460   23.7100   26.4010 C.3   1255  HEM1255     0.0000
     39  CAD      -32.9420   23.4150   27.7710 C.3   1255  HEM1255     0.0000
     40  CBD      -32.3220   22.1130   28.2630 C.3   1255  HEM1255     0.0000
     41  CGD      -30.8340   22.0260   27.9890 C.2   1255  HEM1255     0.0000
     42  O1D      -30.1800   23.0900   27.9020 O.co2 1255  HEM1255     0.0000
     43  O2D      -30.3160   20.8930   27.8800 O.co2 1255  HEM1255     0.0000
@<TRIPOS>BOND
     1    38    35    1
     2    39    40    1
     3    39    36    1
     4    43    41   ar
     5    35    36   ar
     6    35    34   ar
     7    42    41   ar
     8    32    31    1
     9    41    40    1
    10    31    28    1
    11    36    37   ar
    12     5    34    2
    13     5    29    1
    14    34    33   ar
    15    28    29    1
    16    28    27    2
    17    29    25    2
    18    37    33   ar
    19    37     2    2
    20    33     1    1
    21     2     7    1
    22    27    30    1
    23    27    26    1
    24    25    26    1
    25    25     1    1
    26    26     4    2
    27    15    14   ar
    28     1     6    1
    29     1    17    1
    30     7     6    2
    31     7     8    1
    32    14    16   ar
    33    14    13    1
    34    13    12    1
    35     6    10    1
    36    12     8    1
    37     8     9    2
    38     4    21    1
    39    17    21   ar
    40    17    18   ar
    41    21    20   ar
    42    10     9    1
    43    10     3    2
    44     9    11    1
    45    18     3    1
    46    18    19   ar
    47    20    19   ar
    48    20    23    1
    49    19    22    1
    50    23    24    1
