@<TRIPOS>MOLECULE
1qlh_NAD_A_1.pdb
 43 47 0 0 0
SMALL
GASTEIGER

@<TRIPOS>ATOM
      1  PA        13.6590    7.6870   26.9770 P.3   377  NAD377      0.2203
      2  O1A       13.3100    6.2570   26.7710 O.3   377  NAD377     -0.4371
      3  O2A       14.7550    8.2870   26.1720 O.2   377  NAD377     -0.5170
      4  O5B       13.9930    7.9200   28.5610 O.3   377  NAD377     -0.3112
      5  C5B       14.0780    6.7870   29.4740 C.3   377  NAD377      0.1813
      6  C4B       15.4240    6.8230   30.2040 C.3   377  NAD377      0.1821
      7  O4B       15.2900    6.3220   31.5800 O.3   377  NAD377     -0.3135
      8  C3B       16.4320    5.9580   29.5110 C.3   377  NAD377      0.2184
      9  O3B       17.6020    6.7040   29.1470 O.3   377  NAD377     -0.2174
     10  C2B       16.7980    4.8750   30.4890 C.3   377  NAD377      0.2570
     11  O2B       18.1950    4.5620   30.4110 O.3   377  NAD377     -0.2130
     12  C1B       16.4050    5.4180   31.8150 C.3   377  NAD377      0.3186
     13  N9A       16.0380    4.3540   32.7590 N.pl3 377  NAD377     -0.1439
     14  C8A       15.4600    3.1380   32.4560 C.3   377  NAD377      0.3377
     15  N7A       15.2920    2.4590   33.6210 N.2   377  NAD377     -0.2095
     16  C5A       15.7570    3.2600   34.5390 C.2   377  NAD377      0.2526
     17  C6A       15.7450    2.8930   35.8450 C.2   377  NAD377      0.4393
     18  N6A       15.2700    1.7210   36.2310 N.pl3 377  NAD377      0.2180
     19  N1A       16.2430    3.7770   36.7350 N.2   377  NAD377      0.0021
     20  C2A       16.7260    4.9780   36.2900 C.3   377  NAD377      0.5254
     21  N3A       16.7110    5.2870   34.9550 N.2   377  NAD377     -0.0055
     22  C4A       16.2080    4.3900   34.0800 C.2   377  NAD377      0.3518
     23  O3        12.3090    8.5830   26.7690 O.3   377  NAD377     -0.2527
     24  PN        11.9360   10.1680   26.5720 P.3   377  NAD377      0.3710
     25  O1N       11.7360   10.4370   25.1260 O.3   377  NAD377     -0.1443
     26  O5D       10.5030   10.2590   27.3120 O.3   377  NAD377     -0.2939
     27  C5D        9.3740    9.5550   26.7680 C.3   377  NAD377      0.1829
     28  C4D        8.5710    8.9110   27.8930 C.3   377  NAD377      0.1800
     29  O4D        7.8210    9.9480   28.6060 O.3   377  NAD377     -0.3327
     30  C3D        7.5930    7.9300   27.3330 C.3   377  NAD377      0.2158
     31  O3D        7.5730    6.7100   28.1020 O.3   377  NAD377     -0.2175
     32  C2D        6.2440    8.6000   27.3780 C.3   377  NAD377      0.2309
     33  O2D        5.2320    7.6640   27.8160 O.3   377  NAD377     -0.2158
     34  C1D        6.3850    9.7680   28.3320 C.3   377  NAD377      0.2263
     35  N1N        5.8190   11.0230   27.7590 N.pl3 377  NAD377     -0.2787
     36  C2N        4.8080   11.7230   28.4550 C.3   377  NAD377      0.1244
     37  C3N        4.2820   12.9030   27.9200 C.2   377  NAD377      0.0544
     38  C7N        3.1800   13.6780   28.6760 C.2   377  NAD377      0.2818
     39  O7N        2.3330   14.3310   28.0650 O.2   377  NAD377     -0.2670
     40  N7N        3.2270   13.5820   30.0080 N.am  377  NAD377     -0.0839
     41  C4N        4.7610   13.3870   26.6930 C.2   377  NAD377      0.0033
     42  C5N        5.7640   12.6960   26.0020 C.2   377  NAD377      0.0157
     43  C6N        6.2920   11.5180   26.5260 C.2   377  NAD377      0.0633
@<TRIPOS>BOND
     1    25    24    1
     2    42    43    2
     3    42    41    1
     4     3     1    2
     5    43    35    1
     6    24    23    1
     7    24    26    1
     8    41    37    2
     9    27    26    1
    10    27    28    1
    11    23     1    1
    12     2     1    1
    13     1     4    1
    14    30    32    1
    15    30    28    1
    16    30    31    1
    17    32    33    1
    18    32    34    1
    19    35    34    1
    20    35    36    1
    21    28    29    1
    22    37    36    1
    23    37    38    1
    24    39    38    2
    25    34    29    1
    26     4     5    1
    27    38    40   am
    28     9     8    1
    29     5     6    1
    30     8     6    1
    31     8    10    1
    32     6     7    1
    33    11    10    1
    34    10    12    1
    35     7    12    1
    36    12    13    1
    37    14    13    1
    38    14    15    1
    39    13    22    1
    40    15    16    2
    41    22    16    1
    42    22    21    2
    43    16    17    1
    44    21    20    1
    45    17    18    1
    46    17    19    2
    47    20    19    1
