@<TRIPOS>MOLECULE
1qll_TDA_A_1.pdb
 15 14 0 0 0
SMALL
GASTEIGER

@<TRIPOS>ATOM
      1  O21       34.1820   11.7250   13.5590 O.co2 122  TDA122     -0.2457
      2  O22       32.3720   10.5510   14.1270 O.co2 122  TDA122     -0.2457
      3  C21       33.1060   10.9910   13.3030 C.2   122  TDA122      0.3649
      4  C22       32.6560   11.6180   11.9000 C.3   122  TDA122      0.1141
      5  C23       31.1040   11.4170   11.6550 C.3   122  TDA122      0.0118
      6  C24       30.2910   12.5600   12.0890 C.3   122  TDA122      0.0006
      7  C25       29.4490   13.2460   10.8670 C.3   122  TDA122      0.0000
      8  C26       29.0650   14.6640   11.2290 C.3   122  TDA122      0.0000
      9  C27       27.7860   14.9720   10.3060 C.3   122  TDA122      0.0000
     10  C28       27.5260   16.5400   10.4750 C.3   122  TDA122      0.0000
     11  C29       26.7680   17.0070    9.0860 C.3   122  TDA122      0.0000
     12  C30       26.7690   18.6350    9.3640 C.3   122  TDA122      0.0000
     13  C31       26.5570   19.2660    8.0220 C.3   122  TDA122      0.0000
     14  C32       27.6370   18.6910    6.9140 C.3   122  TDA122      0.0000
     15  C33       27.8080   19.7520    5.9010 C.3   122  TDA122      0.0000
@<TRIPOS>BOND
     1    15    14    1
     2    14    13    1
     3    13    12    1
     4    11    12    1
     5    11    10    1
     6     9    10    1
     7     9     8    1
     8     7     8    1
     9     7     6    1
    10     5     4    1
    11     5     6    1
    12     4     3    1
    13     3     1   ar
    14     3     2   ar
