@<TRIPOS>MOLECULE
1qlr_FUC_B_1.pdb
 10 10 0 0 0
SMALL
GASTEIGER

@<TRIPOS>ATOM
      1  C1       -33.3880   50.9370   55.7110 C.3   302  FUC302      0.1776
      2  C2       -31.9130   51.3520   55.7410 C.3   302  FUC302      0.2141
      3  C3       -31.5040   52.3080   56.8310 C.3   302  FUC302      0.2172
      4  C4       -32.4790   53.3890   57.2270 C.3   302  FUC302      0.2116
      5  C5       -33.8630   53.1320   56.6370 C.3   302  FUC302      0.1483
      6  C6       -34.9640   53.7320   57.5170 C.3   302  FUC302      0.0349
      7  O2       -31.6310   51.7950   54.3860 O.3   302  FUC302     -0.2176
      8  O3       -31.1030   51.5530   57.9990 O.3   302  FUC302     -0.2175
      9  O4       -32.6070   53.5040   58.6640 O.3   302  FUC302     -0.2177
     10  O5       -34.1550   51.6900   56.6380 O.3   302  FUC302     -0.3508
@<TRIPOS>BOND
     1     7     2    1
     2     1     2    1
     3     1    10    1
     4     2     3    1
     5     5    10    1
     6     5     4    1
     7     5     6    1
     8     3     4    1
     9     3     8    1
    10     4     9    1
