@<TRIPOS>MOLECULE
1qlu_EUG_A_1.pdb
 11 11 0 0 0
SMALL
GASTEIGER

@<TRIPOS>ATOM
      1  C1       110.5200   47.3620   70.7330 C.ar  601  EUG601      0.0032
      2  C2       110.1550   46.6540   69.5960 C.ar  601  EUG601      0.0402
      3  C3       109.0080   46.9800   68.8730 C.ar  601  EUG601      0.1774
      4  C4       108.2160   48.0500   69.3050 C.ar  601  EUG601      0.2293
      5  C5       108.5740   48.7750   70.4320 C.ar  601  EUG601      0.0452
      6  C6       109.7070   48.4300   71.1350 C.ar  601  EUG601      0.0035
      7  C7       111.7210   46.9920   71.4880 C.2   601  EUG601      0.0001
      8  C8       112.2980   47.9030   72.2700 C.2   601  EUG601      0.0000
      9  C9       108.5880   46.6460   66.4860 C.3   601  EUG601      0.2526
     10  O3       108.6800   46.2320   67.7870 O.3   601  EUG601     -0.4682
     11  O4       107.1340   48.4050   68.6090 O.3   601  EUG601     -0.2833
@<TRIPOS>BOND
     1     9    10    1
     2    10     3    1
     3    11     4    1
     4     3     4   ar
     5     3     2   ar
     6     4     5   ar
     7     2     1   ar
     8     5     6   ar
     9     1     6   ar
    10     1     7    1
    11     7     8    2
