@<TRIPOS>MOLECULE
1qm8_GLC_A_1.pdb
 11 11 0 0 0
SMALL
GASTEIGER

@<TRIPOS>ATOM
      1  C1        49.6430   23.5740   10.5480 C.3   400  GLC400      0.1777
      2  C2        50.1760   23.3570    9.1000 C.3   400  GLC400      0.2141
      3  C3        50.0310   24.6830    8.3220 C.3   400  GLC400      0.2173
      4  C4        48.5510   25.0520    8.3160 C.3   400  GLC400      0.2142
      5  C5        48.0300   25.2530    9.7360 C.3   400  GLC400      0.1810
      6  C6        46.5260   25.2090    9.9140 C.3   400  GLC400      0.2141
      7  O2        51.5660   22.9810    9.0680 O.3   400  GLC400     -0.2176
      8  O3        50.3320   24.5190    6.9110 O.3   400  GLC400     -0.2175
      9  O4        48.3480   26.2520    7.6670 O.3   400  GLC400     -0.2176
     10  O5        48.2250   23.9590   10.4540 O.3   400  GLC400     -0.3481
     11  O6        45.8360   24.2510    9.1830 O.3   400  GLC400     -0.2176
@<TRIPOS>BOND
     1     8     3    1
     2     9     4    1
     3     4     3    1
     4     4     5    1
     5     3     2    1
     6     7     2    1
     7     2     1    1
     8    11     6    1
     9     5     6    1
    10     5    10    1
    11    10     1    1
