@<TRIPOS>MOLECULE
1qm8_RET_A_1.pdb
 20 20 0 0 0
SMALL
GASTEIGER

@<TRIPOS>ATOM
      1  C1        39.1510   16.1330   21.4680 C.3   250  RET250      0.0183
      2  C2        39.8870   15.3380   20.3570 C.3   250  RET250      0.0044
      3  C3        39.7260   13.9180   20.3460 C.3   250  RET250      0.0047
      4  C4        40.0400   13.3060   21.6660 C.3   250  RET250      0.0217
      5  C5        39.4050   14.0250   22.8200 C.2   250  RET250     -0.0479
      6  C6        39.0050   15.3200   22.7870 C.2   250  RET250     -0.0307
      7  C7        38.3740   15.8390   24.0710 C.2   250  RET250     -0.0052
      8  C8        37.8770   17.0690   24.2490 C.2   250  RET250     -0.0046
      9  C9        37.2510   17.5690   25.4700 C.2   250  RET250     -0.0219
     10  C10       36.7530   18.8320   25.5010 C.2   250  RET250     -0.0043
     11  C11       36.0940   19.5020   26.6110 C.2   250  RET250     -0.0007
     12  C12       35.6590   20.7400   26.3810 C.2   250  RET250     -0.0046
     13  C13       34.9830   21.6760   27.2980 C.2   250  RET250     -0.0261
     14  C14       34.7710   22.9250   26.8350 C.2   250  RET250     -0.0300
     15  C15       34.1760   24.0730   27.5010 C.3   250  RET250      0.0304
     16  C16       39.9760   17.4000   21.6530 C.3   250  RET250      0.0043
     17  C17       37.8080   16.5350   20.8800 C.3   250  RET250      0.0043
     18  C18       39.2700   13.2000   24.0850 C.3   250  RET250      0.0260
     19  C19       37.1190   16.6790   26.6500 C.3   250  RET250      0.0310
     20  C20       34.5740   21.2660   28.6790 C.3   250  RET250      0.0307
@<TRIPOS>BOND
     1     3     2    1
     2     3     4    1
     3     2     1    1
     4    17     1    1
     5     1    16    1
     6     1     6    1
     7     4     5    1
     8     6     5    2
     9     6     7    1
    10     5    18    1
    11     7     8    2
    12     8     9    1
    13     9    10    2
    14     9    19    1
    15    10    11    1
    16    12    11    2
    17    12    13    1
    18    14    13    2
    19    14    15    1
    20    13    20    1
