@<TRIPOS>MOLECULE
1qmg_APX_A_1.pdb
 40 43 0 0 0
SMALL
GASTEIGER

@<TRIPOS>ATOM
      1  PM        32.4990   18.1290   10.6120 P.3   600  APX600      0.2189
      2  O6M       33.4090   17.0460   10.1640 O.3   600  APX600     -0.4371
      3  O7M       31.9080   18.9660    9.5720 O.2   600  APX600     -0.5170
      4  O3N       33.2280   19.1220   11.6320 O.3   600  APX600     -0.2703
      5  O5M       31.3430   17.5310   11.5360 O.3   600  APX600     -0.3112
      6  C5M       30.1990   18.3000   11.9800 C.3   600  APX600      0.1813
      7  C4M       29.1950   17.3600   12.6160 C.3   600  APX600      0.1807
      8  O4M       28.8480   16.3800   11.6050 O.3   600  APX600     -0.3237
      9  C3M       29.8050   16.6010   13.7950 C.3   600  APX600      0.2168
     10  O3M       28.7740   16.4060   14.7790 O.3   600  APX600     -0.2175
     11  C2M       30.3160   15.3240   13.1240 C.3   600  APX600      0.2433
     12  O2M       30.5190   14.2320   14.0330 O.3   600  APX600     -0.2148
     13  C1M       29.2290   15.0830   12.0940 C.3   600  APX600      0.3023
     14  O1N       29.6690   14.3080   11.0110 O.3   600  APX600     -0.1869
     15  PA        34.6800   19.2340   12.1450 P.3   600  APX600      0.2189
     16  O6B       34.8690   18.2330   13.1710 O.3   600  APX600     -0.4371
     17  O7B       35.5820   19.1630   10.9820 O.2   600  APX600     -0.5170
     18  O5B       34.6880   20.6440   12.8660 O.3   600  APX600     -0.3112
     19  C5B       35.2600   21.8090   12.2660 C.3   600  APX600      0.1813
     20  C4B       34.1730   22.8620   12.2740 C.3   600  APX600      0.1820
     21  O4B       33.9030   23.1040   13.6570 O.3   600  APX600     -0.3136
     22  C3B       34.7080   24.1590   11.6860 C.3   600  APX600      0.2157
     23  O3B       33.7370   24.8190   10.8840 O.3   600  APX600     -0.2175
     24  C2B       35.0660   25.0040   12.8910 C.3   600  APX600      0.2314
     25  O2B       34.9240   26.4370   12.6580 O.3   600  APX600     -0.2630
     26  C1B       34.0320   24.5010   13.8660 C.3   600  APX600      0.3158
     27  N9A       34.4250   24.7580   15.2350 N.pl3 600  APX600     -0.1439
     28  C4A       33.7690   25.6220   15.9930 C.2   600  APX600      0.3518
     29  N3A       32.6960   26.4290   15.7550 N.2   600  APX600     -0.0055
     30  C2A       32.2530   27.2390   16.7350 C.3   600  APX600      0.5254
     31  N1A       32.8590   27.3070   17.9340 N.2   600  APX600      0.0021
     32  C6A       33.9350   26.5310   18.2140 C.2   600  APX600      0.4393
     33  C5A       34.4570   25.6700   17.1970 C.2   600  APX600      0.2526
     34  N7A       35.4710   24.7860   17.1270 N.2   600  APX600     -0.2095
     35  C8A       35.4430   24.2210   15.9240 C.3   600  APX600      0.3377
     36  N6A       34.5390   26.6200   19.4040 N.pl3 600  APX600      0.2180
     37  P2        35.8320   27.2010   11.7400 P.3   600  APX600      0.5328
     38  OP1       37.2080   26.7750   11.8790 O.3   600  APX600     -0.1145
     39  OP2       35.7380   28.5490   12.1610 O.3   600  APX600     -0.1145
     40  OP3       35.3230   27.0290   10.4040 O.2   600  APX600     -0.2224
@<TRIPOS>BOND
     1     3     1    2
     2     2     1    1
     3    40    37    2
     4     1     5    1
     5     1     4    1
     6    23    22    1
     7    17    15    2
     8    14    13    1
     9     5     6    1
    10     8    13    1
    11     8     7    1
    12     4    15    1
    13    22    20    1
    14    22    24    1
    15    37    38    1
    16    37    39    1
    17    37    25    1
    18     6     7    1
    19    13    11    1
    20    15    18    1
    21    15    16    1
    22    19    20    1
    23    19    18    1
    24    20    21    1
    25     7     9    1
    26    25    24    1
    27    24    26    1
    28    11     9    1
    29    11    12    1
    30    21    26    1
    31     9    10    1
    32    26    27    1
    33    27    35    1
    34    27    28    1
    35    29    28    2
    36    29    30    1
    37    35    34    1
    38    28    33    1
    39    30    31    1
    40    34    33    2
    41    33    32    1
    42    31    32    2
    43    32    36    1
