@<TRIPOS>MOLECULE
1qmg_DMV_A_1.pdb
 10 9 0 0 0
SMALL
GASTEIGER

@<TRIPOS>ATOM
      1  C1        32.6150   11.6430   10.5490 C.2   620  DMV620      0.3971
      2  C2        31.5990   10.6480    9.9990 C.3   620  DMV620      0.2814
      3  C3        32.2390    9.6380    8.9960 C.3   620  DMV620      0.1652
      4  C32       32.7200   10.1920    7.6680 C.3   620  DMV620      0.0362
      5  C4        33.4010    8.8150    9.6900 C.3   620  DMV620      0.0336
      6  C5        34.1570    7.7910    8.9790 C.3   620  DMV620      0.0027
      7  O11       33.2230   12.3730    9.8180 O.co2 620  DMV620     -0.2427
      8  O12       32.8440   11.6770   11.7460 O.co2 620  DMV620     -0.2427
      9  O21       31.1610   10.0780   11.0250 O.3   620  DMV620     -0.2082
     10  O31       31.1910    8.7510    8.6390 O.3   620  DMV620     -0.2225
@<TRIPOS>BOND
     1     4     3    1
     2    10     3    1
     3     6     5    1
     4     3     5    1
     5     3     2    1
     6     7     1   ar
     7     2     1    1
     8     2     9    1
     9     1     8   ar
