@<TRIPOS>MOLECULE
1qmo_MAN_A_1.pdb
 12 12 0 0 0
SMALL
GASTEIGER

@<TRIPOS>ATOM
      1  C1        49.0790  -22.9790   59.1620 C.3   302  MAN302      0.3024
      2  C2        48.8530  -22.9760   57.6470 C.3   302  MAN302      0.2434
      3  C3        50.1340  -23.3930   56.9280 C.3   302  MAN302      0.2199
      4  C4        51.3290  -22.5450   57.3780 C.3   302  MAN302      0.2144
      5  C5        51.4330  -22.4910   58.9020 C.3   302  MAN302      0.1836
      6  C6        52.4580  -21.4720   59.3590 C.3   302  MAN302      0.2142
      7  O1        49.2540  -24.2980   59.6400 O.3   302  MAN302     -0.1869
      8  O2        48.4670  -21.6760   57.2210 O.3   302  MAN302     -0.2148
      9  O3        49.9530  -23.2550   55.5270 O.3   302  MAN302     -0.2174
     10  O4        52.5220  -23.1140   56.8640 O.3   302  MAN302     -0.2176
     11  O5        50.1680  -22.1120   59.4830 O.3   302  MAN302     -0.3236
     12  O6        51.9550  -20.6590   60.4100 O.3   302  MAN302     -0.2176
@<TRIPOS>BOND
     1     9     3    1
     2    10     4    1
     3     3     4    1
     4     3     2    1
     5     8     2    1
     6     4     5    1
     7     2     1    1
     8     5     6    1
     9     5    11    1
    10     1    11    1
    11     1     7    1
    12     6    12    1
