@<TRIPOS>MOLECULE
1qmq_HEM_A_1.pdb
 43 50 0 0 0
SMALL
GASTEIGER

@<TRIPOS>ATOM
      1 FE         -1.0480   14.9980   27.3070 Fe    417  HEM417      0.0000
      2  CHA       -0.0510   16.6200   24.4650 C.2   417  HEM417      0.0000
      3  CHB        2.2060   14.9210   28.4060 C.2   417  HEM417      0.0000
      4  CHC       -2.0600   13.5050   30.2060 C.2   417  HEM417      0.0000
      5  CHD       -4.2600   14.8560   26.1010 C.2   417  HEM417      0.0000
      6  NA         0.7440   15.6250   26.5720 N.2   417  HEM417      0.0000
      7  C1A        0.9460   16.3230   25.4000 C.2   417  HEM417      0.0000
      8  C2A        2.3340   16.6700   25.2730 C.2   417  HEM417      0.0000
      9  C3A        2.9780   16.1660   26.3570 C.2   417  HEM417      0.0000
     10  C4A        1.9710   15.5220   27.1660 C.2   417  HEM417      0.0000
     11  CMA        4.4660   16.2280   26.6790 C.3   417  HEM417      0.0000
     12  CAA        2.9290   17.4890   24.1410 C.3   417  HEM417      0.0000
     13  CBA        3.7080   16.6460   23.1470 C.3   417  HEM417      0.0000
     14  CGA        4.2610   17.4560   21.9890 C.2   417  HEM417      0.0000
     15  O1A        4.6090   18.6360   22.1850 O.co2 417  HEM417      0.0000
     16  O2A        4.3430   16.9070   20.8720 O.co2 417  HEM417      0.0000
     17  NB        -0.0990   14.2770   28.9690 N.ar  417  HEM417      0.0000
     18  C1B        1.2460   14.3460   29.2470 C.ar  417  HEM417      0.0000
     19  C2B        1.5160   13.8070   30.5560 C.ar  417  HEM417      0.0000
     20  C3B        0.3120   13.4120   31.0830 C.ar  417  HEM417      0.0000
     21  C4B       -0.6870   13.7250   30.0730 C.ar  417  HEM417      0.0000
     22  CMB        2.9080   13.7280   31.1750 C.3   417  HEM417      0.0000
     23  CAB        0.0180   12.7810   32.2890 C.3   417  HEM417      0.0000
     24  CBB        0.7630   12.7740   33.4510 C.3   417  HEM417      0.0000
     25  NC        -2.8340   14.2440   27.9960 N.2   417  HEM417      0.0000
     26  C1C       -3.0540   13.7580   29.2540 C.2   417  HEM417      0.0000
     27  C2C       -4.4540   13.5230   29.4590 C.2   417  HEM417      0.0000
     28  C3C       -5.1000   13.8240   28.2980 C.2   417  HEM417      0.0000
     29  C4C       -4.0700   14.3040   27.3800 C.2   417  HEM417      0.0000
     30  CMC       -5.0870   13.1200   30.7900 C.3   417  HEM417      0.0000
     31  CAC       -6.4780   13.6750   28.1380 C.2   417  HEM417      0.0000
     32  CBC       -7.1290   13.5000   26.9500 C.2   417  HEM417      0.0000
     33  ND        -1.9670   15.5820   25.5830 N.ar  417  HEM417      0.0000
     34  C1D       -3.2980   15.4410   25.2740 C.ar  417  HEM417      0.0000
     35  C2D       -3.5710   16.0430   23.9980 C.ar  417  HEM417      0.0000
     36  C3D       -2.3990   16.5800   23.5480 C.ar  417  HEM417      0.0000
     37  C4D       -1.4010   16.2770   24.5440 C.ar  417  HEM417      0.0000
     38  CMD       -4.9090   15.9570   23.2710 C.3   417  HEM417      0.0000
     39  CAD       -2.1450   17.3200   22.2400 C.3   417  HEM417      0.0000
     40  CBD       -1.9310   18.8240   22.3380 C.3   417  HEM417      0.0000
     41  CGD       -1.6180   19.4620   20.9940 C.2   417  HEM417      0.0000
     42  O1D       -1.9880   20.6390   20.7960 O.co2 417  HEM417      0.0000
     43  O2D       -0.9980   18.7900   20.1420 O.co2 417  HEM417      0.0000
@<TRIPOS>BOND
     1    43    41   ar
     2    42    41   ar
     3    16    14   ar
     4    41    40    1
     5    14    15   ar
     6    14    13    1
     7    39    40    1
     8    39    36    1
     9    13    12    1
    10    38    35    1
    11    36    35   ar
    12    36    37   ar
    13    35    34   ar
    14    12     8    1
    15     2    37    2
    16     2     7    1
    17    37    33   ar
    18     8     7    1
    19     8     9    2
    20    34    33   ar
    21    34     5    2
    22     7     6    2
    23    33     1    1
    24     5    29    1
    25     9    11    1
    26     9    10    1
    27     6    10    1
    28     6     1    1
    29    32    31    2
    30    10     3    2
    31     1    25    1
    32     1    17    1
    33    29    25    2
    34    29    28    1
    35    25    26    1
    36    31    28    1
    37    28    27    2
    38     3    18    1
    39    17    18   ar
    40    17    21   ar
    41    18    19   ar
    42    26    27    1
    43    26     4    2
    44    27    30    1
    45    21     4    1
    46    21    20   ar
    47    19    20   ar
    48    19    22    1
    49    20    23    1
    50    23    24    1
