@<TRIPOS>MOLECULE
1qmz_ATP_A_1.pdb
 31 33 0 0 0
SMALL
GASTEIGER

@<TRIPOS>ATOM
      1  PG        37.5270   54.4620    3.8300 P.3   381  ATP381      0.5373
      2  O1G       36.0790   54.0040    3.8240 O.3   381  ATP381     -0.1143
      3  O2G       38.5130   53.6970    2.9710 O.2   381  ATP381     -0.2221
      4  O3G       37.9270   54.1520    5.3140 O.3   381  ATP381     -0.1143
      5  PB        36.9230   57.0060    4.7340 P.3   381  ATP381      0.2277
      6  O1B       35.5110   57.0770    4.2770 O.2   381  ATP381     -0.5168
      7  O2B       37.0600   56.6370    6.1030 O.3   381  ATP381     -0.4368
      8  O3B       37.5990   56.0520    3.6340 O.3   381  ATP381     -0.2258
      9  PA        38.6220   58.8640    3.3590 P.3   381  ATP381      0.2189
     10  O1A       39.6740   59.7670    3.8330 O.3   381  ATP381     -0.4371
     11  O2A       39.3220   57.7570    2.5730 O.2   381  ATP381     -0.5170
     12  O3A       37.6620   58.4000    4.5000 O.3   381  ATP381     -0.2700
     13  O5'       37.6940   59.4410    2.2010 O.3   381  ATP381     -0.3112
     14  C5'       36.5940   58.9740    1.4230 C.3   381  ATP381      0.1813
     15  C4'       36.8050   59.4060   -0.0630 C.3   381  ATP381      0.1821
     16  O4'       36.6700   60.8860   -0.1640 O.3   381  ATP381     -0.3135
     17  C3'       38.2590   59.1990   -0.5300 C.3   381  ATP381      0.2184
     18  O3'       38.3980   57.8580   -1.0280 O.3   381  ATP381     -0.2174
     19  C2'       38.3450   60.1820   -1.7270 C.3   381  ATP381      0.2570
     20  O2'       37.5660   59.6720   -2.8110 O.3   381  ATP381     -0.2130
     21  C1'       37.5300   61.3620   -1.1210 C.3   381  ATP381      0.3186
     22  N9        38.5030   62.2840   -0.5450 N.pl3 381  ATP381     -0.1439
     23  C8        38.9630   62.2830    0.7240 C.3   381  ATP381      0.3377
     24  N7        39.7680   63.2440    0.9320 N.2   381  ATP381     -0.2095
     25  C5        39.8340   63.8980   -0.2150 C.2   381  ATP381      0.2526
     26  C6        40.5520   65.0270   -0.5130 C.2   381  ATP381      0.4393
     27  N6        41.3690   65.6740    0.3590 N.pl3 381  ATP381      0.2180
     28  N1        40.3810   65.4660   -1.8010 N.2   381  ATP381      0.0021
     29  C2        39.5570   64.8010   -2.7010 C.3   381  ATP381      0.5254
     30  N3        38.8310   63.7140   -2.4440 N.2   381  ATP381     -0.0055
     31  C4        39.0890   63.3190   -1.1930 C.2   381  ATP381      0.3518
@<TRIPOS>BOND
     1    20    19    1
     2    29    30    1
     3    29    28    1
     4    30    31    2
     5    28    26    2
     6    19    21    1
     7    19    17    1
     8    31    22    1
     9    31    25    1
    10    21    22    1
    11    21    16    1
    12    18    17    1
    13    22    23    1
    14    17    15    1
    15    26    25    1
    16    26    27    1
    17    25    24    2
    18    16    15    1
    19    15    14    1
    20    23    24    1
    21    14    13    1
    22    13     9    1
    23    11     9    2
    24     3     1    2
    25     9    10    1
    26     9    12    1
    27     8     1    1
    28     8     5    1
    29     2     1    1
    30     1     4    1
    31     6     5    2
    32    12     5    1
    33     5     7    1
