@<TRIPOS>MOLECULE
1qn2_HEC_A_1.pdb
 43 50 0 0 0
SMALL
GASTEIGER

@<TRIPOS>ATOM
      1 FE        -12.2500  -12.3900   -4.2930 Fe    101  HEC101      0.0000
      2  CHA      -11.0800  -10.7990   -1.4890 C.2   101  HEC101      0.0000
      3  CHB      -12.2170  -15.3900   -2.6020 C.2   101  HEC101      0.0000
      4  CHC      -14.0590  -13.8550   -6.8480 C.2   101  HEC101      0.0000
      5  CHD      -11.7780   -9.6210   -6.1500 C.2   101  HEC101      0.0000
      6  NA       -11.7090  -13.0010   -2.3780 N.2   101  HEC101      0.0000
      7  C1A      -11.2820  -12.1670   -1.3660 C.2   101  HEC101      0.0000
      8  C2A      -11.1170  -12.9520   -0.2610 C.2   101  HEC101      0.0000
      9  C3A      -11.4320  -14.2390   -0.5660 C.2   101  HEC101      0.0000
     10  C4A      -11.8060  -14.2720   -1.8920 C.2   101  HEC101      0.0000
     11  CMA      -11.3330  -15.3340    0.4900 C.3   101  HEC101      0.0000
     12  CAA      -10.6470  -12.4920    1.0980 C.3   101  HEC101      0.0000
     13  CBA       -9.1280  -12.6510    1.1750 C.3   101  HEC101      0.0000
     14  CGA       -8.4840  -12.0270    2.4070 C.2   101  HEC101      0.0000
     15  O1A       -9.1460  -11.7460    3.4370 O.co2 101  HEC101      0.0000
     16  O2A       -7.2390  -12.1840    2.5440 O.co2 101  HEC101      0.0000
     17  NB       -12.9670  -14.3010   -4.6930 N.ar  101  HEC101      0.0000
     18  C1B      -12.7930  -15.3730   -3.8570 C.ar  101  HEC101      0.0000
     19  C2B      -13.1880  -16.4860   -4.5630 C.ar  101  HEC101      0.0000
     20  C3B      -13.8050  -16.0700   -5.7200 C.ar  101  HEC101      0.0000
     21  C4B      -13.6010  -14.6990   -5.8330 C.ar  101  HEC101      0.0000
     22  CMB      -13.2130  -17.9490   -4.1510 C.3   101  HEC101      0.0000
     23  CAB      -14.5060  -16.9150   -6.5840 C.3   101  HEC101      0.0000
     24  CBB      -15.7220  -17.4930   -6.2060 C.3   101  HEC101      0.0000
     25  NC       -12.8600  -11.8140   -6.1810 N.2   101  HEC101      0.0000
     26  C1C      -13.5280  -12.5910   -7.0870 C.2   101  HEC101      0.0000
     27  C2C      -13.5530  -11.8700   -8.2600 C.2   101  HEC101      0.0000
     28  C3C      -12.8860  -10.6840   -8.0850 C.2   101  HEC101      0.0000
     29  C4C      -12.4790  -10.6440   -6.7680 C.2   101  HEC101      0.0000
     30  CMC      -14.1010  -12.1540   -9.6480 C.3   101  HEC101      0.0000
     31  CAC      -12.6870   -9.7030   -9.0610 C.3   101  HEC101      0.0000
     32  CBC      -13.7190   -9.1630   -9.8340 C.3   101  HEC101      0.0000
     33  ND       -11.5210  -10.5060   -3.8750 N.ar  101  HEC101      0.0000
     34  C1D      -11.4810   -9.5220   -4.8070 C.ar  101  HEC101      0.0000
     35  C2D      -11.0690   -8.3820   -4.1460 C.ar  101  HEC101      0.0000
     36  C3D      -10.8530   -8.7160   -2.8490 C.ar  101  HEC101      0.0000
     37  C4D      -11.1530  -10.0400   -2.6480 C.ar  101  HEC101      0.0000
     38  CMD      -10.8300   -6.9600   -4.6190 C.3   101  HEC101      0.0000
     39  CAD      -10.4380   -7.7640   -1.7430 C.3   101  HEC101      0.0000
     40  CBD      -11.7990   -7.4040   -1.1160 C.3   101  HEC101      0.0000
     41  CGD      -11.7220   -6.2080   -0.1720 C.2   101  HEC101      0.0000
     42  O1D      -12.8190   -5.7690    0.2710 O.co2 101  HEC101      0.0000
     43  O2D      -10.6370   -5.7320    0.2260 O.co2 101  HEC101      0.0000
@<TRIPOS>BOND
     1    32    31    1
     2    30    27    1
     3    31    28    1
     4    27    28    2
     5    27    26    1
     6    28    29    1
     7    26     4    2
     8    26    25    1
     9     4    21    1
    10    29    25    2
    11    29     5    1
    12    23    24    1
    13    23    20    1
    14    25     1    1
    15     5    34    2
    16    21    20   ar
    17    21    17   ar
    18    20    19   ar
    19    34    35   ar
    20    34    33   ar
    21    17     1    1
    22    17    18   ar
    23    38    35    1
    24    19    22    1
    25    19    18   ar
    26     1    33    1
    27     1     6    1
    28    35    36   ar
    29    33    37   ar
    30    18     3    1
    31    36    37   ar
    32    36    39    1
    33    37     2    2
    34     3    10    2
    35     6    10    1
    36     6     7    2
    37    10     9    1
    38    39    40    1
    39     2     7    1
    40     7     8    1
    41    40    41    1
    42     9     8    2
    43     9    11    1
    44     8    12    1
    45    41    43   ar
    46    41    42   ar
    47    12    13    1
    48    13    14    1
    49    14    16   ar
    50    14    15   ar
