@<TRIPOS>MOLECULE
1qnf_HDF_A_1.pdb
 26 28 0 0 0
SMALL
GASTEIGER

@<TRIPOS>ATOM
      1  N1        42.2290    7.1310   65.3230 N.2   486  HDF486     -0.2915
      2  C2        41.6720    6.0870   66.0160 C.1   486  HDF486      0.3667
      3  O2        41.1340    5.1300   65.4750 O.2   486  HDF486     -0.1744
      4  N3        41.6980    6.2180   67.3710 N.2   486  HDF486     -0.2326
      5  C4        42.2400    7.2810   68.0660 C.1   486  HDF486      0.2212
      6  O4        42.1990    7.2590   69.2890 O.2   486  HDF486     -0.2084
      7  C4A       42.8260    8.2830   67.2280 C.2   486  HDF486      0.1406
      8  C5        43.4480    9.2970   67.8790 C.2   486  HDF486      0.0179
      9  C5A       44.1020   10.2430   67.1730 C.ar  486  HDF486      0.0148
     10  C6        44.7140   11.2290   67.8320 C.ar  486  HDF486      0.0045
     11  C7        45.4060   12.1610   67.1510 C.ar  486  HDF486      0.0421
     12  C8        45.4680   12.0690   65.7910 C.ar  486  HDF486      0.1970
     13  O8        46.2910   12.9140   65.1020 O.3   486  HDF486     -0.2865
     14  C9        44.8430   11.0780   65.1260 C.ar  486  HDF486      0.0569
     15  C9A       44.1440   10.1600   65.8080 C.ar  486  HDF486      0.0569
     16  N10       43.5040    9.1820   65.0960 N.pl3 486  HDF486     -0.2585
     17  C10       42.8640    8.2450   65.8390 C.2   486  HDF486      0.2146
     18  C1'       43.0850    9.3740   63.8370 C.3   486  HDF486      0.1335
     19  C2'       43.8390    8.7530   62.6550 C.3   486  HDF486      0.2048
     20  O2'       44.9930    9.5100   62.3390 O.3   486  HDF486     -0.2185
     21  C3'       43.9460    7.2190   62.4130 C.3   486  HDF486      0.2166
     22  O3'       43.5940    6.3900   63.4970 O.3   486  HDF486     -0.2175
     23  C4'       45.0970    6.5060   61.7240 C.3   486  HDF486      0.2175
     24  O4'       44.7850    6.1820   60.3800 O.3   486  HDF486     -0.2175
     25  C5'       46.5220    6.9280   61.8800 C.3   486  HDF486      0.2175
     26  O5'       47.3860    5.9770   61.2520 O.3   486  HDF486     -0.2175
@<TRIPOS>BOND
     1    24    23    1
     2    26    25    1
     3    23    25    1
     4    23    21    1
     5    20    19    1
     6    21    19    1
     7    21    22    1
     8    19    18    1
     9    18    16    1
    10    16    15    1
    11    16    17    1
    12    13    12    1
    13    14    12   ar
    14    14    15   ar
    15     1    17    2
    16     1     2    2
    17     3     2    2
    18    12    11   ar
    19    15     9   ar
    20    17     7    1
    21     2     4    2
    22    11    10   ar
    23     9    10   ar
    24     9     8    1
    25     7     8    2
    26     7     5    1
    27     4     5    2
    28     5     6    2
