@<TRIPOS>MOLECULE
1qnq_TPT_A_1.pdb
 19 23 0 0 0
SMALL
GASTEIGER

@<TRIPOS>ATOM
      1 PT1         3.2800   13.5100   10.9160 Pt    401  TPT401      0.0000
      2  N1         4.4200   12.0680   11.8440 N.pl3 401  TPT401      0.0000
      3  N2         3.5510   14.2370   12.7440 N.pl3 401  TPT401      0.0000
      4  N3         2.2610   15.2590   10.8000 N.pl3 401  TPT401      0.0000
      5  C1         4.8500   10.9370   11.2660 C.3   401  TPT401      0.0000
      6  C2         5.6510   10.0310   11.9210 C.2   401  TPT401      0.0000
      7  C3         6.0400   10.3080   13.2370 C.2   401  TPT401      0.0000
      8  C4         5.6360   11.4590   13.8220 C.2   401  TPT401      0.0000
      9  C5         4.7720   12.3400   13.1530 C.2   401  TPT401      0.0000
     10  C6         4.2680   13.6180   13.6890 C.3   401  TPT401      0.0000
     11  C7         4.5700   14.1700   14.9170 C.2   401  TPT401      0.0000
     12  C8         4.0090   15.3860   15.2250 C.2   401  TPT401      0.0000
     13  C9         3.2770   16.0680   14.2880 C.2   401  TPT401      0.0000
     14  C10        3.0780   15.4910   13.0430 C.2   401  TPT401      0.0000
     15  C11        2.2950   16.0420   11.9200 C.3   401  TPT401      0.0000
     16  C12        1.6920   17.2970   11.9130 C.2   401  TPT401      0.0000
     17  C13        0.9980   17.7190   10.7970 C.2   401  TPT401      0.0000
     18  C14        0.9480   16.9190    9.6200 C.2   401  TPT401      0.0000
     19  C15        1.6160   15.7010    9.6960 C.2   401  TPT401      0.0000
@<TRIPOS>BOND
     1    18    19    2
     2    18    17    1
     3    19     4    1
     4    17    16    2
     5     4     1    1
     6     4    15    1
     7     1     2    1
     8     1     3    1
     9     5     2    1
    10     5     6    1
    11     2     9    1
    12    16    15    1
    13    15    14    1
    14     6     7    2
    15     3    14    1
    16     3    10    1
    17    14    13    2
    18     9    10    1
    19     9     8    2
    20     7     8    1
    21    10    11    1
    22    13    12    1
    23    11    12    2
