@<TRIPOS>MOLECULE
1qnr_MAB_A_1.pdb
 23 24 0 0 0
SMALL
GASTEIGER

@<TRIPOS>ATOM
      1  C1A        8.0140   10.9390   18.3110 C.3   401  MAB401      0.3023
      2  C2A        7.4850   12.3730   18.5260 C.3   401  MAB401      0.2433
      3  C3A        6.7390   12.9060   17.2810 C.3   401  MAB401      0.2168
      4  C4A        7.6250   12.7500   16.0410 C.3   401  MAB401      0.1804
      5  C5A        8.1220   11.2730   15.9090 C.3   401  MAB401      0.1804
      6  C6A        8.8610   10.9170   14.6440 C.3   401  MAB401      0.2141
      7  O2A        8.5790   13.2480   18.8440 O.3   401  MAB401     -0.2148
      8  O3A        6.5380   14.3240   17.5200 O.3   401  MAB401     -0.2175
      9  O4A        6.9530   13.0380   14.8390 O.3   401  MAB401     -0.3257
     10  O5A        8.8990   11.0010   17.1300 O.3   401  MAB401     -0.3237
     11  O6A       10.2270   11.3060   14.5540 O.3   401  MAB401     -0.2176
     12  C1B        7.0080   14.3690   14.3800 C.3   401  MAB401      0.2695
     13  C2B        6.6340   14.3080   12.8790 C.3   401  MAB401      0.2406
     14  C3B        6.5180   15.7220   12.3040 C.3   401  MAB401      0.2198
     15  C4B        5.6410   16.5910   13.1960 C.3   401  MAB401      0.2144
     16  C5B        6.0470   16.5480   14.6710 C.3   401  MAB401      0.1835
     17  C6B        4.9360   17.1590   15.5990 C.3   401  MAB401      0.2142
     18  O2B        5.3770   13.6390   12.7030 O.3   401  MAB401     -0.2149
     19  O3B        6.0490   15.7460   10.9830 O.3   401  MAB401     -0.2174
     20  O4B        5.7000   17.9280   12.6750 O.3   401  MAB401     -0.2176
     21  O5B        6.0080   15.1380   15.1210 O.3   401  MAB401     -0.3256
     22  O6B        5.6180   17.1510   16.8590 O.3   401  MAB401     -0.2176
     23  O1A        8.8030   10.5570   19.4370 O.3   401  MAB401     -0.1869
@<TRIPOS>BOND
     1    19    14    1
     2    14    13    1
     3    14    15    1
     4    20    15    1
     5    18    13    1
     6    13    12    1
     7    15    16    1
     8    12     9    1
     9    12    21    1
    10    11     6    1
    11     6     5    1
    12    16    21    1
    13    16    17    1
    14     9     4    1
    15    17    22    1
    16     5     4    1
    17     5    10    1
    18     4     3    1
    19    10     1    1
    20     3     8    1
    21     3     2    1
    22     1     2    1
    23     1    23    1
    24     2     7    1
