@<TRIPOS>MOLECULE
1qnu_GAL_A_1.pdb
 11 11 0 0 0
SMALL
GASTEIGER

@<TRIPOS>ATOM
      1  C1        13.9950   14.4850   10.3800 C.3   190  GAL190      0.1777
      2  C2        14.3820   13.3280    9.4440 C.3   190  GAL190      0.2141
      3  C3        13.9970   13.6740    8.0070 C.3   190  GAL190      0.2173
      4  C4        12.4980   13.9570    7.9470 C.3   190  GAL190      0.2142
      5  C5        12.1480   15.0910    8.9280 C.3   190  GAL190      0.1810
      6  C6        10.6590   15.3770    9.0060 C.3   190  GAL190      0.2141
      7  O2        15.7770   13.0710    9.5190 O.3   190  GAL190     -0.2176
      8  O3        14.3230   12.5920    7.1460 O.3   190  GAL190     -0.2175
      9  O4        11.7850   12.7780    8.2900 O.3   190  GAL190     -0.2176
     10  O5        12.5950   14.7560   10.2670 O.3   190  GAL190     -0.3481
     11  O6         9.9510   14.2970    9.5970 O.3   190  GAL190     -0.2176
@<TRIPOS>BOND
     1     8     3    1
     2     4     3    1
     3     4     9    1
     4     4     5    1
     5     3     2    1
     6     5     6    1
     7     5    10    1
     8     6    11    1
     9     2     7    1
    10     2     1    1
    11    10     1    1
