@<TRIPOS>MOLECULE
1qnw_NAG_A_1.pdb
 14 14 0 0 0
SMALL
GASTEIGER

@<TRIPOS>ATOM
      1  C1        79.3730   39.0770   86.1700 C.3   401  NAG401      0.1665
      2  C2        79.4920   40.0050   87.3970 C.3   401  NAG401      0.1576
      3  C3        80.7460   39.6200   88.1840 C.3   401  NAG401      0.2069
      4  C4        80.5800   38.1850   88.6560 C.3   401  NAG401      0.2134
      5  C5        80.3130   37.2590   87.4540 C.3   401  NAG401      0.1809
      6  C6        79.9330   35.8730   87.9270 C.3   401  NAG401      0.2141
      7  C7        78.6790   42.2380   87.6330 C.2   401  NAG401      0.2420
      8  C8        78.7510   43.7020   87.2380 C.3   401  NAG401      0.0964
      9  N2        79.5280   41.4050   87.0400 N.am  401  NAG401     -0.2019
     10  O3        80.9320   40.4850   89.2990 O.3   401  NAG401     -0.2184
     11  O4        81.7530   37.7640   89.3470 O.3   401  NAG401     -0.2176
     12  O5        79.1990   37.7360   86.6470 O.3   401  NAG401     -0.3489
     13  O6        78.7900   35.9220   88.7740 O.3   401  NAG401     -0.2176
     14  O7        77.8280   41.8620   88.4420 O.2   401  NAG401     -0.2733
@<TRIPOS>BOND
     1     1    12    1
     2     1     2    1
     3    12     5    1
     4     9     2    1
     5     9     7   am
     6     8     7    1
     7     2     3    1
     8     5     6    1
     9     5     4    1
    10     7    14    2
    11     6    13    1
    12     3     4    1
    13     3    10    1
    14     4    11    1
