@<TRIPOS>MOLECULE
1qo4_HEM_A_1.pdb
 43 50 0 0 0
SMALL
GASTEIGER

@<TRIPOS>ATOM
      1 FE          1.3770    2.8520    5.3790 Fe    374  HEM374      0.0000
      2  CHA        0.3860   -0.3770    5.8160 C.2   374  HEM374      0.0000
      3  CHB        1.4990    3.2870    8.7650 C.2   374  HEM374      0.0000
      4  CHC        2.1910    6.0850    4.8690 C.2   374  HEM374      0.0000
      5  CHD        1.6280    2.2770    1.9810 C.2   374  HEM374      0.0000
      6  NA         1.0870    1.6860    6.9390 N.2   374  HEM374      0.0000
      7  C1A        0.7180    0.3430    6.9480 C.2   374  HEM374      0.0000
      8  C2A        0.6980   -0.1590    8.3170 C.2   374  HEM374      0.0000
      9  C3A        1.0280    0.8700    9.1400 C.2   374  HEM374      0.0000
     10  C4A        1.2450    2.0160    8.2850 C.2   374  HEM374      0.0000
     11  CMA        1.1720    0.7830   10.6650 C.3   374  HEM374      0.0000
     12  CAA        0.3610   -1.5300    8.8560 C.3   374  HEM374      0.0000
     13  CBA        1.5630   -2.4250    9.0200 C.3   374  HEM374      0.0000
     14  CGA        1.2610   -3.6380    9.8630 C.2   374  HEM374      0.0000
     15  O1A        2.0320   -4.6190    9.7990 O.co2 374  HEM374      0.0000
     16  O2A        0.2580   -3.6090   10.6030 O.co2 374  HEM374      0.0000
     17  NB         1.6870    4.3850    6.5820 N.ar  374  HEM374      0.0000
     18  C1B        1.6750    4.4110    7.9780 C.ar  374  HEM374      0.0000
     19  C2B        1.8080    5.7430    8.4840 C.ar  374  HEM374      0.0000
     20  C3B        1.9940    6.5650    7.4120 C.ar  374  HEM374      0.0000
     21  C4B        1.9320    5.7050    6.2120 C.ar  374  HEM374      0.0000
     22  CMB        1.6990    6.1490    9.9410 C.3   374  HEM374      0.0000
     23  CAB        2.3220    7.9160    7.5030 C.3   374  HEM374      0.0000
     24  CBB        1.8790    8.9850    6.6240 C.3   374  HEM374      0.0000
     25  NC         1.8960    3.9390    3.7650 N.2   374  HEM374      0.0000
     26  C1C        2.2360    5.2590    3.7440 C.2   374  HEM374      0.0000
     27  C2C        2.6620    5.6310    2.4360 C.2   374  HEM374      0.0000
     28  C3C        2.5410    4.5640    1.5960 C.2   374  HEM374      0.0000
     29  C4C        2.0350    3.5270    2.4350 C.2   374  HEM374      0.0000
     30  CMC        3.2390    6.9870    2.1160 C.3   374  HEM374      0.0000
     31  CAC        2.9210    4.4020    0.2620 C.3   374  HEM374      0.0000
     32  CBC        2.9310    5.3960   -0.7900 C.3   374  HEM374      0.0000
     33  ND         1.0050    1.3040    4.1840 N.ar  374  HEM374      0.0000
     34  C1D        1.0990    1.2620    2.7860 C.ar  374  HEM374      0.0000
     35  C2D        0.4400    0.1040    2.2600 C.ar  374  HEM374      0.0000
     36  C3D        0.1140   -0.6590    3.3370 C.ar  374  HEM374      0.0000
     37  C4D        0.4860    0.0840    4.5250 C.ar  374  HEM374      0.0000
     38  CMD        0.0390   -0.1150    0.8080 C.3   374  HEM374      0.0000
     39  CAD       -0.4470   -2.0680    3.2860 C.3   374  HEM374      0.0000
     40  CBD        0.7100   -3.0330    3.1760 C.3   374  HEM374      0.0000
     41  CGD        0.2770   -4.4670    3.3410 C.2   374  HEM374      0.0000
     42  O1D        1.1590   -5.3480    3.4030 O.co2 374  HEM374      0.0000
     43  O2D       -0.9470   -4.7140    3.4080 O.co2 374  HEM374      0.0000
@<TRIPOS>BOND
     1    32    31    1
     2    31    28    1
     3    38    35    1
     4    28    29    1
     5    28    27    2
     6     5    29    1
     7     5    34    2
     8    30    27    1
     9    35    34   ar
    10    35    36   ar
    11    29    25    2
    12    27    26    1
    13    34    33   ar
    14    40    39    1
    15    40    41    1
    16    39    36    1
    17    36    37   ar
    18    41    42   ar
    19    41    43   ar
    20    26    25    1
    21    26     4    2
    22    25     1    1
    23    33    37   ar
    24    33     1    1
    25    37     2    2
    26     4    21    1
    27     1    17    1
    28     1     6    1
    29     2     7    1
    30    21    17   ar
    31    21    20   ar
    32    17    18   ar
    33    24    23    1
    34     6     7    2
    35     6    10    1
    36     7     8    1
    37    20    23    1
    38    20    19   ar
    39    18    19   ar
    40    18     3    1
    41    10     3    2
    42    10     9    1
    43     8    12    1
    44     8     9    2
    45    19    22    1
    46    12    13    1
    47    13    14    1
    48     9    11    1
    49    15    14   ar
    50    14    16   ar
