@<TRIPOS>MOLECULE
1qo8_HEM_A_1.pdb
 43 50 0 0 0
SMALL
GASTEIGER

@<TRIPOS>ATOM
      1 FE         35.7430   71.3850    6.2400 Fe    601  HEM601      0.0000
      2  CHA       32.6920   72.7180    6.5720 C.2   601  HEM601      0.0000
      3  CHB       36.0520   72.7810    3.0680 C.2   601  HEM601      0.0000
      4  CHC       38.9260   70.4200    6.1510 C.2   601  HEM601      0.0000
      5  CHD       35.1530   69.3840    9.0170 C.2   601  HEM601      0.0000
      6  NA        34.5770   72.5410    5.0490 N.ar  601  HEM601      0.0000
      7  C1A       33.3150   73.0210    5.3910 C.ar  601  HEM601      0.0000
      8  C2A       32.8930   73.9130    4.3240 C.ar  601  HEM601      0.0000
      9  C3A       33.8180   73.9340    3.3750 C.ar  601  HEM601      0.0000
     10  C4A       34.8740   73.0090    3.7970 C.ar  601  HEM601      0.0000
     11  CMA       33.8690   74.6710    2.0150 C.3   601  HEM601      0.0000
     12  CAA       31.5160   74.6530    4.3120 C.3   601  HEM601      0.0000
     13  CBA       31.5910   76.1000    4.8370 C.3   601  HEM601      0.0000
     14  CGA       31.8150   76.0910    6.3310 C.2   601  HEM601      0.0000
     15  O1A       32.9070   76.6370    6.7030 O.co2 601  HEM601      0.0000
     16  O2A       30.9460   75.5630    7.0940 O.co2 601  HEM601      0.0000
     17  NB        37.2090   71.5590    4.8560 N.2   601  HEM601      0.0000
     18  C1B       37.1960   72.2980    3.6910 C.2   601  HEM601      0.0000
     19  C2B       38.5580   72.3970    3.1840 C.2   601  HEM601      0.0000
     20  C3B       39.3310   71.7800    4.0580 C.2   601  HEM601      0.0000
     21  C4B       38.5290   71.2410    5.1240 C.2   601  HEM601      0.0000
     22  CMB       38.8820   73.1570    1.9080 C.3   601  HEM601      0.0000
     23  CAB       40.9140   71.6700    4.1400 C.2   601  HEM601      0.0000
     24  CBB       41.6940   72.5710    3.5360 C.2   601  HEM601      0.0000
     25  NC        36.8300   70.0880    7.3300 N.ar  601  HEM601      0.0000
     26  C1C       38.1750   69.8440    7.1480 C.ar  601  HEM601      0.0000
     27  C2C       38.6330   69.0100    8.2530 C.ar  601  HEM601      0.0000
     28  C3C       37.5930   68.7690    9.0460 C.ar  601  HEM601      0.0000
     29  C4C       36.4420   69.4350    8.4860 C.ar  601  HEM601      0.0000
     30  CMC       40.0900   68.5420    8.3370 C.3   601  HEM601      0.0000
     31  CAC       37.4780   67.9910   10.4070 C.2   601  HEM601      0.0000
     32  CBC       38.4430   68.0080   11.3220 C.2   601  HEM601      0.0000
     33  ND        34.2110   71.0820    7.5500 N.2   601  HEM601      0.0000
     34  C1D       34.1570   70.2390    8.6230 C.2   601  HEM601      0.0000
     35  C2D       32.8600   70.3900    9.3160 C.2   601  HEM601      0.0000
     36  C3D       32.1950   71.3160    8.6460 C.2   601  HEM601      0.0000
     37  C4D       33.0010   71.7770    7.5340 C.2   601  HEM601      0.0000
     38  CMD       32.4620   69.5750   10.5640 C.3   601  HEM601      0.0000
     39  CAD       30.7490   71.8620    8.9280 C.3   601  HEM601      0.0000
     40  CBD       29.7420   71.3060    7.9520 C.3   601  HEM601      0.0000
     41  CGD       28.2720   71.7900    8.0440 C.2   601  HEM601      0.0000
     42  O1D       27.7350   71.9320    9.1590 O.co2 601  HEM601      0.0000
     43  O2D       27.6460   72.0200    6.9900 O.co2 601  HEM601      0.0000
@<TRIPOS>BOND
     1    22    19    1
     2    11     9    1
     3     3    18    1
     4     3    10    2
     5    19    18    1
     6    19    20    2
     7     9    10   ar
     8     9     8   ar
     9    24    23    2
    10    18    17    2
    11    10     6   ar
    12    20    23    1
    13    20    21    1
    14    12     8    1
    15    12    13    1
    16     8     7   ar
    17    13    14    1
    18    17    21    1
    19    17     1    1
    20     6     7   ar
    21     6     1    1
    22    21     4    2
    23     7     2    2
    24     4    26    1
    25     1    25    1
    26     1    33    1
    27    14    15   ar
    28    14    16   ar
    29     2    37    1
    30    43    41   ar
    31    26    25   ar
    32    26    27   ar
    33    25    29   ar
    34    37    33    2
    35    37    36    1
    36    33    34    1
    37    40    41    1
    38    40    39    1
    39    41    42   ar
    40    27    30    1
    41    27    28   ar
    42    29     5    1
    43    29    28   ar
    44    34     5    2
    45    34    35    1
    46    36    39    1
    47    36    35    2
    48    28    31    1
    49    35    38    1
    50    31    32    2
