@<TRIPOS>MOLECULE
1qo9_BMA_A_1.pdb
 11 11 0 0 0
SMALL
GASTEIGER

@<TRIPOS>ATOM
      1  C1        37.9900   56.6970  -11.5500 C.3   996  BMA996      0.1777
      2  C2        37.5030   57.9450  -12.3050 C.3   996  BMA996      0.2141
      3  C3        36.0520   57.8380  -12.7880 C.3   996  BMA996      0.2173
      4  C4        35.0980   57.3590  -11.6800 C.3   996  BMA996      0.2142
      5  C5        35.8710   56.9620  -10.4170 C.3   996  BMA996      0.1810
      6  C6        35.0270   56.2340   -9.3870 C.3   996  BMA996      0.2141
      7  O2        38.3460   58.1860  -13.4190 O.3   996  BMA996     -0.2176
      8  O3        35.9350   57.0280  -13.9900 O.3   996  BMA996     -0.2175
      9  O4        34.1950   58.4080  -11.3640 O.3   996  BMA996     -0.2176
     10  O5        36.9570   56.0880  -10.7710 O.3   996  BMA996     -0.3481
     11  O6        33.6470   56.2670   -9.7270 O.3   996  BMA996     -0.2176
@<TRIPOS>BOND
     1     8     3    1
     2     7     2    1
     3     3     2    1
     4     3     4    1
     5     2     1    1
     6     4     9    1
     7     4     5    1
     8     1    10    1
     9    10     5    1
    10     5     6    1
    11    11     6    1
