@<TRIPOS>MOLECULE
1qom_HEM_A_1.pdb
 43 50 0 0 0
SMALL
GASTEIGER

@<TRIPOS>ATOM
      1 FE        123.8420  111.2120   28.2270 Fe    901  HEM901      0.0000
      2  CHA      121.2930  110.3750   30.3060 C.2   901  HEM901      0.0000
      3  CHB      122.3620  114.2030   27.5710 C.2   901  HEM901      0.0000
      4  CHC      126.6780  112.3770   26.7260 C.2   901  HEM901      0.0000
      5  CHD      125.3900  108.3120   28.9310 C.2   901  HEM901      0.0000
      6  NA       122.1250  112.0860   28.7930 N.ar  901  HEM901      0.0000
      7  C1A      121.2440  111.6320   29.7200 C.ar  901  HEM901      0.0000
      8  C2A      120.2380  112.6180   29.9710 C.ar  901  HEM901      0.0000
      9  C3A      120.4800  113.6700   29.1600 C.ar  901  HEM901      0.0000
     10  C4A      121.6830  113.3330   28.4280 C.ar  901  HEM901      0.0000
     11  CMA      119.6420  114.9250   28.9940 C.3   901  HEM901      0.0000
     12  CAA      119.1870  112.4930   31.0220 C.3   901  HEM901      0.0000
     13  CBA      119.7700  112.8820   32.3630 C.3   901  HEM901      0.0000
     14  CGA      118.7440  112.8380   33.4710 C.2   901  HEM901      0.0000
     15  O1A      119.0920  112.3850   34.5750 O.co2 901  HEM901      0.0000
     16  O2A      117.5880  113.2530   33.2470 O.co2 901  HEM901      0.0000
     17  NB       124.3900  112.9170   27.2360 N.2   901  HEM901      0.0000
     18  C1B      123.6090  114.0070   27.0030 C.2   901  HEM901      0.0000
     19  C2B      124.3090  114.9790   26.2140 C.2   901  HEM901      0.0000
     20  C3B      125.5670  114.4950   25.9960 C.2   901  HEM901      0.0000
     21  C4B      125.5910  113.1970   26.6480 C.2   901  HEM901      0.0000
     22  CMB      123.7240  116.2760   25.6780 C.3   901  HEM901      0.0000
     23  CAB      126.6210  115.2010   25.4220 C.2   901  HEM901      0.0000
     24  CBB      127.4370  114.8010   24.3960 C.2   901  HEM901      0.0000
     25  NC       125.6990  110.5080   27.9390 N.ar  901  HEM901      0.0000
     26  C1C      126.7420  111.1500   27.3430 C.ar  901  HEM901      0.0000
     27  C2C      127.9440  110.3390   27.3630 C.ar  901  HEM901      0.0000
     28  C3C      127.5860  109.1380   27.9680 C.ar  901  HEM901      0.0000
     29  C4C      126.1660  109.2800   28.3010 C.ar  901  HEM901      0.0000
     30  CMC      129.2960  110.8240   26.8210 C.3   901  HEM901      0.0000
     31  CAC      128.3610  108.0050   28.2460 C.3   901  HEM901      0.0000
     32  CBC      129.5530  107.6080   27.6480 C.3   901  HEM901      0.0000
     33  ND       123.3400  109.5690   29.2560 N.2   901  HEM901      0.0000
     34  C1D      124.0770  108.4270   29.3710 C.2   901  HEM901      0.0000
     35  C2D      123.4180  107.4660   30.2360 C.2   901  HEM901      0.0000
     36  C3D      122.3210  108.0810   30.6840 C.2   901  HEM901      0.0000
     37  C4D      122.2610  109.3950   30.0780 C.2   901  HEM901      0.0000
     38  CMD      123.8240  106.0470   30.5630 C.3   901  HEM901      0.0000
     39  CAD      121.3830  107.4870   31.6660 C.3   901  HEM901      0.0000
     40  CBD      121.4030  108.2360   32.9690 C.3   901  HEM901      0.0000
     41  CGD      120.5890  107.5400   34.0460 C.2   901  HEM901      0.0000
     42  O1D      120.4810  108.0810   35.1670 O.co2 901  HEM901      0.0000
     43  O2D      120.0590  106.4400   33.7800 O.co2 901  HEM901      0.0000
@<TRIPOS>BOND
     1    24    23    2
     2    23    20    1
     3    22    19    1
     4    20    19    2
     5    20    21    1
     6    19    18    1
     7    21     4    2
     8    21    17    1
     9     4    26    1
    10    30    27    1
    11    18    17    2
    12    18     3    1
    13    17     1    1
    14    26    27   ar
    15    26    25   ar
    16    27    28   ar
    17     3    10    2
    18    32    31    1
    19    25     1    1
    20    25    29   ar
    21    28    31    1
    22    28    29   ar
    23     1     6    1
    24     1    33    1
    25    29     5    1
    26    10     6   ar
    27    10     9   ar
    28     6     7   ar
    29     5    34    2
    30    11     9    1
    31     9     8   ar
    32    33    34    1
    33    33    37    2
    34    34    35    1
    35     7     8   ar
    36     7     2    2
    37     8    12    1
    38    37     2    1
    39    37    36    1
    40    35    38    1
    41    35    36    2
    42    36    39    1
    43    12    13    1
    44    39    40    1
    45    13    14    1
    46    40    41    1
    47    16    14   ar
    48    14    15   ar
    49    43    41   ar
    50    41    42   ar
