@<TRIPOS>MOLECULE
1qom_H4B_A_1.pdb
 17 18 0 0 0
SMALL
GASTEIGER

@<TRIPOS>ATOM
      1  N1       113.2640  111.6820   32.2140 N.2   902  H4B902     -0.2672
      2  C2       114.4510  112.2300   32.4860 C.1   902  H4B902      0.2609
      3  N2       115.1690  112.7270   31.4850 N.pl3 902  H4B902     -0.0220
      4  N3       114.9280  112.2920   33.7380 N.2   902  H4B902     -0.2466
      5  C4       114.2200  111.8030   34.7570 C.1   902  H4B902      0.2569
      6  O4       114.6580  111.7530   35.9100 O.2   902  H4B902     -0.2052
      7  C4A      112.9180  111.3140   34.5370 C.2   902  H4B902      0.2989
      8  C8A      112.4460  111.3060   33.1990 C.1   902  H4B902      0.1401
      9  N5       112.1610  110.8670   35.5330 N.2   902  H4B902     -0.3830
     10  N8       111.1940  110.9200   32.9260 N.2   902  H4B902     -0.1992
     11  C6       110.9380  110.1570   35.2230 C.2   902  H4B902      0.1466
     12  C7       110.3490  110.4800   33.9350 C.3   902  H4B902      0.1940
     13  C9       110.1550  109.7320   36.4740 C.3   902  H4B902      0.2313
     14  O9       109.7640  110.8910   37.2200 O.3   902  H4B902     -0.2130
     15  C10      108.9300  108.8500   36.1970 C.3   902  H4B902      0.1888
     16  C11      108.2530  108.4470   37.5000 C.3   902  H4B902      0.0387
     17  O10      109.3420  107.6790   35.4810 O.3   902  H4B902     -0.2200
@<TRIPOS>BOND
     1     3     2    1
     2     1     2    2
     3     1     8    2
     4     2     4    2
     5    10     8    2
     6    10    12    1
     7     8     7    1
     8     4     5    2
     9    12    11    1
    10     7     5    1
    11     7     9    2
    12     5     6    2
    13    11     9    2
    14    11    13    1
    15    17    15    1
    16    15    13    1
    17    15    16    1
    18    13    14    1
