@<TRIPOS>MOLECULE
1qon_BMA_A_1.pdb
 11 11 0 0 0
SMALL
GASTEIGER

@<TRIPOS>ATOM
      1  C1        38.1210   57.0380  -11.0800 C.3   996  BMA996      0.1777
      2  C2        37.7070   55.5960  -11.4450 C.3   996  BMA996      0.2141
      3  C3        36.1730   55.5250  -11.3630 C.3   996  BMA996      0.2173
      4  C4        35.5700   56.9410  -11.3230 C.3   996  BMA996      0.2142
      5  C5        36.2480   57.8300  -12.3710 C.3   996  BMA996      0.1810
      6  C6        35.6840   59.2340  -12.4190 C.3   996  BMA996      0.2141
      7  O2        38.2730   54.6500  -10.5560 O.3   996  BMA996     -0.2176
      8  O3        35.7940   54.8220  -10.1880 O.3   996  BMA996     -0.2175
      9  O4        34.1780   56.8920  -11.5540 O.3   996  BMA996     -0.2176
     10  O5        37.6560   57.9440  -12.0760 O.3   996  BMA996     -0.3481
     11  O6        34.6240   59.3270  -13.3600 O.3   996  BMA996     -0.2176
@<TRIPOS>BOND
     1    11     6    1
     2     6     5    1
     3     5    10    1
     4     5     4    1
     5    10     1    1
     6     9     4    1
     7     2     3    1
     8     2     1    1
     9     2     7    1
    10     3     4    1
    11     3     8    1
