@<TRIPOS>MOLECULE
1qon_I40_A_1.pdb
 23 26 0 0 0
SMALL
GASTEIGER

@<TRIPOS>ATOM
      1  C1        31.8800   63.6290    9.8680 C.3   997  I40997      0.0548
      2  C2        30.8340   63.6860    8.7470 C.3   997  I40997      0.0071
      3  C3        30.2550   64.9410    8.5700 C.3   997  I40997      0.0012
      4  C4        31.2030   66.2100    8.4080 C.3   997  I40997      0.0123
      5  C5        33.6250   67.0380    9.2530 C.2   997  I40997      0.0482
      6  C6        35.9450   67.7160   10.1380 C.2   997  I40997     -0.0138
      7  C7        37.1020   67.4270   10.8440 C.2   997  I40997     -0.0037
      8  C8        37.2140   66.1450   11.4450 C.2   997  I40997      0.0020
      9  C9        36.2670   65.2160   11.3640 C.2   997  I40997      0.0282
     10  N1        34.0400   64.5160   10.5460 N.2   997  I40997     -0.4138
     11  C10       32.9550   64.7550    9.9000 C.2   997  I40997      0.0911
     12  C11       32.5750   65.9610    9.1820 C.3   997  I40997      0.0844
     13  C12       34.8840   66.8410    9.9730 C.3   997  I40997      0.1101
     14  C13       35.0370   65.4680   10.6350 C.2   997  I40997      0.1171
     15  N2        33.1870   68.1090    8.6030 N.2   997  I40997     -0.2730
     16  I1        28.9990   71.0380   10.6010 I     997  I40997     -0.0425
     17  C14       33.7980   69.4540    8.4450 C.3   997  I40997      0.1511
     18  C15       33.0450   70.2770    9.5330 C.ar  997  I40997      0.0024
     19  C16       31.6720   70.2820    9.5570 C.ar  997  I40997      0.0034
     20  C17       31.0360   70.9770   10.5100 C.ar  997  I40997      0.0298
     21  C18       31.6910   71.7060   11.4950 C.ar  997  I40997      0.0058
     22  C19       33.0330   71.7230   11.5060 C.ar  997  I40997      0.0002
     23  C20       33.7830   71.0070   10.5230 C.ar  997  I40997     -0.0023
@<TRIPOS>BOND
     1     4     3    1
     2     4    12    1
     3    17    15    1
     4    17    18    1
     5     3     2    1
     6    15     5    2
     7     2     1    1
     8    12     5    1
     9    12    11    1
    10     5    13    1
    11    18    19   ar
    12    18    23   ar
    13    19    20   ar
    14     1    11    1
    15    11    10    2
    16    13     6    1
    17    13    14    1
    18     6     7    2
    19    20    16    1
    20    20    21   ar
    21    23    22   ar
    22    10    14    2
    23    14     9    1
    24     7     8    1
    25     9     8    2
    26    21    22   ar
