@<TRIPOS>MOLECULE
1qoo_NAG_A_1.pdb
 14 14 0 0 0
SMALL
GASTEIGER

@<TRIPOS>ATOM
      1  C1        78.7900   39.1160   86.0230 C.3   401  NAG401      0.1665
      2  C2        78.8340   40.1250   87.1810 C.3   401  NAG401      0.1576
      3  C3        80.1120   39.8930   87.9800 C.3   401  NAG401      0.2069
      4  C4        80.0210   38.4990   88.5610 C.3   401  NAG401      0.2134
      5  C5        79.8480   37.4600   87.4330 C.3   401  NAG401      0.1809
      6  C6        79.5320   36.1020   88.0210 C.3   401  NAG401      0.2141
      7  C7        78.0410   42.3640   87.4500 C.2   401  NAG401      0.2420
      8  C8        77.9810   43.7950   86.9600 C.3   401  NAG401      0.0964
      9  N2        78.7540   41.4990   86.7330 N.am  401  NAG401     -0.2019
     10  O3        80.2380   40.8520   89.0240 O.3   401  NAG401     -0.2184
     11  O4        81.1850   38.2170   89.3290 O.3   401  NAG401     -0.2176
     12  O5        78.7250   37.7910   86.5690 O.3   401  NAG401     -0.3489
     13  O6        78.2490   36.1070   88.6390 O.3   401  NAG401     -0.2176
     14  O7        77.4340   42.0430   88.4750 O.2   401  NAG401     -0.2733
@<TRIPOS>BOND
     1     1    12    1
     2     1     2    1
     3    12     5    1
     4     9     2    1
     5     9     7   am
     6     8     7    1
     7     2     3    1
     8     5     6    1
     9     5     4    1
    10     7    14    2
    11     3     4    1
    12     3    10    1
    13     6    13    1
    14     4    11    1
