@<TRIPOS>MOLECULE
1qop_PLP_B_1.pdb
 15 15 0 0 0
SMALL
GASTEIGER

@<TRIPOS>ATOM
      1  N1        84.2180   13.6980   11.9290 N.ar  500  PLP500     -0.2452
      2  C2        84.1070   14.0820   10.6340 C.ar  500  PLP500      0.0978
      3  C2A       85.3630   13.9190    9.7810 C.3   500  PLP500      0.0555
      4  C3        82.9010   14.5540   10.1990 C.ar  500  PLP500      0.2049
      5  O3        82.8520   14.8930    8.8770 O.3   500  PLP500     -0.2857
      6  C4        81.8030   14.7030   11.0070 C.ar  500  PLP500      0.0182
      7  C4A       80.4600   15.2420   10.4730 C.3   500  PLP500      0.0342
      8  C5        81.9210   14.3450   12.3430 C.ar  500  PLP500      0.0261
      9  C6        83.1410   13.8670   12.7390 C.ar  500  PLP500      0.0965
     10  C5A       80.8480   14.4920   13.4030 C.3   500  PLP500      0.1815
     11  O4P       79.6460   13.7990   13.1780 O.3   500  PLP500     -0.2653
     12  P         79.3270   12.4720   13.9170 P.3   500  PLP500      0.5329
     13  O1P       77.9440   12.1790   13.4540 O.2   500  PLP500     -0.2224
     14  O2P       79.3680   12.7910   15.3750 O.3   500  PLP500     -0.1145
     15  O3P       80.2830   11.4360   13.5290 O.3   500  PLP500     -0.1145
@<TRIPOS>BOND
     1     5     4    1
     2     3     2    1
     3     4     2   ar
     4     4     6   ar
     5     7     6    1
     6     2     1   ar
     7     6     8   ar
     8     1     9   ar
     9     8     9   ar
    10     8    10    1
    11    11    10    1
    12    11    12    1
    13    13    12    2
    14    15    12    1
    15    12    14    1
