@<TRIPOS>MOLECULE
1qop_IPL_A_1.pdb
 17 18 0 0 0
SMALL
GASTEIGER

@<TRIPOS>ATOM
      1  N1        51.6390   27.4140   15.1860 N.2   300  IPL300     -0.2482
      2  C2        50.4570   28.1260   15.1500 C.2   300  IPL300      0.0906
      3  C3        49.3850   27.2940   15.0320 C.2   300  IPL300     -0.0158
      4  C4        49.3380   24.7030   14.8700 C.2   300  IPL300     -0.0164
      5  C5        50.1670   23.5940   14.8300 C.2   300  IPL300     -0.0038
      6  C6        51.5540   23.7190   14.9110 C.2   300  IPL300      0.0009
      7  C7        52.1640   24.9480   15.0190 C.2   300  IPL300      0.0153
      8  C8        51.3330   26.0740   15.0640 C.2   300  IPL300      0.0665
      9  C9        49.9310   25.9700   14.9800 C.3   300  IPL300      0.0819
     10  C1'       47.9870   28.5510   12.5220 C.3   300  IPL300      0.1541
     11  C2'       47.5760   27.3970   13.4000 C.3   300  IPL300      0.0371
     12  C3'       47.9260   27.6310   14.8860 C.3   300  IPL300      0.0269
     13  P         48.2400   29.3940   10.0390 P.3   300  IPL300      0.5326
     14  O1P       49.3710   30.2350   10.5280 O.3   300  IPL300     -0.1145
     15  O2P       46.9370   30.1540   10.0360 O.3   300  IPL300     -0.1145
     16  O3P       48.4740   28.6180    8.7790 O.2   300  IPL300     -0.2224
     17  O4P       48.0080   28.1990   11.1260 O.3   300  IPL300     -0.2702
@<TRIPOS>BOND
     1    16    13    2
     2    15    13    1
     3    13    14    1
     4    13    17    1
     5    17    10    1
     6    10    11    1
     7    11    12    1
     8     5     4    2
     9     5     6    1
    10     4     9    1
    11    12     3    1
    12     6     7    2
    13     9     3    1
    14     9     8    1
    15     7     8    1
    16     3     2    2
    17     8     1    2
    18     2     1    1
