@<TRIPOS>MOLECULE
1qoq_IGP_A_1.pdb
 19 20 0 0 0
SMALL
GASTEIGER

@<TRIPOS>ATOM
      1  C1        47.9530   28.4890   12.3860 C.3   300  IGP300      0.1895
      2  P         48.2600   29.4160    9.9800 P.3   300  IGP300      0.5327
      3  OP1       49.4690   30.2400   10.5050 O.3   300  IGP300     -0.1145
      4  OP2       46.9540   30.3720   10.0250 O.3   300  IGP300     -0.1145
      5  OP3       48.3940   28.8980    8.5690 O.2   300  IGP300     -0.2224
      6  OP4       47.9270   28.1200   10.9150 O.3   300  IGP300     -0.2674
      7  C2        49.3110   27.9630   12.9170 C.3   300  IGP300      0.2163
      8  O2        50.4300   28.7510   12.5250 O.3   300  IGP300     -0.2173
      9  C3        49.2390   28.1120   14.5250 C.3   300  IGP300      0.2084
     10  O3        48.0700   27.3500   14.9440 O.3   300  IGP300     -0.2154
     11  CG        50.5620   27.3890   14.8720 C.2   300  IGP300      0.0306
     12  CD2       50.8700   25.9680   14.8090 C.2   300  IGP300      0.0138
     13  CE2       52.2250   25.8700   15.1640 C.2   300  IGP300      0.0632
     14  CE3       50.1620   24.7260   14.5350 C.2   300  IGP300      0.0007
     15  CD1       51.6720   28.0750   15.2070 C.2   300  IGP300      0.0967
     16  NE1       52.6670   27.0780   15.3830 N.2   300  IGP300     -0.2481
     17  CZ2       52.9190   24.6560   15.2430 C.3   300  IGP300      0.0717
     18  CZ3       50.8910   23.4760   14.6210 C.2   300  IGP300     -0.0042
     19  CH2       52.2460   23.4490   14.9680 C.2   300  IGP300     -0.0198
@<TRIPOS>BOND
     1     5     2    2
     2     2     4    1
     3     2     3    1
     4     2     6    1
     5     6     1    1
     6     1     7    1
     7     8     7    1
     8     7     9    1
     9     9    11    1
    10     9    10    1
    11    14    18    1
    12    14    12    2
    13    18    19    2
    14    12    11    1
    15    12    13    1
    16    11    15    2
    17    19    17    1
    18    13    17    1
    19    13    16    2
    20    15    16    1
