@<TRIPOS>MOLECULE
1qoq_PLP_B_1.pdb
 15 15 0 0 0
SMALL
GASTEIGER

@<TRIPOS>ATOM
      1  N1        84.5490   13.7510   12.0440 N.ar  500  PLP500     -0.2452
      2  C2        84.5440   14.1150   10.7270 C.ar  500  PLP500      0.0978
      3  C2A       85.8070   14.0320    9.8900 C.3   500  PLP500      0.0555
      4  C3        83.3600   14.6390   10.2400 C.ar  500  PLP500      0.2049
      5  O3        83.3110   14.9920    8.9240 O.3   500  PLP500     -0.2857
      6  C4        82.2810   14.7050   11.0840 C.ar  500  PLP500      0.0182
      7  C4A       80.9670   15.2540   10.4970 C.3   500  PLP500      0.0342
      8  C5        82.2620   14.3160   12.4020 C.ar  500  PLP500      0.0261
      9  C6        83.4500   13.8550   12.8460 C.ar  500  PLP500      0.0965
     10  C5A       81.0970   14.5140   13.3460 C.3   500  PLP500      0.1815
     11  O4P       79.8980   13.8120   13.2420 O.3   500  PLP500     -0.2653
     12  P         79.6570   12.4520   13.9390 P.3   500  PLP500      0.5329
     13  O1P       78.2580   12.2370   13.4500 O.2   500  PLP500     -0.2224
     14  O2P       79.7500   12.6790   15.3870 O.3   500  PLP500     -0.1145
     15  O3P       80.6340   11.4890   13.4510 O.3   500  PLP500     -0.1145
@<TRIPOS>BOND
     1     5     4    1
     2     3     2    1
     3     4     2   ar
     4     4     6   ar
     5     7     6    1
     6     2     1   ar
     7     6     8   ar
     8     1     9   ar
     9     8     9   ar
    10     8    10    1
    11    11    10    1
    12    11    12    1
    13    13    12    2
    14    15    12    1
    15    12    14    1
