@<TRIPOS>MOLECULE
1qor_NAP_A_1.pdb
 48 52 0 0 0
SMALL
GASTEIGER

@<TRIPOS>ATOM
      1  PA        57.0770   55.4310  -11.2470 P.3   350  NAP350      0.2189
      2  O1A       57.8560   56.6940  -11.3120 O.2   350  NAP350     -0.5170
      3  O2A       57.5950   54.3210  -10.4040 O.3   350  NAP350     -0.4371
      4  O5B       56.7310   54.9220  -12.6700 O.3   350  NAP350     -0.3112
      5  C5B       56.2130   53.6430  -12.9250 C.3   350  NAP350      0.1813
      6  C4B       57.3500   52.7160  -13.2320 C.3   350  NAP350      0.1820
      7  O4B       56.7130   51.4460  -13.1910 O.3   350  NAP350     -0.3136
      8  C3B       57.9790   52.8080  -14.6290 C.3   350  NAP350      0.2157
      9  O3B       59.0050   53.8360  -14.6340 O.3   350  NAP350     -0.2175
     10  C2B       58.3720   51.3650  -14.9080 C.3   350  NAP350      0.2314
     11  O2B       59.7180   51.1840  -14.4870 O.3   350  NAP350     -0.2630
     12  C1B       57.3450   50.5060  -14.0480 C.3   350  NAP350      0.3158
     13  N9A       56.5290   49.7970  -15.0460 N.pl3 350  NAP350     -0.1439
     14  C8A       56.4790   48.4840  -15.2740 C.3   350  NAP350      0.3377
     15  N7A       55.6530   48.2320  -16.2970 N.2   350  NAP350     -0.2095
     16  C5A       55.2160   49.4140  -16.6710 C.2   350  NAP350      0.2526
     17  C6A       54.3490   49.6470  -17.7310 C.2   350  NAP350      0.4393
     18  N6A       53.8530   48.6760  -18.4880 N.pl3 350  NAP350      0.2180
     19  N1A       54.0460   50.9260  -17.9570 N.2   350  NAP350      0.0021
     20  C2A       54.5430   51.9500  -17.2090 C.3   350  NAP350      0.5254
     21  N3A       55.3800   51.7130  -16.1960 N.2   350  NAP350     -0.0055
     22  C4A       55.7370   50.4250  -15.9190 C.2   350  NAP350      0.3518
     23  O3        55.7060   55.9040  -10.5950 O.3   350  NAP350     -0.2703
     24  PN        55.2420   56.4020   -9.1690 P.3   350  NAP350      0.2189
     25  O1N       56.3880   56.4860   -8.1930 O.3   350  NAP350     -0.4371
     26  O2N       54.3450   57.6050   -9.3520 O.2   350  NAP350     -0.5170
     27  O5D       54.2820   55.1260   -8.7660 O.3   350  NAP350     -0.3112
     28  C5D       54.7110   53.7730   -8.7030 C.3   350  NAP350      0.1813
     29  C4D       53.5530   52.8500   -8.5180 C.3   350  NAP350      0.1799
     30  O4D       53.0140   52.9810   -7.1830 O.3   350  NAP350     -0.3327
     31  C3D       52.4000   53.1150   -9.4790 C.3   350  NAP350      0.2158
     32  O3D       51.8550   51.8760   -9.9430 O.3   350  NAP350     -0.2175
     33  C2D       51.4070   53.8720   -8.5700 C.3   350  NAP350      0.2309
     34  O2D       50.0890   53.7820   -9.0500 O.3   350  NAP350     -0.2158
     35  C1D       51.5440   53.1700   -7.2500 C.3   350  NAP350      0.2263
     36  N1N       51.3040   53.8880   -5.9690 N.pl3 350  NAP350     -0.2787
     37  C2N       50.5090   53.3100   -5.0110 C.3   350  NAP350      0.1244
     38  C3N       50.3090   53.9910   -3.8230 C.2   350  NAP350      0.0544
     39  C7N       49.4670   53.3790   -2.7110 C.2   350  NAP350      0.2818
     40  O7N       49.3200   53.9530   -1.6380 O.2   350  NAP350     -0.2670
     41  N7N       48.9360   52.2100   -3.0020 N.am  350  NAP350     -0.0839
     42  C4N       50.8930   55.2230   -3.5810 C.2   350  NAP350      0.0033
     43  C5N       51.7040   55.7960   -4.5690 C.2   350  NAP350      0.0157
     44  C6N       51.8930   55.1190   -5.7620 C.2   350  NAP350      0.0633
     45  P2B       60.6960   50.0450  -15.2070 P.3   350  NAP350      0.5328
     46  O1X       61.8870   49.9800  -14.3330 O.3   350  NAP350     -0.1145
     47  O2X       59.9170   48.8000  -15.2120 O.3   350  NAP350     -0.1145
     48  O3X       60.9280   50.5980  -16.5550 O.2   350  NAP350     -0.2224
@<TRIPOS>BOND
     1    18    17    1
     2    19    17    2
     3    19    20    1
     4    17    16    1
     5    20    21    1
     6    16    15    2
     7    16    22    1
     8    48    45    2
     9    15    14    1
    10    21    22    2
    11    22    13    1
    12    14    13    1
    13    47    45    1
    14    45    11    1
    15    45    46    1
    16    13    12    1
    17    10     8    1
    18    10    11    1
    19    10    12    1
    20     9     8    1
    21     8     6    1
    22    12     7    1
    23     6     7    1
    24     6     5    1
    25     5     4    1
    26     4     1    1
    27     2     1    2
    28     1    23    1
    29     1     3    1
    30    23    24    1
    31    32    31    1
    32    31    33    1
    33    31    29    1
    34    26    24    2
    35    24    27    1
    36    24    25    1
    37    34    33    1
    38    27    28    1
    39    28    29    1
    40    33    35    1
    41    29    30    1
    42    35    30    1
    43    35    36    1
    44    36    44    1
    45    36    37    1
    46    44    43    2
    47    37    38    1
    48    43    42    1
    49    38    42    2
    50    38    39    1
    51    41    39   am
    52    39    40    2
