@<TRIPOS>MOLECULE
1qos_NAG_A_1.pdb
 14 14 0 0 0
SMALL
GASTEIGER

@<TRIPOS>ATOM
      1  C1       -28.7010   85.9510  -13.7050 C.3   501  NAG501      0.1665
      2  C2       -27.7580   86.9120  -13.0110 C.3   501  NAG501      0.1576
      3  C3       -26.9050   86.0710  -12.0950 C.3   501  NAG501      0.2069
      4  C4       -27.7770   85.1830  -11.2050 C.3   501  NAG501      0.2134
      5  C5       -28.8450   84.4480  -11.9960 C.3   501  NAG501      0.1809
      6  C6       -29.7840   83.7190  -11.1060 C.3   501  NAG501      0.2141
      7  C7       -26.8780   88.9200  -13.9820 C.2   501  NAG501      0.2420
      8  C8       -25.9220   89.6240  -14.9520 C.3   501  NAG501      0.0964
      9  N2       -26.8960   87.5930  -13.9660 N.am  501  NAG501     -0.2019
     10  O3       -26.1190   86.9200  -11.2920 O.3   501  NAG501     -0.2184
     11  O4       -26.9540   84.2470  -10.5350 O.3   501  NAG501     -0.2176
     12  O5       -29.6020   85.3730  -12.7930 O.3   501  NAG501     -0.3489
     13  O6       -30.6230   84.6080  -10.4100 O.3   501  NAG501     -0.2176
     14  O7       -27.6620   89.5940  -13.3280 O.2   501  NAG501     -0.2733
@<TRIPOS>BOND
     1     8     7    1
     2     7     9   am
     3     7    14    2
     4     9     2    1
     5     1     2    1
     6     1    12    1
     7     2     3    1
     8    12     5    1
     9     3    10    1
    10     3     4    1
    11     5     4    1
    12     5     6    1
    13     4    11    1
    14     6    13    1
