@<TRIPOS>MOLECULE
1qot_NAG_C_1.pdb
 14 14 0 0 0
SMALL
GASTEIGER

@<TRIPOS>ATOM
      1  C1        66.9560   -4.5530   35.4490 C.3   401  NAG401      0.1665
      2  C2        66.8600   -5.3220   34.1640 C.3   401  NAG401      0.1576
      3  C3        65.7590   -6.3500   34.3290 C.3   401  NAG401      0.2069
      4  C4        66.1560   -7.3020   35.4480 C.3   401  NAG401      0.2134
      5  C5        66.7120   -6.6060   36.7360 C.3   401  NAG401      0.1809
      6  C6        67.6960   -7.5430   37.4370 C.3   401  NAG401      0.2141
      7  C7        66.8650   -4.6660   31.8310 C.2   401  NAG401      0.2420
      8  C8        66.5780   -3.5490   30.8470 C.3   401  NAG401      0.0964
      9  N2        66.6070   -4.3720   33.1000 N.am  401  NAG401     -0.2019
     10  O3        65.6000   -7.0910   33.1260 O.3   401  NAG401     -0.2184
     11  O4        65.0330   -8.1080   35.7880 O.3   401  NAG401     -0.2176
     12  O5        67.4990   -5.4050   36.4620 O.3   401  NAG401     -0.3489
     13  O6        67.0430   -8.6490   38.0360 O.3   401  NAG401     -0.2176
     14  O7        67.1980   -5.7960   31.4290 O.2   401  NAG401     -0.2733
@<TRIPOS>BOND
     1     8     7    1
     2    14     7    2
     3     7     9   am
     4     9     2    1
     5    10     3    1
     6     2     3    1
     7     2     1    1
     8     3     4    1
     9     4    11    1
    10     4     5    1
    11     1    12    1
    12    12     5    1
    13     5     6    1
    14     6    13    1
