@<TRIPOS>MOLECULE
1qot_FUC_A_1.pdb
 10 10 0 0 0
SMALL
GASTEIGER

@<TRIPOS>ATOM
      1  C1        66.8100   43.0930   77.5030 C.3   501  FUC501      0.1776
      2  C2        68.2630   42.6950   77.7250 C.3   501  FUC501      0.2141
      3  C3        69.1510   43.9160   77.4630 C.3   501  FUC501      0.2172
      4  C4        68.7120   45.0780   78.3550 C.3   501  FUC501      0.2116
      5  C5        67.2170   45.3490   78.1810 C.3   501  FUC501      0.1483
      6  C6        66.7000   46.3900   79.1550 C.3   501  FUC501      0.0349
      7  O2        68.6060   41.6350   76.8420 O.3   501  FUC501     -0.2176
      8  O3        70.5090   43.6020   77.7260 O.3   501  FUC501     -0.2175
      9  O4        68.9920   44.7790   79.7170 O.3   501  FUC501     -0.2177
     10  O5        66.4650   44.1360   78.3980 O.3   501  FUC501     -0.3508
@<TRIPOS>BOND
     1     7     2    1
     2     3     2    1
     3     3     8    1
     4     3     4    1
     5     1     2    1
     6     1    10    1
     7     5     4    1
     8     5    10    1
     9     5     6    1
    10     4     9    1
