@<TRIPOS>MOLECULE
1qot_GAL_A_1.pdb
 12 12 0 0 0
SMALL
GASTEIGER

@<TRIPOS>ATOM
      1  C1        64.5660   44.4110   75.4130 C.3   502  GAL502      0.3024
      2  C2        65.4160   43.1500   75.5650 C.3   502  GAL502      0.2434
      3  C3        65.7180   42.5080   74.2260 C.3   502  GAL502      0.2199
      4  C4        64.4260   42.2990   73.4610 C.3   502  GAL502      0.2144
      5  C5        63.7390   43.6490   73.3150 C.3   502  GAL502      0.1836
      6  C6        62.4620   43.6010   72.5050 C.3   502  GAL502      0.2142
      7  O1        64.1330   44.8220   76.6620 O.3   502  GAL502     -0.1869
      8  O2        66.6620   43.4960   76.1790 O.3   502  GAL502     -0.2148
      9  O3        66.3690   41.2670   74.4430 O.3   502  GAL502     -0.2174
     10  O4        63.5980   41.4060   74.1890 O.3   502  GAL502     -0.2176
     11  O5        63.4060   44.1560   74.6150 O.3   502  GAL502     -0.3236
     12  O6        61.9140   44.9010   72.3420 O.3   502  GAL502     -0.2176
@<TRIPOS>BOND
     1    12     6    1
     2     6     5    1
     3     5     4    1
     4     5    11    1
     5     4    10    1
     6     4     3    1
     7     3     9    1
     8     3     2    1
     9    11     1    1
    10     1     2    1
    11     1     7    1
    12     2     8    1
