@<TRIPOS>MOLECULE
1qov_SPN_M_1.pdb
 43 42 0 0 0
SMALL
GASTEIGER

@<TRIPOS>ATOM
      1  CMA       24.6500  117.9650    6.4500 C.3   1600  SPN1600     0.1745
      2  O1        26.1620  118.0170    6.2920 O.3   1600  SPN1600    -0.3486
      3  CM1       28.4190  118.9630    6.8410 C.3   1600  SPN1600     0.0376
      4  CM2       26.3720  120.3150    7.3360 C.3   1600  SPN1600     0.0376
      5  C1        26.9440  118.8930    7.2550 C.3   1600  SPN1600     0.1476
      6  C2        26.8080  118.2060    8.6090 C.2   1600  SPN1600     0.1969
      7  O2        26.9850  118.8240    9.6640 O.2   1600  SPN1600    -0.2889
      8  C3        26.5530  116.6330    8.7860 C.2   1600  SPN1600     0.0353
      9  C4        27.2770  116.0160    9.8240 C.2   1600  SPN1600    -0.0231
     10  C5        27.0820  114.5120   10.0820 C.3   1600  SPN1600     0.0265
     11  CM3       27.0820  113.5220    8.8870 C.3   1600  SPN1600     0.0050
     12  C6        27.6830  114.1340   11.2890 C.3   1600  SPN1600     0.0300
     13  C7        27.5650  112.6910   11.7910 C.2   1600  SPN1600    -0.0304
     14  C8        28.0870  112.4480   13.0660 C.2   1600  SPN1600    -0.0310
     15  C9        27.9690  111.0390   13.6470 C.3   1600  SPN1600     0.0217
     16  CM4       27.6540  109.8210   12.7490 C.3   1600  SPN1600     0.0047
     17  C10       28.5920  110.8990   14.8780 C.3   1600  SPN1600     0.0047
     18  C11       28.5250  109.5500   15.6090 C.3   1600  SPN1600     0.0047
     19  C12       29.2180  109.5820   16.8250 C.3   1600  SPN1600     0.0220
     20  C13       29.2750  108.3150   17.6650 C.2   1600  SPN1600    -0.0439
     21  CM5       28.5180  107.0530   17.1960 C.3   1600  SPN1600     0.0264
     22  C14       30.2010  108.3780   18.7100 C.2   1600  SPN1600    -0.0085
     23  C15       30.3290  107.1030   19.5450 C.2   1600  SPN1600    -0.0007
     24  C16       31.2820  107.0290   20.5520 C.2   1600  SPN1600    -0.0007
     25  C17       32.1960  108.1900   20.8510 C.2   1600  SPN1600    -0.0085
     26  C18       33.0800  108.1600   21.9170 C.2   1600  SPN1600    -0.0439
     27  CM6       33.0910  107.1620   23.0780 C.3   1600  SPN1600     0.0264
     28  C19       33.8860  109.4640   22.0080 C.3   1600  SPN1600     0.0220
     29  C20       34.6820  109.6630   23.1250 C.3   1600  SPN1600     0.0043
     30  C21       35.4060  111.0050   23.1070 C.3   1600  SPN1600     0.0003
     31  C22       36.2340  111.3920   24.1480 C.3   1600  SPN1600     0.0000
     32  CM7       36.2680  110.7990   25.5570 C.3   1600  SPN1600     0.0000
     33  C23       37.1760  112.5860   23.9020 C.3   1600  SPN1600     0.0000
     34  C24       38.6180  112.2300   24.2040 C.3   1600  SPN1600     0.0000
     35  C25       39.5880  113.3690   23.8580 C.3   1600  SPN1600     0.0000
     36  C26       40.6140  113.3480   22.8990 C.3   1600  SPN1600     0.0003
     37  CM8       41.2910  112.0210   22.5030 C.3   1600  SPN1600     0.0000
     38  C27       41.5390  114.5730   22.6840 C.3   1600  SPN1600     0.0046
     39  C28       41.9540  115.1390   24.0350 C.3   1600  SPN1600     0.0254
     40  C29       43.0060  116.2600   23.9360 C.2   1600  SPN1600    -0.0346
     41  C30       43.3170  117.1370   24.9920 C.2   1600  SPN1600    -0.0478
     42  CM9       42.6320  117.0430   26.3730 C.3   1600  SPN1600     0.0260
     43  CMB       44.3850  118.2420   24.9000 C.3   1600  SPN1600     0.0260
@<TRIPOS>BOND
     1     2     1    1
     2     2     5    1
     3     3     5    1
     4     5     4    1
     5     5     6    1
     6     6     8    1
     7     6     7    2
     8     8     9    2
     9    11    10    1
    10     9    10    1
    11    10    12    1
    12    12    13    1
    13    13    14    2
    14    16    15    1
    15    14    15    1
    16    15    17    1
    17    17    18    1
    18    18    19    1
    19    19    20    1
    20    21    20    1
    21    20    22    2
    22    22    23    1
    23    23    24    2
    24    24    25    1
    25    25    26    2
    26    26    28    1
    27    26    27    1
    28    28    29    1
    29    37    36    1
    30    38    36    1
    31    38    39    1
    32    36    35    1
    33    30    29    1
    34    30    31    1
    35    35    34    1
    36    33    31    1
    37    33    34    1
    38    40    39    1
    39    40    41    2
    40    31    32    1
    41    43    41    1
    42    41    42    1
