@<TRIPOS>MOLECULE
1qov_U10_L_1.pdb
 48 50 0 0 0
SMALL
GASTEIGER

@<TRIPOS>ATOM
      1  C1        12.2010  115.6420   34.3850 C.2   1502  U101502     0.0198
      2  C2        11.4030  115.4280   35.5870 C.2   1502  U101502     0.2282
      3  C3        10.2420  116.2620   35.8970 C.2   1502  U101502     0.2140
      4  C4         9.9460  117.2340   35.0020 C.2   1502  U101502     0.2140
      5  C5        10.7290  117.4660   33.8090 C.2   1502  U101502     0.2285
      6  C6        11.8910  116.6320   33.5010 C.2   1502  U101502     0.0235
      7  C1M       13.3930  114.7320   34.1360 C.3   1502  U101502     0.0343
      8  C3M        9.7130  116.1380   38.4830 C.3   1502  U101502     0.2528
      9  C4M        9.1000  119.3040   36.0460 C.3   1502  U101502     0.2528
     10  C7        12.6350  116.9730   32.2170 C.3   1502  U101502     0.0548
     11  C8        12.4050  116.0770   31.1040 C.2   1502  U101502    -0.0298
     12  C9        12.3780  116.3770   29.7460 C.2   1502  U101502    -0.0475
     13  C10       12.6140  117.7750   29.1600 C.3   1502  U101502     0.0260
     14  C11       12.1340  115.3120   28.6710 C.3   1502  U101502     0.0264
     15  C12       13.4620  114.7070   28.2210 C.3   1502  U101502     0.0297
     16  C13       13.2810  113.9360   26.9770 C.2   1502  U101502    -0.0342
     17  C14       13.8420  112.6600   26.7820 C.2   1502  U101502    -0.0478
     18  C15       14.6940  112.0280   27.9150 C.3   1502  U101502     0.0260
     19  C16       13.7420  111.7840   25.5540 C.3   1502  U101502     0.0263
     20  C17       12.4880  111.8550   24.7030 C.3   1502  U101502     0.0297
     21  C18       12.6810  111.1250   23.4500 C.2   1502  U101502    -0.0342
     22  C19       11.8380  110.3420   22.6730 C.2   1502  U101502    -0.0478
     23  C20       10.3480  110.0850   23.0060 C.3   1502  U101502     0.0260
     24  C21       12.2230  109.6530   21.3630 C.3   1502  U101502     0.0263
     25  C22       13.5630  108.9540   21.3110 C.3   1502  U101502     0.0297
     26  C23       13.7110  108.2460   20.0360 C.2   1502  U101502    -0.0342
     27  C24       14.1030  106.9180   19.8380 C.2   1502  U101502    -0.0478
     28  C25       14.4320  106.0150   21.0390 C.3   1502  U101502     0.0260
     29  C26       14.2350  106.2470   18.4710 C.3   1502  U101502     0.0263
     30  C27       15.5210  106.6130   17.7350 C.3   1502  U101502     0.0297
     31  C28       16.2790  105.4520   17.3660 C.2   1502  U101502    -0.0340
     32  C29       17.0990  104.9400   16.3870 C.2   1502  U101502    -0.0444
     33  C30       17.7250  103.5250   16.4080 C.3   1502  U101502     0.0263
     34  C31       17.5110  105.6610   15.0890 C.3   1502  U101502     0.0405
     35  C32       16.7830  105.0690   13.8850 C.2   1502  U101502     0.0176
     36  C33       17.5610  104.5230   12.8410 C.1   1502  U101502    -0.1141
     37  C34       18.6110  104.0720   12.0970 C.2   1502  U101502    -0.0099
     38  C35       18.3770  103.5080   10.6800 C.3   1502  U101502     0.0347
     39  C36       20.0720  104.0770   12.5800 C.3   1502  U101502     0.0298
     40  C37       20.1460  104.0370   14.0950 C.3   1502  U101502     0.0056
     41  C38       19.2910  104.9610   14.8140 C.3   1502  U101502     0.0081
     42  C39       19.4730  106.3130   15.1020 C.3   1502  U101502     0.0013
     43  C40       20.6880  107.1420   14.6350 C.3   1502  U101502     0.0000
     44  C41       18.4860  107.1650   15.9040 C.3   1502  U101502     0.0084
     45  O2        11.6240  114.5610   36.4200 O.2   1502  U101502    -0.2836
     46  O3         9.5940  115.8930   37.1320 O.2   1502  U101502    -0.4652
     47  O4         8.8190  118.1440   35.2650 O.2   1502  U101502    -0.4652
     48  O5        10.5060  118.3330   32.9680 O.2   1502  U101502    -0.2835
@<TRIPOS>BOND
     1    38    37    1
     2    37    39    1
     3    37    36    2
     4    39    40    1
     5    36    35    2
     6    35    34    1
     7    40    41    1
     8    43    42    1
     9    41    34    1
    10    41    42    1
    11    34    44    1
    12    34    32    1
    13    42    44    1
    14    32    33    1
    15    32    31    2
    16    31    30    1
    17    30    29    1
    18    29    27    1
    19    27    26    2
    20    27    28    1
    21    26    25    1
    22    25    24    1
    23    24    22    1
    24    22    23    1
    25    22    21    2
    26    21    20    1
    27    20    19    1
    28    19    17    1
    29    17    16    2
    30    17    18    1
    31    16    15    1
    32    15    14    1
    33    14    12    1
    34    13    12    1
    35    12    11    2
    36    11    10    1
    37    10     6    1
    38    48     5    2
    39     6     5    1
    40     6     1    2
    41     5     4    1
    42     7     1    1
    43     1     2    1
    44     4    47    1
    45     4     3    2
    46    47     9    1
    47     2     3    1
    48     2    45    2
    49     3    46    1
    50    46     8    1
