@<TRIPOS>MOLECULE
1qoz_NAG_A_1.pdb
 14 14 0 0 0
SMALL
GASTEIGER

@<TRIPOS>ATOM
      1  C1         9.3100   12.3160    6.7220 C.3   926  NAG926      0.1665
      2  C2        10.6080   12.8020    7.3500 C.3   926  NAG926      0.1576
      3  C3        10.4970   12.6870    8.8970 C.3   926  NAG926      0.2069
      4  C4         9.2220   13.3840    9.4260 C.3   926  NAG926      0.2134
      5  C5         7.9730   12.8550    8.6880 C.3   926  NAG926      0.1809
      6  C6         6.7240   13.6300    9.1240 C.3   926  NAG926      0.2141
      7  C7        12.6970   12.4000    6.0740 C.2   926  NAG926      0.2420
      8  C8        13.7400   11.3750    5.6470 C.3   926  NAG926      0.0964
      9  N2        11.7010   11.9650    6.8440 N.am  926  NAG926     -0.2019
     10  O3        11.6230   13.2820    9.5170 O.3   926  NAG926     -0.2184
     11  O4         9.0800   13.1570   10.8150 O.3   926  NAG926     -0.2176
     12  O5         8.1760   13.0220    7.2540 O.3   926  NAG926     -0.3489
     13  O6         5.6070   13.1970    8.3930 O.3   926  NAG926     -0.2176
     14  O7        12.8030   13.5730    5.7070 O.2   926  NAG926     -0.2733
@<TRIPOS>BOND
     1     8     7    1
     2    14     7    2
     3     7     9   am
     4     1    12    1
     5     1     2    1
     6     9     2    1
     7    12     5    1
     8     2     3    1
     9    13     6    1
    10     5     6    1
    11     5     4    1
    12     3     4    1
    13     3    10    1
    14     4    11    1
