@<TRIPOS>MOLECULE
1qp0_HPA_A_1.pdb
 10 11 0 0 0
SMALL
GASTEIGER

@<TRIPOS>ATOM
      1  N1        56.5540    3.1310  -12.0250 N.2   599  HPA599     -0.1726
      2  C2        57.1810    2.8150  -10.8380 C.3   599  HPA599      0.2725
      3  N3        57.9180    3.6450  -10.1020 N.2   599  HPA599     -0.1902
      4  C4        58.0090    4.8620  -10.7050 C.1   599  HPA599      0.0598
      5  C5        57.4520    5.2750  -11.9010 C.2   599  HPA599      0.2226
      6  C6        56.6640    4.3600  -12.6620 C.1   599  HPA599      0.1796
      7  O6        56.0640    4.4990  -13.7400 O.2   599  HPA599     -0.2200
      8  N7        57.8000    6.5980  -12.1500 N.2   599  HPA599     -0.2230
      9  C8        58.5510    6.9450  -11.1450 C.3   599  HPA599      0.2622
     10  N9        58.7040    5.9430  -10.2190 N.2   599  HPA599     -0.1910
@<TRIPOS>BOND
     1     7     6    2
     2     6     1    2
     3     6     5    1
     4     8     5    2
     5     8     9    1
     6     1     2    1
     7     5     4    1
     8     9    10    1
     9     2     3    1
    10     4    10    2
    11     4     3    2
