@<TRIPOS>MOLECULE
1qp4_HPA_A_1.pdb
 10 11 0 0 0
SMALL
GASTEIGER

@<TRIPOS>ATOM
      1  N1        57.2490    2.6170  -10.9810 N.2   599  HPA599     -0.1726
      2  C2        58.0940    2.6700   -9.8980 C.3   599  HPA599      0.2725
      3  N3        58.7550    3.7470   -9.5000 N.2   599  HPA599     -0.1902
      4  C4        58.5000    4.7990  -10.3070 C.1   599  HPA599      0.0598
      5  C5        57.6660    4.8590  -11.3980 C.2   599  HPA599      0.2226
      6  C6        56.9610    3.6970  -11.8020 C.1   599  HPA599      0.1796
      7  O6        56.1670    3.5320  -12.7390 O.2   599  HPA599     -0.2200
      8  N7        57.6740    6.1390  -11.9290 N.2   599  HPA599     -0.2230
      9  C8        58.4880    6.8060  -11.1620 C.3   599  HPA599      0.2622
     10  N9        59.0300    6.0540  -10.1510 N.2   599  HPA599     -0.1910
@<TRIPOS>BOND
     1     7     6    2
     2     8     5    2
     3     8     9    1
     4     6     5    1
     5     6     1    2
     6     5     4    1
     7     9    10    1
     8     1     2    1
     9     4    10    2
    10     4     3    2
    11     2     3    1
