@<TRIPOS>MOLECULE
1qp7_HPA_A_1.pdb
 10 11 0 0 0
SMALL
GASTEIGER

@<TRIPOS>ATOM
      1  N1        57.1180    2.5440  -11.0350 N.2   599  HPA599     -0.1726
      2  C2        57.9170    2.5290   -9.9200 C.3   599  HPA599      0.2725
      3  N3        58.5510    3.5930   -9.4630 N.2   599  HPA599     -0.1902
      4  C4        58.3330    4.6990  -10.2210 C.1   599  HPA599      0.0598
      5  C5        57.5540    4.8090  -11.3460 C.2   599  HPA599      0.2226
      6  C6        56.8770    3.6610  -11.8220 C.1   599  HPA599      0.1796
      7  O6        56.1250    3.5440  -12.7980 O.2   599  HPA599     -0.2200
      8  N7        57.5780    6.1120  -11.8320 N.2   599  HPA599     -0.2230
      9  C8        58.3850    6.7520  -11.0320 C.3   599  HPA599      0.2622
     10  N9        58.8570    5.9600  -10.0150 N.2   599  HPA599     -0.1910
@<TRIPOS>BOND
     1     7     6    2
     2     8     5    2
     3     8     9    1
     4     6     5    1
     5     6     1    2
     6     5     4    1
     7     1     2    1
     8     9    10    1
     9     4    10    2
    10     4     3    2
    11     2     3    1
