@<TRIPOS>MOLECULE
1qp8_NDP_A_1.pdb
 48 52 0 0 0
SMALL
GASTEIGER

@<TRIPOS>ATOM
      1  PA        34.6380    1.0580  102.0400 P.3   310  NDP310      0.2189
      2  O1A       35.8600    0.7890  102.8600 O.3   310  NDP310     -0.4371
      3  O2A       34.9580    2.4980  102.1480 O.2   310  NDP310     -0.5170
      4  O5B       35.1890   -0.1560  101.0680 O.3   310  NDP310     -0.3112
      5  C5B       34.5550   -1.4510  101.4240 C.3   310  NDP310      0.1813
      6  C4B       34.1940   -2.2510  100.1200 C.3   310  NDP310      0.1820
      7  O4B       35.3430   -2.9270   99.4760 O.3   310  NDP310     -0.3136
      8  C3B       33.2100   -3.4600  100.3750 C.3   310  NDP310      0.2157
      9  O3B       32.5880   -3.8390   99.1600 O.3   310  NDP310     -0.2175
     10  C2B       34.2270   -4.4440  100.9540 C.3   310  NDP310      0.2314
     11  O2B       33.9400   -5.7660  101.2300 O.3   310  NDP310     -0.2630
     12  C1B       35.3390   -4.2780  100.0040 C.3   310  NDP310      0.3158
     13  N9A       36.5720   -4.7970  100.4990 N.pl3 310  NDP310     -0.1439
     14  C8A       37.3790   -4.4000  101.5320 C.3   310  NDP310      0.3377
     15  N7A       38.4700   -5.1590  101.6420 N.2   310  NDP310     -0.2095
     16  C5A       38.3310   -6.0730  100.6270 C.2   310  NDP310      0.2526
     17  C6A       39.1590   -7.1780  100.2050 C.2   310  NDP310      0.4393
     18  N6A       40.3010   -7.4510  100.8650 N.pl3 310  NDP310      0.2180
     19  N1A       38.7200   -7.9310   99.1220 N.2   310  NDP310      0.0021
     20  C2A       37.5230   -7.5890   98.5060 C.3   310  NDP310      0.5254
     21  N3A       36.7090   -6.6010   98.8340 N.2   310  NDP310     -0.0055
     22  C4A       37.1920   -5.8670   99.9040 C.2   310  NDP310      0.3518
     23  O3        34.4570    1.6080  100.5820 O.3   310  NDP310     -0.2703
     24  PN        34.9220    2.7750   99.5250 P.3   310  NDP310      0.2189
     25  O1N       34.2290    2.6230   98.2250 O.2   310  NDP310     -0.5170
     26  O2N       34.7280    4.1510  100.0860 O.3   310  NDP310     -0.4371
     27  O5D       36.5570    2.5570   99.3170 O.3   310  NDP310     -0.3112
     28  C5D       37.4490    3.1080  100.3150 C.3   310  NDP310      0.1813
     29  C4D       38.8770    2.8600   99.8000 C.3   310  NDP310      0.1799
     30  O4D       39.0690    3.5950   98.5670 O.3   310  NDP310     -0.3327
     31  C3D       39.9130    3.3900  100.7900 C.3   310  NDP310      0.2158
     32  O3D       40.2150    2.3670  101.7250 O.3   310  NDP310     -0.2175
     33  C2D       41.0720    3.8050   99.8450 C.3   310  NDP310      0.2309
     34  O2D       42.0160    2.7380   99.6630 O.3   310  NDP310     -0.2158
     35  C1D       40.3590    4.2540   98.5480 C.3   310  NDP310      0.2263
     36  N1N       40.1910    5.7810   98.4440 N.pl3 310  NDP310     -0.2787
     37  C2N       40.8370    6.4050   97.3220 C.3   310  NDP310      0.1244
     38  C3N       40.6890    7.8100   97.2140 C.2   310  NDP310      0.0544
     39  C7N       41.3860    8.5260   95.9920 C.2   310  NDP310      0.2818
     40  O7N       41.1100    9.6940   95.7910 O.2   310  NDP310     -0.2670
     41  N7N       42.2490    7.7890   95.2410 N.am  310  NDP310     -0.0839
     42  C4N       39.9440    8.6390   98.1380 C.2   310  NDP310      0.0033
     43  C5N       39.3530    7.8740   99.2070 C.2   310  NDP310      0.0157
     44  C6N       39.4440    6.5270   99.3860 C.2   310  NDP310      0.0633
     45  P2B       33.5120   -6.0610  102.8480 P.3   310  NDP310      0.5328
     46  O1X       33.3420   -7.5520  102.6880 O.2   310  NDP310     -0.2224
     47  O2X       34.7170   -5.6180  103.5990 O.3   310  NDP310     -0.1145
     48  O3X       32.3160   -5.2680  103.0760 O.3   310  NDP310     -0.1145
@<TRIPOS>BOND
     1    41    39   am
     2    40    39    2
     3    39    38    1
     4    38    37    1
     5    38    42    2
     6    37    36    1
     7    42    43    1
     8    25    24    2
     9    36    35    1
    10    36    44    1
    11    20    21    1
    12    20    19    1
    13    35    30    1
    14    35    33    1
    15    30    29    1
    16    21    22    2
    17    19    17    2
    18     9     8    1
    19    43    44    2
    20    27    24    1
    21    27    28    1
    22     7    12    1
    23     7     6    1
    24    24    26    1
    25    24    23    1
    26    34    33    1
    27    29    28    1
    28    29    31    1
    29    33    31    1
    30    22    13    1
    31    22    16    1
    32    12    13    1
    33    12    10    1
    34     6     8    1
    35     6     5    1
    36    17    16    1
    37    17    18    1
    38     8    10    1
    39    13    14    1
    40    23     1    1
    41    16    15    2
    42    31    32    1
    43    10    11    1
    44     4     5    1
    45     4     1    1
    46    11    45    1
    47    14    15    1
    48     1     3    2
    49     1     2    1
    50    46    45    2
    51    45    48    1
    52    45    47    1
