@<TRIPOS>MOLECULE
1qpa_HEM_A_1.pdb
 43 50 0 0 0
SMALL
GASTEIGER

@<TRIPOS>ATOM
      1  CHA        4.7080   50.4030   74.2210 C.2   350  HEM350      0.0000
      2  CHB        6.3900   53.5810   77.5430 C.2   350  HEM350      0.0000
      3  CHC       10.7240   51.5080   77.2800 C.2   350  HEM350      0.0000
      4  CHD        8.9420   48.0600   74.3080 C.2   350  HEM350      0.0000
      5  C1A        4.8150   51.5210   75.0740 C.2   350  HEM350      0.0000
      6  C2A        3.6970   52.3250   75.4830 C.2   350  HEM350      0.0000
      7  C3A        4.1250   53.1920   76.4450 C.2   350  HEM350      0.0000
      8  C4A        5.4990   52.8500   76.7200 C.2   350  HEM350      0.0000
      9  CMA        3.2930   54.1620   77.2950 C.3   350  HEM350      0.0000
     10  CAA        2.2230   52.1150   75.1280 C.2   350  HEM350      0.0000
     11  CBA        1.4490   51.0990   75.9160 C.2   350  HEM350      0.0000
     12  CGA       -0.0080   50.9190   75.8500 C.2   350  HEM350      0.0000
     13  O1A       -0.5830   51.8250   75.1930 O.co2 350  HEM350      0.0000
     14  O2A       -0.6500   50.0250   76.4110 O.co2 350  HEM350      0.0000
     15  C1B        7.6980   53.2840   77.8540 C.ar  350  HEM350      0.0000
     16  C2B        8.5930   53.9740   78.8020 C.ar  350  HEM350      0.0000
     17  C3B        9.8300   53.4590   78.6640 C.ar  350  HEM350      0.0000
     18  C4B        9.7640   52.3410   77.7740 C.ar  350  HEM350      0.0000
     19  CMB        8.1430   55.3020   79.4340 C.3   350  HEM350      0.0000
     20  CAB       11.1370   54.0570   79.2040 C.2   350  HEM350      0.0000
     21  CBB       12.1620   53.2350   79.3460 C.2   350  HEM350      0.0000
     22  C1C       10.5310   50.2900   76.6120 C.2   350  HEM350      0.0000
     23  C2C       11.5520   49.3480   76.3920 C.2   350  HEM350      0.0000
     24  C3C       11.0810   48.3680   75.5720 C.2   350  HEM350      0.0000
     25  C4C        9.7040   48.7060   75.3260 C.2   350  HEM350      0.0000
     26  CMC       13.0020   49.4460   76.9440 C.3   350  HEM350      0.0000
     27  CAC       11.5670   46.9180   75.3600 C.2   350  HEM350      0.0000
     28  CBC       12.8060   46.5480   75.0910 C.2   350  HEM350      0.0000
     29  C1D        7.6850   48.4680   73.8720 C.ar  350  HEM350      0.0000
     30  C2D        6.9320   48.0130   72.6640 C.ar  350  HEM350      0.0000
     31  C3D        5.7040   48.5510   72.7670 C.ar  350  HEM350      0.0000
     32  C4D        5.7360   49.6260   73.7640 C.ar  350  HEM350      0.0000
     33  CMD        7.4310   46.8200   71.8390 C.3   350  HEM350      0.0000
     34  CAD        4.4770   48.3970   71.8490 C.3   350  HEM350      0.0000
     35  CBD        3.3930   47.4660   72.3800 C.3   350  HEM350      0.0000
     36  CGD        2.3450   47.0800   71.3240 C.2   350  HEM350      0.0000
     37  O1D        1.2580   46.7180   71.7320 O.co2 350  HEM350      0.0000
     38  O2D        2.5670   47.6160   70.2150 O.co2 350  HEM350      0.0000
     39  NA         5.9990   51.7540   75.9460 N.2   350  HEM350      0.0000
     40  NB         8.4510   52.2900   77.3230 N.ar  350  HEM350      0.0000
     41  NC         9.3620   49.9840   75.8480 N.2   350  HEM350      0.0000
     42  ND         6.9840   49.5220   74.3570 N.ar  350  HEM350      0.0000
     43 FE          7.6950   50.9150   75.7900 Fe    350  HEM350      0.0000
@<TRIPOS>BOND
     1    38    36   ar
     2    36    37   ar
     3    36    35    1
     4    33    30    1
     5    34    35    1
     6    34    31    1
     7    30    31   ar
     8    30    29   ar
     9    31    32   ar
    10    32     1    2
    11    32    42   ar
    12    29     4    2
    13    29    42   ar
    14     1     5    1
    15     4    25    1
    16    42    43    1
    17     5     6    1
    18     5    39    2
    19    28    27    2
    20    10     6    1
    21    10    11    2
    22    13    12   ar
    23    25    24    1
    24    25    41    2
    25    27    24    1
    26     6     7    2
    27    24    23    2
    28    43    41    1
    29    43    39    1
    30    43    40    1
    31    41    22    1
    32    12    11    1
    33    12    14   ar
    34    39     8    1
    35    23    22    1
    36    23    26    1
    37     7     8    1
    38     7     9    1
    39    22     3    2
    40     8     2    2
    41     3    18    1
    42    40    18   ar
    43    40    15   ar
    44     2    15    1
    45    18    17   ar
    46    15    16   ar
    47    17    16   ar
    48    17    20    1
    49    16    19    1
    50    20    21    2
