@<TRIPOS>MOLECULE
1qpa_FUC_B_1.pdb
 10 10 0 0 0
SMALL
GASTEIGER

@<TRIPOS>ATOM
      1  C1         7.4560   61.6870   32.6800 C.3   365  FUC365      0.1776
      2  C2         6.8430   60.7180   31.6510 C.3   365  FUC365      0.2141
      3  C3         7.9060   60.1570   30.6910 C.3   365  FUC365      0.2172
      4  C4         9.3630   60.2970   31.1190 C.3   365  FUC365      0.2116
      5  C5         9.6520   60.9110   32.4990 C.3   365  FUC365      0.1483
      6  C6        10.7700   60.2210   33.2520 C.3   365  FUC365      0.0349
      7  O2         5.7070   61.3370   30.9460 O.3   365  FUC365     -0.2176
      8  O3         7.5950   58.8080   30.2390 O.3   365  FUC365     -0.2175
      9  O4        10.0960   59.0680   30.8390 O.3   365  FUC365     -0.2177
     10  O5         8.4950   61.0390   33.4500 O.3   365  FUC365     -0.3508
@<TRIPOS>BOND
     1     8     3    1
     2     3     4    1
     3     3     2    1
     4     9     4    1
     5     7     2    1
     6     4     5    1
     7     2     1    1
     8     5     6    1
     9     5    10    1
    10     1    10    1
