@<TRIPOS>MOLECULE
1qpa_MAN_A_1.pdb
 11 11 0 0 0
SMALL
GASTEIGER

@<TRIPOS>ATOM
      1  C1        -3.0910   60.1440   58.1790 C.3   370  MAN370      0.1777
      2  C2        -3.6710   59.2010   59.3070 C.3   370  MAN370      0.2141
      3  C3        -3.7660   57.7400   58.8850 C.3   370  MAN370      0.2173
      4  C4        -4.1530   57.4330   57.4410 C.3   370  MAN370      0.2142
      5  C5        -3.4540   58.4490   56.4920 C.3   370  MAN370      0.1810
      6  C6        -3.6970   58.5340   54.9890 C.3   370  MAN370      0.2141
      7  O2        -4.8630   59.7380   59.8630 O.3   370  MAN370     -0.2176
      8  O3        -4.5930   57.1150   59.8900 O.3   370  MAN370     -0.2175
      9  O4        -3.8070   56.0940   57.1200 O.3   370  MAN370     -0.2176
     10  O5        -3.6900   59.8050   56.9580 O.3   370  MAN370     -0.3481
     11  O6        -3.1720   59.7930   54.4960 O.3   370  MAN370     -0.2176
@<TRIPOS>BOND
     1    11     6    1
     2     6     5    1
     3     5    10    1
     4     5     4    1
     5    10     1    1
     6     9     4    1
     7     4     3    1
     8     1     2    1
     9     3     2    1
    10     3     8    1
    11     2     7    1
