@<TRIPOS>MOLECULE
1qpb_TPP_A_1.pdb
 26 27 0 0 0
SMALL
GASTEIGER

@<TRIPOS>ATOM
      1  N1'       87.1730   50.8140   17.3240 N.2   600  TPP600     -0.1861
      2  C2'       87.8760   51.2830   16.2430 C.1   600  TPP600      0.0663
      3  CM2       88.6700   50.3390   15.4340 C.3   600  TPP600      0.1291
      4  N3'       87.7240   52.5430   15.8250 N.2   600  TPP600     -0.3368
      5  C4'       86.9300   53.4190   16.5440 C.2   600  TPP600      0.2292
      6  N4'       86.8560   54.6320   16.0320 N.pl3 600  TPP600     -0.0925
      7  C5'       86.3360   53.0270   17.8360 C.2   600  TPP600      0.0654
      8  C6'       86.4210   51.6710   18.1020 C.2   600  TPP600      0.1115
      9  C7'       85.5570   53.9400   18.7820 C.3   600  TPP600      0.1237
     10  N3        86.3500   55.0220   19.5250 N.pl3 600  TPP600     -0.2970
     11  C2        86.4970   56.2130   19.0160 C.3   600  TPP600      0.1543
     12  S1        87.4800   57.2240   19.8450 S.3   600  TPP600     -0.0951
     13  C5        87.7480   55.9740   20.9810 C.2   600  TPP600      0.0164
     14  C4        87.0450   54.8480   20.6690 C.2   600  TPP600      0.0279
     15  CM4       87.1330   53.5100   21.4190 C.3   600  TPP600      0.0473
     16  C6        88.7350   56.1750   22.0740 C.3   600  TPP600      0.0661
     17  C7        90.1310   56.6360   21.7200 C.3   600  TPP600      0.1544
     18  O7        90.6440   56.9400   23.0630 O.3   600  TPP600     -0.3134
     19  PA        91.9800   57.7230   23.3880 P.3   600  TPP600      0.2230
     20  O1A       92.2220   57.4340   24.8310 O.3   600  TPP600     -0.4370
     21  O2A       93.0320   57.3880   22.3680 O.2   600  TPP600     -0.5169
     22  O3A       91.2200   59.0870   23.2360 O.3   600  TPP600     -0.2261
     23  PB        91.0940   60.4830   23.8810 P.3   600  TPP600      0.5373
     24  O1B       92.3450   61.2340   23.6180 O.3   600  TPP600     -0.1143
     25  O2B       89.8800   61.0440   23.2110 O.2   600  TPP600     -0.2221
     26  O3B       90.7900   60.2060   25.2750 O.3   600  TPP600     -0.1143
@<TRIPOS>BOND
     1     3     2    1
     2     4     2    2
     3     4     5    2
     4     6     5    1
     5     2     1    2
     6     5     7    1
     7     1     8    1
     8     7     8    2
     9     7     9    1
    10     9    10    1
    11    11    10    1
    12    11    12    1
    13    10    14    1
    14    12    13    1
    15    14    13    2
    16    14    15    1
    17    13    16    1
    18    17    16    1
    19    17    18    1
    20    21    19    2
    21    18    19    1
    22    25    23    2
    23    22    19    1
    24    22    23    1
    25    19    20    1
    26    24    23    1
    27    23    26    1
