@<TRIPOS>MOLECULE
1qpc_ANP_A_1.pdb
 27 29 0 0 0
SMALL
GASTEIGER

@<TRIPOS>ATOM
      1  PB        25.9870   44.2660   86.6470 P.3   904  ANP904      0.4738
      2  O1B       25.4010   45.1140   85.5670 O.2   904  ANP904     -0.2343
      3  O2B       27.0950   43.3750   86.2020 O.3   904  ANP904     -0.1247
      4  N3B       26.4610   45.1820   87.9590 N.3   904  ANP904     -0.0178
      5  PA        24.8430   41.8880   87.8440 P.3   904  ANP904      0.2220
      6  O1A       25.0110   41.9100   89.3250 O.3   904  ANP904     -0.4370
      7  O2A       23.6960   41.1810   87.2860 O.2   904  ANP904     -0.5170
      8  O3A       24.8710   43.3800   87.2810 O.3   904  ANP904     -0.2354
      9  O5'       26.1560   41.3690   87.1210 O.3   904  ANP904     -0.3111
     10  C5'       26.9980   40.2440   87.4270 C.3   904  ANP904      0.1813
     11  C4'       28.0140   39.7420   86.3760 C.3   904  ANP904      0.1821
     12  O4'       27.3410   38.5820   85.8460 O.3   904  ANP904     -0.3135
     13  C3'       28.3850   40.5200   85.0980 C.3   904  ANP904      0.2184
     14  O3'       29.5650   40.3000   84.2420 O.3   904  ANP904     -0.2174
     15  C2'       27.3410   39.9660   84.1030 C.3   904  ANP904      0.2570
     16  O2'       27.6310   40.0270   82.6750 O.3   904  ANP904     -0.2130
     17  C1'       27.3870   38.5230   84.4440 C.3   904  ANP904      0.3186
     18  N9        26.1550   37.8560   84.0430 N.pl3 904  ANP904     -0.1439
     19  C8        24.9120   38.1110   84.5350 C.3   904  ANP904      0.3377
     20  N7        23.9700   37.3310   84.0130 N.2   904  ANP904     -0.2095
     21  C5        24.6600   36.5300   83.1640 C.2   904  ANP904      0.2526
     22  C6        24.2080   35.5020   82.3130 C.2   904  ANP904      0.4393
     23  N6        22.9070   35.1580   82.1650 N.pl3 904  ANP904      0.2180
     24  N1        25.1260   34.8260   81.6080 N.2   904  ANP904      0.0021
     25  C2        26.4150   35.2180   81.6700 C.3   904  ANP904      0.5254
     26  N3        26.9650   36.1310   82.4380 N.2   904  ANP904     -0.0055
     27  C4        26.0030   36.8000   83.1690 C.2   904  ANP904      0.3518
@<TRIPOS>BOND
     1    24    25    1
     2    24    22    2
     3    25    26    1
     4    23    22    1
     5    22    21    1
     6    26    27    2
     7    16    15    1
     8    21    27    1
     9    21    20    2
    10    27    18    1
    11    20    19    1
    12    18    17    1
    13    18    19    1
    14    15    17    1
    15    15    13    1
    16    14    13    1
    17    17    12    1
    18    13    11    1
    19     2     1    2
    20    12    11    1
    21     3     1    1
    22    11    10    1
    23     1     8    1
    24     1     4    1
    25     9    10    1
    26     9     5    1
    27     8     5    1
    28     7     5    2
    29     5     6    1
