@<TRIPOS>MOLECULE
1qpd_STU_A_1.pdb
 35 42 0 0 0
SMALL
GASTEIGER

@<TRIPOS>ATOM
      1  O4        26.5350   40.4950   85.8760 O.3   902  STU902     -0.3186
      2  C25       27.5020   40.3390   84.8400 C.3   902  STU902      0.2078
      3  C24       27.8220   41.6850   84.1360 C.3   902  STU902      0.0739
      4  C23       26.9450   42.8060   84.7280 C.3   902  STU902      0.1086
      5  C22       25.4460   42.3870   84.6260 C.3   902  STU902      0.1761
      6  C21       25.3050   41.2100   85.6510 C.3   902  STU902      0.1915
      7  C26       24.9930   41.8100   86.9990 C.3   902  STU902      0.0566
      8  N2        24.2780   40.1970   85.2480 N.ar  902  STU902     -0.3054
      9  C18       24.6010   39.1450   84.4020 C.ar  902  STU902      0.0774
     10  C19       25.7640   38.7730   83.8530 C.ar  902  STU902      0.0783
     11  C6        25.8580   37.6050   82.9960 C.ar  902  STU902      0.0293
     12  C7        24.6030   36.9020   82.8010 C.ar  902  STU902      0.0822
     13  C10       23.4750   37.2770   83.3410 C.ar  902  STU902      0.0154
     14  C11       23.3800   38.4270   84.1690 C.ar  902  STU902      0.0173
     15  C12       22.3390   39.0760   84.8530 C.ar  902  STU902      0.0171
     16  C17       22.8980   40.2240   85.5340 C.ar  902  STU902      0.0617
     17  C16       22.0830   41.0460   86.2570 C.ar  902  STU902      0.0172
     18  C15       20.7160   40.7690   86.3710 C.ar  902  STU902      0.0015
     19  C14       20.1710   39.6510   85.7140 C.ar  902  STU902      0.0001
     20  C13       20.9850   38.8160   84.9680 C.ar  902  STU902      0.0015
     21  C9        22.3300   36.3210   82.9540 C.3   902  STU902      0.1650
     22  N1        23.0820   35.4310   82.0890 N.2   902  STU902     -0.1976
     23  C8        24.3940   35.6570   81.9670 C.1   902  STU902      0.1501
     24  O5        25.2120   35.0240   81.3410 O.2   902  STU902     -0.2222
     25  C5        27.2200   37.4880   82.5790 C.ar  902  STU902      0.0180
     26  C20       27.9110   38.5650   83.1720 C.ar  902  STU902      0.0618
     27  C1        29.2910   38.7550   82.9560 C.ar  902  STU902      0.0172
     28  C2        29.9580   37.8370   82.1650 C.ar  902  STU902      0.0015
     29  C3        29.2690   36.7710   81.5670 C.ar  902  STU902      0.0001
     30  C4        27.8920   36.5950   81.7810 C.ar  902  STU902      0.0015
     31  N3        27.0650   39.2990   83.9090 N.ar  902  STU902     -0.3039
     32  O6        25.2690   41.8980   83.2850 O.3   902  STU902     -0.3478
     33  C27       24.0600   42.3660   82.7170 C.3   902  STU902      0.1743
     34  N4        27.2040   44.1350   83.9250 N.3   902  STU902     -0.2152
     35  C28       28.6840   44.3170   83.7150 C.3   902  STU902      0.1075
@<TRIPOS>BOND
     1    24    23    2
     2    29    30   ar
     3    29    28   ar
     4    30    25   ar
     5    23    22    2
     6    23    12    1
     7    22    21    1
     8    28    27   ar
     9    25    11   ar
    10    25    26   ar
    11    33    32    1
    12    12    11   ar
    13    12    13   ar
    14    21    13    1
    15    27    26   ar
    16    11    10   ar
    17    26    31   ar
    18    32     5    1
    19    13    14   ar
    20    35    34    1
    21    10    31   ar
    22    10     9   ar
    23    31     2    1
    24    34     4    1
    25     3     4    1
    26     3     2    1
    27    14     9   ar
    28    14    15   ar
    29     9     8   ar
    30     5     4    1
    31     5     6    1
    32     2     1    1
    33    15    20   ar
    34    15    16   ar
    35    20    19   ar
    36     8    16   ar
    37     8     6    1
    38    16    17   ar
    39     6     1    1
    40     6     7    1
    41    19    18   ar
    42    17    18   ar
