@<TRIPOS>MOLECULE
1qpe_PP2_A_1.pdb
 24 26 0 0 0
SMALL
GASTEIGER

@<TRIPOS>ATOM
      1  C1        25.3570   37.1410   83.3590 C.2   1904  PP21904     0.3520
      2  N2        26.3410   36.6570   82.5560 N.2   1904  PP21904    -0.0052
      3  C3        25.9990   35.6530   81.7810 C.3   1904  PP21904     0.5251
      4  N4        24.7390   35.1270   81.7880 N.2   1904  PP21904    -0.0075
      5  C5        23.7410   35.5340   82.5440 C.2   1904  PP21904     0.3266
      6  C6        24.0410   36.6380   83.4210 C.2   1904  PP21904     0.1815
      7  C8        23.2900   37.3920   84.3180 C.2   1904  PP21904     0.0960
      8  N9        24.0960   38.3650   84.7990 N.pl3 1904  PP21904    -0.1913
      9  N10       25.3550   38.2130   84.2400 N.pl3 1904  PP21904    -0.1160
     10  C11       21.9410   37.1830   84.8550 C.ar  1904  PP21904     0.0170
     11  C12       21.5890   35.9510   85.4520 C.ar  1904  PP21904     0.0022
     12  C13       20.3660   35.7620   86.1120 C.ar  1904  PP21904     0.0114
     13  C14       19.4670   36.8480   86.1570 C.ar  1904  PP21904     0.0577
     14  C15       19.7750   38.0810   85.5950 C.ar  1904  PP21904     0.0114
     15  C16       21.0480   38.2860   84.9010 C.ar  1904  PP21904     0.0022
     16  C22       26.5070   39.1390   84.6030 C.3   1904  PP21904     0.1472
     17  C23       26.9570   39.8980   83.2930 C.3   1904  PP21904     0.0488
     18  C24       27.6460   38.5070   85.4450 C.3   1904  PP21904     0.0488
     19  C25       26.0500   40.2190   85.7040 C.3   1904  PP21904     0.0488
     20  N25       22.4580   35.0320   82.3980 N.pl3 1904  PP21904    -0.2461
     21 CL         17.8600   36.6550   86.8930 Cl    1904  PP21904    -0.0822
     22  H1        23.8590   38.9380   85.5520 H     1904  PP21904     0.1947
     23  H2        21.7030   35.4580   82.8950 H     1904  PP21904     0.2884
     24  H3        22.3270   34.2620   81.7770 H     1904  PP21904     0.2884
@<TRIPOS>BOND
     1    24    20    1
     2     3     4    1
     3     3     2    1
     4     4     5    2
     5    20     5    1
     6    20    23    1
     7     5     6    1
     8     2     1    2
     9    17    16    1
    10     1     6    1
    11     1     9    1
    12     6     7    2
    13     9    16    1
    14     9     8    1
    15     7     8    1
    16     7    10    1
    17    16    18    1
    18    16    19    1
    19     8    22    1
    20    10    15   ar
    21    10    11   ar
    22    15    14   ar
    23    11    12   ar
    24    14    13   ar
    25    12    13   ar
    26    13    21    1
