@<TRIPOS>MOLECULE
1qpf_B7G_A_1.pdb
 19 19 0 0 0
SMALL
GASTEIGER

@<TRIPOS>ATOM
      1  C5        -6.4800   42.3350  109.4830 C.3   109  B7G109      0.1835
      2  O5        -6.2380   42.1410  108.0770 O.3   109  B7G109     -0.3256
      3  C1        -7.2160   42.6970  107.1920 C.3   109  B7G109      0.2695
      4  C2        -8.6190   42.1270  107.4830 C.3   109  B7G109      0.2406
      5  C3        -8.9530   42.5310  108.9190 C.3   109  B7G109      0.2198
      6  C4        -7.9400   41.9020  109.8610 C.3   109  B7G109      0.2144
      7  C6        -5.4160   41.4820  110.2140 C.3   109  B7G109      0.2142
      8  O1        -6.7980   42.5060  105.8140 O.3   109  B7G109     -0.3286
      9  C7        -5.4980   43.0520  105.5530 C.3   109  B7G109      0.1449
     10  C8        -4.9690   42.7340  104.1400 C.3   109  B7G109      0.0322
     11  C9        -3.4650   43.0520  103.9320 C.3   109  B7G109      0.0026
     12  C10       -2.4040   42.1590  104.6250 C.3   109  B7G109      0.0001
     13  C11       -2.1470   40.7910  103.9560 C.3   109  B7G109      0.0000
     14  C12       -1.2760   39.8170  104.7810 C.3   109  B7G109      0.0000
     15  O2        -9.5410   42.6230  106.5400 O.3   109  B7G109     -0.2149
     16  O3       -10.2520   42.1670  109.3320 O.3   109  B7G109     -0.2174
     17  O4        -8.2580   42.3060  111.1830 O.3   109  B7G109     -0.2176
     18  O6        -5.0280   40.3380  109.4290 O.3   109  B7G109     -0.2176
     19  C13       -0.9130   38.5210  104.0230 C.3   109  B7G109      0.0000
@<TRIPOS>BOND
     1    11    10    1
     2    11    12    1
     3    13    12    1
     4    13    14    1
     5    19    14    1
     6    10     9    1
     7     9     8    1
     8     8     3    1
     9    15     4    1
    10     3     4    1
    11     3     2    1
    12     4     5    1
    13     2     1    1
    14     5    16    1
    15     5     6    1
    16    18     7    1
    17     1     6    1
    18     1     7    1
    19     6    17    1
