@<TRIPOS>MOLECULE
1qpg_3PG_A_1.pdb
 11 10 0 0 0
SMALL
GASTEIGER

@<TRIPOS>ATOM
      1  C1        22.0000   13.0990   11.9110 C.2   451  3PG451      0.3972
      2  O1        21.1510   13.2740   11.0650 O.co2 451  3PG451     -0.2427
      3  O2        23.1560   13.0940   11.5240 O.co2 451  3PG451     -0.2427
      4  C2        21.6370   12.8960   13.3640 C.3   451  3PG451      0.2838
      5  O3        22.2140   13.8880   14.2850 O.3   451  3PG451     -0.2081
      6  C3        21.9390   11.4600   13.6270 C.3   451  3PG451      0.1983
      7  O1P       20.7520   10.6600   13.7480 O.3   451  3PG451     -0.2669
      8  P         20.1090   10.2380   15.2640 P.3   451  3PG451      0.5327
      9  O2P       18.5830   10.4420   15.1930 O.2   451  3PG451     -0.2224
     10  O3P       20.6590    8.8440   15.6370 O.3   451  3PG451     -0.1145
     11  O4P       20.7990   11.2760   16.1370 O.3   451  3PG451     -0.1145
@<TRIPOS>BOND
     1     2     1   ar
     2     3     1   ar
     3     1     4    1
     4     4     6    1
     5     4     5    1
     6     6     7    1
     7     7     8    1
     8     9     8    2
     9     8    10    1
    10     8    11    1
