@<TRIPOS>MOLECULE
1qpg_MAP_A_1.pdb
 32 35 0 0 0
SMALL
GASTEIGER

@<TRIPOS>ATOM
      1  PG        30.6590   15.0490   22.8680 P.3   450  MAP450      0.0000
      2  O1G       29.4680   15.1450   23.7640 O.3   450  MAP450      0.0000
      3  O2G       30.3560   15.5390   21.4850 O.2   450  MAP450      0.0000
      4  O3G       31.1540   13.6390   22.8370 O.3   450  MAP450      0.0000
      5  PB        32.0340   17.8530   23.8030 P.3   450  MAP450      0.0000
      6  O1B       30.7710   18.3270   23.1490 O.3   450  MAP450      0.0000
      7  O2B       33.1840   18.5280   23.1350 O.2   450  MAP450      0.0000
      8  N3B       32.1050   16.1080   23.4440 N.3   450  MAP450      0.0000
      9  PA        30.9960   17.5930   26.4540 P.3   450  MAP450      0.0000
     10  O1A       31.2660   16.4560   27.3520 O.2   450  MAP450      0.0000
     11  O2A       29.5380   17.6810   26.1850 O.3   450  MAP450      0.0000
     12  O3A       31.9920   17.9550   25.3280 O.3   450  MAP450      0.0000
     13  O5'       31.1170   18.8210   27.4790 O.3   450  MAP450      0.0000
     14  C5'       31.4720   20.1860   27.2630 C.3   450  MAP450      0.0000
     15  C4'       30.7620   20.9160   28.4040 C.3   450  MAP450      0.0000
     16  O4'       31.3990   20.4590   29.6030 O.3   450  MAP450      0.0000
     17  C3'       30.9140   22.4240   28.4540 C.3   450  MAP450      0.0000
     18  O3'       30.0480   23.0830   29.4450 O.3   450  MAP450      0.0000
     19  C2'       32.3370   22.4530   29.0100 C.3   450  MAP450      0.0000
     20  O2'       32.6370   23.8280   29.3120 O.3   450  MAP450      0.0000
     21  C1'       31.9240   21.6510   30.2260 C.3   450  MAP450      0.0000
     22  N9        33.0790   21.4070   31.1510 N.pl3 450  MAP450      0.5000
     23  C8        34.4420   21.4820   30.9370 C.3   450  MAP450      0.0000
     24  N7        35.1450   21.5150   32.0310 N.2   450  MAP450      0.0000
     25  C5        34.1840   21.4480   33.0300 C.2   450  MAP450      0.0000
     26  C6        34.2820   21.4850   34.4280 C.2   450  MAP450      0.0000
     27  N6        35.4450   21.6600   35.0550 N.pl3 450  MAP450      0.5000
     28  N1        33.1450   21.3660   35.1330 N.2   450  MAP450      0.5000
     29  C2        31.9850   21.2800   34.4690 C.3   450  MAP450      0.0000
     30  N3        31.7630   21.2680   33.1640 N.2   450  MAP450      0.5000
     31  C4        32.9320   21.3510   32.5040 C.2   450  MAP450      0.0000
     32 MG         28.7340   17.4030   24.1650 Mg    450  MAP450      0.0000
@<TRIPOS>BOND
     1     3     1    2
     2     4     1    1
     3     1     8    1
     4     1     2    1
     5     7     5    2
     6     6     5    1
     7     8     5    1
     8     2    32    1
     9     5    12    1
    10    32    11    1
    11    12     9    1
    12    11     9    1
    13     9    10    2
    14     9    13    1
    15    14    13    1
    16    14    15    1
    17    15    17    1
    18    15    16    1
    19    17    19    1
    20    17    18    1
    21    19    20    1
    22    19    21    1
    23    16    21    1
    24    21    22    1
    25    23    22    1
    26    23    24    1
    27    22    31    1
    28    24    25    2
    29    31    25    1
    30    31    30    2
    31    25    26    1
    32    30    29    1
    33    26    27    1
    34    26    28    2
    35    29    28    1
