@<TRIPOS>MOLECULE
1qpj_STU_A_1.pdb
 37 44 0 0 0
SMALL
GASTEIGER

@<TRIPOS>ATOM
      1  O4        23.3760   15.9620   13.2620 O.3   902  STU902     -0.3186
      2  C25       24.0370   14.7330   13.4740 C.3   902  STU902      0.2078
      3  C24       24.1190   13.9010   12.1720 C.3   902  STU902      0.0723
      4  C23       23.3380   14.6790   11.0140 C.3   902  STU902      0.0904
      5  C22       21.9470   15.1070   11.5370 C.3   902  STU902      0.1745
      6  C21       22.1050   16.1080   12.6680 C.3   902  STU902      0.1915
      7  C26       21.9930   17.5290   12.1220 C.3   902  STU902      0.0566
      8  N2        21.1050   15.9150   13.7440 N.ar  902  STU902     -0.3054
      9  C18       21.2730   15.0920   14.9390 C.ar  902  STU902      0.0773
     10  C19       22.4240   14.2940   15.3560 C.ar  902  STU902      0.0777
     11  C6        22.3470   13.4720   16.5780 C.ar  902  STU902      0.0228
     12  C7        21.2010   13.5120   17.3060 C.ar  902  STU902      0.0525
     13  C10       20.0980   14.2780   16.9210 C.ar  902  STU902      0.0033
     14  C11       20.0780   15.0410   15.7850 C.ar  902  STU902      0.0164
     15  C12       19.2510   15.8610   15.0080 C.ar  902  STU902      0.0170
     16  C17       19.8130   16.3980   13.8040 C.ar  902  STU902      0.0617
     17  C16       19.0770   17.1820   12.9310 C.ar  902  STU902      0.0172
     18  C15       17.7230   17.4930   13.1950 C.ar  902  STU902      0.0015
     19  C14       17.1180   16.9980   14.3710 C.ar  902  STU902      0.0001
     20  C13       17.8770   16.1720   15.2960 C.ar  902  STU902      0.0015
     21  C9        19.0440   14.0630   17.9200 C.3   902  STU902      0.1168
     22  N1        19.6190   13.0090   18.7730 N.am  902  STU902     -0.2969
     23  C8        20.8780   12.7790   18.5020 C.2   902  STU902      0.2459
     24  O5        21.6180   12.0480   19.1440 O.2   902  STU902     -0.2701
     25  C5        23.6390   12.8610   16.5430 C.ar  902  STU902      0.0174
     26  C20       24.3890   13.2480   15.4730 C.ar  902  STU902      0.0618
     27  C1        25.6730   12.7570   15.2960 C.ar  902  STU902      0.0172
     28  C2        26.2620   11.8350   16.1840 C.ar  902  STU902      0.0015
     29  C3        25.4470   11.4420   17.2980 C.ar  902  STU902      0.0001
     30  C4        24.1790   11.9320   17.4590 C.ar  902  STU902      0.0015
     31  N3        23.6140   14.1280   14.7310 N.ar  902  STU902     -0.3039
     32  O6        21.3420   13.9240   12.0050 O.3   902  STU902     -0.3478
     33  C27       19.9850   13.7890   11.7350 C.3   902  STU902      0.1743
     34  N4        23.1590   13.8460    9.7560 N.3   902  STU902     -0.2952
     35  C28       24.4090   13.3920    9.2020 C.3   902  STU902      0.0859
     36  HN1       19.0210   12.4660   19.3470 H     902  STU902      0.1501
     37  HN4       22.5850   13.0400    9.9670 H     902  STU902      0.1233
@<TRIPOS>BOND
     1    35    34    1
     2    34    37    1
     3    34     4    1
     4     4     5    1
     5     4     3    1
     6     5    32    1
     7     5     6    1
     8    33    32    1
     9     7     6    1
    10     3     2    1
    11     6     1    1
    12     6     8    1
    13    17    18   ar
    14    17    16   ar
    15    18    19   ar
    16     1     2    1
    17     2    31    1
    18     8    16   ar
    19     8     9   ar
    20    16    15   ar
    21    19    20   ar
    22    31    10   ar
    23    31    26   ar
    24     9    10   ar
    25     9    14   ar
    26    15    20   ar
    27    15    14   ar
    28    27    26   ar
    29    27    28   ar
    30    10    11   ar
    31    26    25   ar
    32    14    13   ar
    33    28    29   ar
    34    25    11   ar
    35    25    30   ar
    36    11    12   ar
    37    13    12   ar
    38    13    21    1
    39    29    30   ar
    40    12    23    1
    41    21    22    1
    42    23    22   am
    43    23    24    2
    44    22    36    1
