@<TRIPOS>MOLECULE
1qpk_MTT_A_1.pdb
 45 48 0 0 0
SMALL
GASTEIGER

@<TRIPOS>ATOM
      1  O14       35.3830   86.3740   10.5730 O.3   460  MTT460     -0.2176
      2  C14       36.6260   86.7080   11.1250 C.3   460  MTT460      0.2144
      3  C13       37.5770   87.1620   10.0180 C.3   460  MTT460      0.2198
      4  O13       37.8320   86.1770    9.0580 O.3   460  MTT460     -0.2174
      5  C12       38.8600   87.6770   10.6480 C.3   460  MTT460      0.2406
      6  O12       39.7140   88.1970    9.6340 O.3   460  MTT460     -0.2149
      7  C11       38.6090   88.7760   11.6550 C.3   460  MTT460      0.2695
      8  C15       36.3870   87.9140   12.0320 C.3   460  MTT460      0.1835
      9  O15       37.6450   88.3420   12.5890 O.3   460  MTT460     -0.3256
     10  C16       35.5310   87.6240   13.2270 C.3   460  MTT460      0.2142
     11  O16       36.2790   86.7830   14.1050 O.3   460  MTT460     -0.2176
     12  O24       38.0980   89.9890   11.1250 O.3   460  MTT460     -0.3257
     13  C24       38.8790   91.1580   11.1930 C.3   460  MTT460      0.1804
     14  C23       38.7700   91.8310    9.8320 C.3   460  MTT460      0.2167
     15  O23       39.4000   91.1240    8.7720 O.3   460  MTT460     -0.2175
     16  C22       39.5230   93.1460    9.9030 C.3   460  MTT460      0.2404
     17  O22       39.3930   93.7750    8.6350 O.3   460  MTT460     -0.2149
     18  C21       39.0100   93.9860   11.0140 C.3   460  MTT460      0.2695
     19  C25       38.3550   92.0550   12.3200 C.3   460  MTT460      0.1803
     20  O25       39.1050   93.2710   12.2540 O.3   460  MTT460     -0.3257
     21  C26       38.5590   91.5260   13.7140 C.3   460  MTT460      0.2141
     22  O26       39.9420   91.7100   14.0640 O.3   460  MTT460     -0.2176
     23  O34       37.7350   94.5760   10.8330 O.3   460  MTT460     -0.3257
     24  C34       37.4850   95.8890   11.1850 C.3   460  MTT460      0.1804
     25  C33       37.0220   96.6630    9.9640 C.3   460  MTT460      0.2167
     26  O33       37.9270   96.6140    8.8880 O.3   460  MTT460     -0.2175
     27  C32       36.8820   98.1350   10.3390 C.3   460  MTT460      0.2404
     28  O32       36.4080   98.8120    9.1800 O.3   460  MTT460     -0.2149
     29  C31       36.0280   98.3010   11.5370 C.3   460  MTT460      0.2696
     30  C35       36.5000   96.0430   12.3380 C.3   460  MTT460      0.1803
     31  O35       36.4240   97.4350   12.6030 O.3   460  MTT460     -0.3257
     32  C36       36.9320   95.3750   13.6180 C.3   460  MTT460      0.2141
     33  O36       38.1700   95.8790   14.1080 O.3   460  MTT460     -0.2176
     34  O44       34.6900   98.1320   11.2320 O.3   460  MTT460     -0.3245
     35  C44       33.5890   98.6270   11.8980 C.3   460  MTT460      0.1936
     36  C43       33.3500  100.0530   11.3620 C.3   460  MTT460      0.2238
     37  O43       34.4830  100.9020   11.5720 O.3   460  MTT460     -0.2170
     38  C42       32.1860  100.6660   12.1240 C.3   460  MTT460      0.2821
     39  O42       31.8790  101.9330   11.6250 O.3   460  MTT460     -0.2082
     40  C41       31.0860   99.7380   12.4570 C.2   460  MTT460      0.3505
     41  O41       29.8290  100.2420   12.3780 O.2   460  MTT460     -0.2472
     42  C45       32.3510   97.7680   11.6010 C.3   460  MTT460      0.2312
     43  O45       31.1920   98.3830   12.1090 O.3   460  MTT460     -0.4451
     44  C46       32.3740   96.3400   12.0890 C.3   460  MTT460      0.2280
     45  O46       32.4910   96.3600   13.5310 O.3   460  MTT460     -0.2163
@<TRIPOS>BOND
     1    17    16    1
     2    15    14    1
     3    26    25    1
     4     4     3    1
     5    28    27    1
     6     6     5    1
     7    14    16    1
     8    14    13    1
     9    16    18    1
    10    25    27    1
    11    25    24    1
    12     3     5    1
    13     3     2    1
    14    27    29    1
    15     1     2    1
    16     5     7    1
    17    23    18    1
    18    23    24    1
    19    18    20    1
    20     2     8    1
    21    12    13    1
    22    12     7    1
    23    24    30    1
    24    13    19    1
    25    34    29    1
    26    34    35    1
    27    36    37    1
    28    36    35    1
    29    36    38    1
    30    29    31    1
    31    42    35    1
    32    42    44    1
    33    42    43    1
    34    39    38    1
    35     7     9    1
    36     8     9    1
    37     8    10    1
    38    44    45    1
    39    43    40    1
    40    38    40    1
    41    20    19    1
    42    19    21    1
    43    30    31    1
    44    30    32    1
    45    41    40    2
    46    10    11    1
    47    32    33    1
    48    21    22    1
