@<TRIPOS>MOLECULE
1qpn_NCN_A_1.pdb
 22 23 0 0 0
SMALL
GASTEIGER

@<TRIPOS>ATOM
      1  P         -8.6920   45.5060   15.8930 P.3   2901  NCN2901     0.5327
      2  O1P       -9.3230   44.3470   15.0970 O.2   2901  NCN2901    -0.2224
      3  O2P       -7.2240   45.2520   16.3530 O.3   2901  NCN2901    -0.1145
      4  O3P       -8.8330   46.8530   15.1620 O.3   2901  NCN2901    -0.1145
      5  O5'       -9.5870   45.5800   17.3250 O.3   2901  NCN2901    -0.2675
      6  C5'      -10.8340   46.3390   17.4470 C.3   2901  NCN2901     0.1859
      7  C4'      -12.1830   45.6970   16.9530 C.3   2901  NCN2901     0.1801
      8  O4'      -12.4890   44.4560   17.5980 O.3   2901  NCN2901    -0.3327
      9  C3'      -13.4970   46.5560   17.2900 C.3   2901  NCN2901     0.2158
     10  O3'      -13.6670   47.9350   16.7000 O.3   2901  NCN2901    -0.2175
     11  C2'      -14.5650   45.6150   16.7670 C.3   2901  NCN2901     0.2309
     12  O2'      -14.8860   45.7990   15.3130 O.3   2901  NCN2901    -0.2158
     13  C1'      -13.9880   44.2410   17.3800 C.3   2901  NCN2901     0.2263
     14  N1       -14.4760   43.7700   18.7810 N.pl3 2901  NCN2901    -0.2787
     15  C6       -14.1080   44.5600   19.9410 C.3   2901  NCN2901     0.1195
     16  C5       -14.5130   44.1520   21.2630 C.2   2901  NCN2901    -0.0044
     17  C4       -15.2640   42.9860   21.4010 C.2   2901  NCN2901     0.0050
     18  C3       -15.6500   42.1680   20.2890 C.2   2901  NCN2901     0.0940
     19  C2       -15.2530   42.5720   18.9940 C.2   2901  NCN2901     0.0699
     20  C7       -16.4730   40.9030   20.6390 C.2   2901  NCN2901     0.3890
     21  O7       -16.1490   40.2290   21.7290 O.co2 2901  NCN2901    -0.2405
     22  O8       -17.4180   40.5700   19.7890 O.co2 2901  NCN2901    -0.2405
@<TRIPOS>BOND
     1     2     1    2
     2     4     1    1
     3    12    11    1
     4     1     3    1
     5     1     5    1
     6    10     9    1
     7    11     9    1
     8    11    13    1
     9     7     9    1
    10     7     6    1
    11     7     8    1
    12     5     6    1
    13    13     8    1
    14    13    14    1
    15    14    19    1
    16    14    15    1
    17    19    18    2
    18    22    20   ar
    19    15    16    1
    20    18    20    1
    21    18    17    1
    22    20    21   ar
    23    16    17    2
