@<TRIPOS>MOLECULE
1qpq_NTM_A_1.pdb
 12 12 0 0 0
SMALL
GASTEIGER

@<TRIPOS>ATOM
      1  N1       -14.6620   43.3280   18.2620 N.ar  2901  NTM2901    -0.2370
      2  C2       -15.5100   42.3230   18.0870 C.ar  2901  NTM2901     0.1671
      3  C3       -16.2580   41.8330   19.1850 C.ar  2901  NTM2901     0.1039
      4  C4       -16.0480   42.4350   20.4340 C.ar  2901  NTM2901     0.0099
      5  C5       -15.1510   43.5060   20.5570 C.ar  2901  NTM2901     0.0209
      6  C6       -14.4630   43.9250   19.4260 C.ar  2901  NTM2901     0.0991
      7  C7       -15.6010   41.7780   16.7130 C.2   2901  NTM2901     0.4053
      8  O1       -16.1490   42.4130   15.7990 O.co2 2901  NTM2901    -0.2388
      9  O2       -15.0980   40.6290   16.4840 O.co2 2901  NTM2901    -0.2388
     10  C8       -17.2800   40.6930   19.1530 C.2   2901  NTM2901     0.3894
     11  O3       -18.1020   40.6000   18.1690 O.co2 2901  NTM2901    -0.2405
     12  O4       -17.2890   39.8380   20.0870 O.co2 2901  NTM2901    -0.2405
@<TRIPOS>BOND
     1     8     7   ar
     2     9     7   ar
     3     7     2    1
     4     2     1   ar
     5     2     3   ar
     6    11    10   ar
     7     1     6   ar
     8    10     3    1
     9    10    12   ar
    10     3     4   ar
    11     6     5   ar
    12     4     5   ar
