@<TRIPOS>MOLECULE
1qpr_PHT_A_1.pdb
 12 12 0 0 0
SMALL
GASTEIGER

@<TRIPOS>ATOM
      1  O8       -18.1220   40.6030   18.1460 O.co2   1  PHT1       -0.2405
      2  O9       -17.3480   39.9400   20.1090 O.co2   1  PHT1       -0.2405
      3  C10      -15.6220   41.7530   16.6620 C.2     1  PHT1        0.3880
      4  O11      -16.0770   42.4570   15.7210 O.co2   1  PHT1       -0.2405
      5  O12      -15.2310   40.5850   16.4220 O.co2   1  PHT1       -0.2405
      6  C7       -17.2780   40.7100   19.1340 C.2     1  PHT1        0.3880
      7  C1       -14.5640   43.2920   18.2360 C.ar    1  PHT1        0.0068
      8  C2       -15.4860   42.2680   18.0350 C.ar    1  PHT1        0.0861
      9  C3       -16.2020   41.8030   19.1320 C.ar    1  PHT1        0.0861
     10  C4       -15.9150   42.3920   20.3870 C.ar    1  PHT1        0.0068
     11  C5       -15.0670   43.4630   20.5110 C.ar    1  PHT1        0.0002
     12  C6       -14.3720   43.8660   19.4210 C.ar    1  PHT1        0.0002
@<TRIPOS>BOND
     1     4     3   ar
     2     5     3   ar
     3     3     8    1
     4     8     7   ar
     5     8     9   ar
     6     1     6   ar
     7     7    12   ar
     8     9     6    1
     9     9    10   ar
    10     6     2   ar
    11    12    11   ar
    12    10    11   ar
