@<TRIPOS>MOLECULE
1qpr_PPC_A_1.pdb
 22 22 0 0 0
SMALL
GASTEIGER

@<TRIPOS>ATOM
      1  C1       -14.4760   45.4710   14.9600 C.3   288  PPC288      0.2760
      2  C2       -14.6490   46.0950   16.2280 C.3   288  PPC288      0.2408
      3  C3       -13.6100   46.9990   16.3900 C.3   288  PPC288      0.2167
      4  C4       -12.4670   46.4680   15.8260 C.3   288  PPC288      0.1808
      5  C5       -11.7600   45.2630   16.6800 C.3   288  PPC288      0.1859
      6  O1       -15.2850   46.0680   13.7700 O.3   288  PPC288     -0.2638
      7  O2       -16.2340   46.5430   16.5610 O.3   288  PPC288     -0.2149
      8  O3       -13.7990   48.3040   15.5640 O.3   288  PPC288     -0.2175
      9  P         -9.1260   45.6930   15.9070 P.3   288  PPC288      0.5327
     10  O1P       -9.3470   46.8860   15.1830 O.3   288  PPC288     -0.1145
     11  O2P       -7.8920   45.7120   16.5730 O.3   288  PPC288     -0.1145
     12  O3P       -9.1680   44.6650   14.9680 O.2   288  PPC288     -0.2224
     13  PA       -14.5810   45.9530   12.1200 P.3   288  PPC288      0.3788
     14  O1A      -13.0310   46.4080   12.2280 O.3   288  PPC288     -0.1393
     15  O2A      -14.6370   44.4560   11.5800 O.2   288  PPC288     -0.2549
     16  PB       -15.2710   48.6330   11.2760 P.3   288  PPC288      0.1295
     17  O1B      -15.6500   49.1290   12.9570 O.3   288  PPC288     -0.3567
     18  O2B      -16.3390   49.4510   10.2310 O.2   288  PPC288     -0.4595
     19  O3B      -13.6910   49.1850   10.9350 O.3   288  PPC288     -0.3567
     20  C3A      -15.4190   46.9450   11.0050 C.3   288  PPC288      0.1766
     21  O5       -10.2580   45.5560   17.1220 O.3   288  PPC288     -0.2675
     22  O4       -13.1020   45.7600   14.6460 O.3   288  PPC288     -0.3255
@<TRIPOS>BOND
     1    18    16    2
     2    19    16    1
     3    20    16    1
     4    20    13    1
     5    16    17    1
     6    15    13    2
     7    13    14    1
     8    13     6    1
     9     6     1    1
    10    22     1    1
    11    22     4    1
    12     1     2    1
    13    12     9    2
    14    10     9    1
    15     8     3    1
    16     4     3    1
    17     4     5    1
    18     9    11    1
    19     9    21    1
    20     2     3    1
    21     2     7    1
    22     5    21    1
