@<TRIPOS>MOLECULE
1qpw_HEM_A_1.pdb
 43 50 0 0 0
SMALL
GASTEIGER

@<TRIPOS>ATOM
      1 FE          8.5470    4.6790   -2.6650 Fe    650  HEM650      0.0000
      2  CHA        6.9430    6.6450   -4.9120 C.2   650  HEM650      0.0000
      3  CHB       10.0080    2.9940   -5.2240 C.2   650  HEM650      0.0000
      4  CHC       10.4050    2.9760   -0.4360 C.2   650  HEM650      0.0000
      5  CHD        7.1280    6.4170   -0.0500 C.2   650  HEM650      0.0000
      6  NA         8.4690    4.7660   -4.6420 N.ar  650  HEM650      0.0000
      7  C1A        7.7030    5.6060   -5.4330 C.ar  650  HEM650      0.0000
      8  C2A        7.6950    5.1380   -6.8170 C.ar  650  HEM650      0.0000
      9  C3A        8.5530    4.1040   -6.8900 C.ar  650  HEM650      0.0000
     10  C4A        9.0690    3.9260   -5.5560 C.ar  650  HEM650      0.0000
     11  CMA        8.8110    3.1810   -8.0850 C.3   650  HEM650      0.0000
     12  CAA        6.6950    5.4570   -7.9250 C.3   650  HEM650      0.0000
     13  CBA        6.8460    6.7950   -8.5740 C.3   650  HEM650      0.0000
     14  CGA        6.4600    6.8080  -10.0370 C.2   650  HEM650      0.0000
     15  O1A        5.3090    6.4570  -10.3550 O.co2 650  HEM650      0.0000
     16  O2A        7.3160    7.2020  -10.8380 O.co2 650  HEM650      0.0000
     17  NB         9.8930    3.2860   -2.8090 N.2   650  HEM650      0.0000
     18  C1B       10.3920    2.6860   -3.9300 C.2   650  HEM650      0.0000
     19  C2B       11.2890    1.5870   -3.6180 C.2   650  HEM650      0.0000
     20  C3B       11.4490    1.5770   -2.2630 C.2   650  HEM650      0.0000
     21  C4B       10.5490    2.6530   -1.7650 C.2   650  HEM650      0.0000
     22  CMB       11.8670    0.5710   -4.6120 C.3   650  HEM650      0.0000
     23  CAB       12.4160    0.8650   -1.5300 C.3   650  HEM650      0.0000
     24  CBB       12.3340   -0.5450   -1.1960 C.3   650  HEM650      0.0000
     25  NC         8.7040    4.6620   -0.6670 N.ar  650  HEM650      0.0000
     26  C1C        9.5540    3.8980    0.1180 C.ar  650  HEM650      0.0000
     27  C2C        9.2550    4.0770    1.5290 C.ar  650  HEM650      0.0000
     28  C3C        8.2930    4.9880    1.6410 C.ar  650  HEM650      0.0000
     29  C4C        7.9780    5.3910    0.2860 C.ar  650  HEM650      0.0000
     30  CMC        9.8930    3.2860    2.6470 C.3   650  HEM650      0.0000
     31  CAC        7.7090    5.5180    2.7970 C.3   650  HEM650      0.0000
     32  CBC        7.2000    4.8020    3.9920 C.3   650  HEM650      0.0000
     33  ND         7.3510    6.1910   -2.5090 N.2   650  HEM650      0.0000
     34  C1D        6.8420    6.8260   -1.3290 C.2   650  HEM650      0.0000
     35  C2D        5.8830    7.8660   -1.6060 C.2   650  HEM650      0.0000
     36  C3D        5.8080    7.9070   -2.9560 C.2   650  HEM650      0.0000
     37  C4D        6.7430    6.9220   -3.5320 C.2   650  HEM650      0.0000
     38  CMD        5.0710    8.6980   -0.5830 C.3   650  HEM650      0.0000
     39  CAD        4.8380    8.7720   -3.7600 C.3   650  HEM650      0.0000
     40  CBD        3.4320    8.1650   -3.7860 C.3   650  HEM650      0.0000
     41  CGD        2.6620    8.7810   -4.9310 C.2   650  HEM650      0.0000
     42  O1D        2.8890    8.3400   -6.0630 O.co2 650  HEM650      0.0000
     43  O2D        1.8380    9.6660   -4.7050 O.co2 650  HEM650      0.0000
@<TRIPOS>BOND
     1    16    14   ar
     2    15    14   ar
     3    14    13    1
     4    13    12    1
     5    11     9    1
     6    12     8    1
     7     9     8   ar
     8     9    10   ar
     9     8     7   ar
    10    42    41   ar
    11    10     3    2
    12    10     6   ar
    13     7     2    2
    14     7     6   ar
    15     3    18    1
    16    41    43   ar
    17    41    40    1
    18     2    37    1
    19     6     1    1
    20    22    19    1
    21    18    19    1
    22    18    17    2
    23    40    39    1
    24    39    36    1
    25    19    20    2
    26    37    36    1
    27    37    33    2
    28    36    35    2
    29    17     1    1
    30    17    21    1
    31     1    33    1
    32     1    25    1
    33    33    34    1
    34    20    21    1
    35    20    23    1
    36    21     4    2
    37    35    34    1
    38    35    38    1
    39    23    24    1
    40    34     5    2
    41    25    26   ar
    42    25    29   ar
    43     4    26    1
    44     5    29    1
    45    26    27   ar
    46    29    28   ar
    47    27    28   ar
    48    27    30    1
    49    28    31    1
    50    31    32    1
