@<TRIPOS>MOLECULE
1qpz_HPA_A_1.pdb
 10 11 0 0 0
SMALL
GASTEIGER

@<TRIPOS>ATOM
      1  N1        57.0030    2.5650  -10.9830 N.2   599  HPA599     -0.1726
      2  C2        57.7950    2.6010   -9.8580 C.3   599  HPA599      0.2725
      3  N3        58.4640    3.6660   -9.4460 N.2   599  HPA599     -0.1902
      4  C4        58.2750    4.7140  -10.2840 C.1   599  HPA599      0.0598
      5  C5        57.5080    4.7800  -11.4270 C.2   599  HPA599      0.2226
      6  C6        56.7830    3.6350  -11.8450 C.1   599  HPA599      0.1796
      7  O6        56.0300    3.4910  -12.8230 O.2   599  HPA599     -0.2200
      8  N7        57.5930    6.0480  -11.9880 N.2   599  HPA599     -0.2230
      9  C8        58.3860    6.7110  -11.1960 C.3   599  HPA599      0.2622
     10  N9        58.8330    5.9620  -10.1350 N.2   599  HPA599     -0.1910
@<TRIPOS>BOND
     1     7     6    2
     2     8     5    2
     3     8     9    1
     4     6     5    1
     5     6     1    2
     6     5     4    1
     7     9    10    1
     8     1     2    1
     9     4    10    2
    10     4     3    2
    11     2     3    1
