@<TRIPOS>MOLECULE
1qqa_HPA_A_1.pdb
 10 11 0 0 0
SMALL
GASTEIGER

@<TRIPOS>ATOM
      1  N1        56.8640    2.6500  -10.9850 N.2   599  HPA599     -0.1726
      2  C2        57.6750    2.6370   -9.8750 C.3   599  HPA599      0.2725
      3  N3        58.3710    3.6790   -9.4370 N.2   599  HPA599     -0.1902
      4  C4        58.1990    4.7720  -10.2210 C.1   599  HPA599      0.0598
      5  C5        57.4090    4.8930  -11.3420 C.2   599  HPA599      0.2226
      6  C6        56.6620    3.7670  -11.7900 C.1   599  HPA599      0.1796
      7  O6        55.8770    3.6520  -12.7390 O.2   599  HPA599     -0.2200
      8  N7        57.5040    6.1850  -11.8410 N.2   599  HPA599     -0.2230
      9  C8        58.3170    6.8100  -11.0350 C.3   599  HPA599      0.2622
     10  N9        58.7740    6.0090  -10.0220 N.2   599  HPA599     -0.1910
@<TRIPOS>BOND
     1     7     6    2
     2     8     5    2
     3     8     9    1
     4     6     5    1
     5     6     1    2
     6     5     4    1
     7     9    10    1
     8     1     2    1
     9     4    10    2
    10     4     3    2
    11     2     3    1
