@<TRIPOS>MOLECULE
1qqb_HPA_A_1.pdb
 10 11 0 0 0
SMALL
GASTEIGER

@<TRIPOS>ATOM
      1  N1        57.1960    2.6540  -10.9550 N.2   599  HPA599     -0.1726
      2  C2        58.0020    2.6440   -9.8410 C.3   599  HPA599      0.2725
      3  N3        58.6620    3.6920   -9.3740 N.2   599  HPA599     -0.1902
      4  C4        58.4550    4.7710  -10.1660 C.1   599  HPA599      0.0598
      5  C5        57.6620    4.8900  -11.2880 C.2   599  HPA599      0.2226
      6  C6        56.9450    3.7610  -11.7530 C.1   599  HPA599      0.1796
      7  O6        56.1620    3.6490  -12.7090 O.2   599  HPA599     -0.2200
      8  N7        57.7170    6.1850  -11.7880 N.2   599  HPA599     -0.2230
      9  C8        58.5390    6.8070  -10.9940 C.3   599  HPA599      0.2622
     10  N9        59.0000    6.0170   -9.9670 N.2   599  HPA599     -0.1910
@<TRIPOS>BOND
     1     7     6    2
     2     8     5    2
     3     8     9    1
     4     6     5    1
     5     6     1    2
     6     5     4    1
     7     9    10    1
     8     1     2    1
     9     4    10    2
    10     4     3    2
    11     2     3    1
