@<TRIPOS>MOLECULE
1qqm_ADP_A_1.pdb
 27 29 0 0 0
SMALL
GASTEIGER

@<TRIPOS>ATOM
      1  PB        17.3780   29.7220   16.6690 P.3   486  ADP486      0.5373
      2  O1B       16.9490   30.3870   17.9280 O.3   486  ADP486     -0.1143
      3  O2B       18.6460   28.7480   16.8740 O.3   486  ADP486     -0.1143
      4  O3B       16.2550   28.9230   16.1030 O.2   486  ADP486     -0.2221
      5  PA        19.2660   31.3340   15.1010 P.3   486  ADP486      0.2231
      6  O1A       20.3770   31.2540   16.0220 O.3   486  ADP486     -0.4370
      7  O2A       19.2650   32.1640   13.8920 O.2   486  ADP486     -0.5169
      8  O3A       17.8640   30.8650   15.7010 O.3   486  ADP486     -0.2261
      9  O5'       18.8560   32.8010   15.7540 O.3   486  ADP486     -0.3111
     10  C5'       18.5480   33.0430   17.1390 C.3   486  ADP486      0.1813
     11  C4'       19.2330   34.2620   17.8070 C.3   486  ADP486      0.1821
     12  O4'       20.4780   34.7870   17.2790 O.3   486  ADP486     -0.3135
     13  C3'       18.3190   35.4940   18.0610 C.3   486  ADP486      0.2184
     14  O3'       18.1930   35.8240   19.4480 O.3   486  ADP486     -0.2174
     15  C2'       18.9650   36.6290   17.2780 C.3   486  ADP486      0.2570
     16  O2'       18.6520   37.9390   17.8030 O.3   486  ADP486     -0.2130
     17  C1'       20.4050   36.2300   17.3700 C.3   486  ADP486      0.3186
     18  N9        21.2850   36.9400   16.3820 N.pl3 486  ADP486     -0.1439
     19  C8        21.2160   36.8820   15.0340 C.3   486  ADP486      0.3377
     20  N7        22.1800   37.6650   14.5110 N.2   486  ADP486     -0.2095
     21  C5        22.8600   38.2170   15.5060 C.2   486  ADP486      0.2526
     22  C6        23.9490   39.1030   15.6250 C.2   486  ADP486      0.4393
     23  N6        24.5520   39.5930   14.5310 N.pl3 486  ADP486      0.2180
     24  N1        24.4040   39.4730   16.8720 N.2   486  ADP486      0.0021
     25  C2        23.8290   39.0080   18.0150 C.3   486  ADP486      0.5254
     26  N3        22.7870   38.1620   17.9170 N.2   486  ADP486     -0.0055
     27  C4        22.2790   37.7470   16.7140 C.2   486  ADP486      0.3518
@<TRIPOS>BOND
     1     7     5    2
     2    20    19    1
     3    20    21    2
     4    23    22    1
     5    19    18    1
     6     5     8    1
     7     5     9    1
     8     5     6    1
     9    21    22    1
    10    21    27    1
    11    22    24    2
    12     8     1    1
    13     9    10    1
    14     4     1    2
    15    18    27    1
    16    18    17    1
    17     1     3    1
    18     1     2    1
    19    27    26    2
    20    24    25    1
    21    10    11    1
    22    15    17    1
    23    15    16    1
    24    15    13    1
    25    12    17    1
    26    12    11    1
    27    11    13    1
    28    26    25    1
    29    13    14    1
