@<TRIPOS>MOLECULE
1qqn_ADP_A_1.pdb
 27 29 0 0 0
SMALL
GASTEIGER

@<TRIPOS>ATOM
      1  PB        17.3650   29.5990   16.7110 P.3   486  ADP486      0.5373
      2  O1B       17.0330   30.1080   18.0720 O.3   486  ADP486     -0.1143
      3  O2B       18.5680   28.5220   16.7340 O.3   486  ADP486     -0.1143
      4  O3B       16.1590   28.9700   16.0930 O.2   486  ADP486     -0.2221
      5  PA        19.3920   31.3280   15.5020 P.3   486  ADP486      0.2231
      6  O1A       20.2170   31.6590   16.6680 O.3   486  ADP486     -0.4370
      7  O2A       19.6410   31.8310   14.1510 O.2   486  ADP486     -0.5169
      8  O3A       17.9190   30.8010   15.8480 O.3   486  ADP486     -0.2261
      9  O5'       18.7220   32.8140   15.6820 O.3   486  ADP486     -0.3111
     10  C5'       18.0690   33.3270   16.8860 C.3   486  ADP486      0.1813
     11  C4'       18.9660   34.2270   17.7740 C.3   486  ADP486      0.1821
     12  O4'       20.2610   34.6400   17.2520 O.3   486  ADP486     -0.3135
     13  C3'       18.2620   35.5140   18.2230 C.3   486  ADP486      0.2184
     14  O3'       18.3580   35.7310   19.6330 O.3   486  ADP486     -0.2174
     15  C2'       18.9550   36.6030   17.4380 C.3   486  ADP486      0.2570
     16  O2'       18.7510   37.9190   17.9860 O.3   486  ADP486     -0.2130
     17  C1'       20.3680   36.0770   17.4650 C.3   486  ADP486      0.3186
     18  N9        21.2580   36.7680   16.4610 N.pl3 486  ADP486     -0.1439
     19  C8        21.2000   36.6510   15.1120 C.3   486  ADP486      0.3377
     20  N7        22.1560   37.4200   14.5610 N.2   486  ADP486     -0.2095
     21  C5        22.8220   38.0240   15.5320 C.2   486  ADP486      0.2526
     22  C6        23.9050   38.9300   15.6150 C.2   486  ADP486      0.4393
     23  N6        24.5050   39.3760   14.4980 N.pl3 486  ADP486      0.2180
     24  N1        24.3520   39.3610   16.8490 N.2   486  ADP486      0.0021
     25  C2        23.7760   38.9420   18.0050 C.3   486  ADP486      0.5254
     26  N3        22.7410   38.0810   17.9390 N.2   486  ADP486     -0.0055
     27  C4        22.2400   37.6030   16.7600 C.2   486  ADP486      0.3518
@<TRIPOS>BOND
     1     7     5    2
     2    23    22    1
     3    20    19    1
     4    20    21    2
     5    19    18    1
     6     5     9    1
     7     5     8    1
     8     5     6    1
     9    21    22    1
    10    21    27    1
    11    22    24    2
    12     9    10    1
    13     8     1    1
    14     4     1    2
    15    18    27    1
    16    18    17    1
    17     1     3    1
    18     1     2    1
    19    27    26    2
    20    24    25    1
    21    10    11    1
    22    12    17    1
    23    12    11    1
    24    15    17    1
    25    15    16    1
    26    15    13    1
    27    11    13    1
    28    26    25    1
    29    13    14    1
