@<TRIPOS>MOLECULE
1qqo_ADP_A_1.pdb
 27 29 0 0 0
SMALL
GASTEIGER

@<TRIPOS>ATOM
      1  PB        17.4370   29.3150   16.6760 P.3   486  ADP486      0.5373
      2  O1B       17.1010   29.8860   18.0110 O.3   486  ADP486     -0.1143
      3  O2B       18.5870   28.2340   16.7560 O.3   486  ADP486     -0.1143
      4  O3B       16.2340   28.6970   16.0650 O.2   486  ADP486     -0.2221
      5  PA        19.5170   30.8730   15.4170 P.3   486  ADP486      0.2231
      6  O1A       20.4170   31.0200   16.5420 O.3   486  ADP486     -0.4370
      7  O2A       19.7450   31.4780   14.1160 O.2   486  ADP486     -0.5169
      8  O3A       18.0390   30.4580   15.8040 O.3   486  ADP486     -0.2261
      9  O5'       18.9510   32.3810   15.7360 O.3   486  ADP486     -0.3111
     10  C5'       18.3570   32.8300   16.9880 C.3   486  ADP486      0.1813
     11  C4'       19.1140   33.9580   17.7190 C.3   486  ADP486      0.1821
     12  O4'       20.3530   34.4720   17.1730 O.3   486  ADP486     -0.3135
     13  C3'       18.2590   35.2030   18.0480 C.3   486  ADP486      0.2184
     14  O3'       18.2830   35.5250   19.4390 O.3   486  ADP486     -0.2174
     15  C2'       18.8650   36.3070   17.2170 C.3   486  ADP486      0.2570
     16  O2'       18.5320   37.6190   17.7120 O.3   486  ADP486     -0.2130
     17  C1'       20.3080   35.9140   17.3090 C.3   486  ADP486      0.3186
     18  N9        21.2150   36.6370   16.3330 N.pl3 486  ADP486     -0.1439
     19  C8        21.1580   36.5850   14.9890 C.3   486  ADP486      0.3377
     20  N7        22.1270   37.3610   14.4790 N.2   486  ADP486     -0.2095
     21  C5        22.8010   37.9070   15.4700 C.2   486  ADP486      0.2526
     22  C6        23.8940   38.7900   15.5880 C.2   486  ADP486      0.4393
     23  N6        24.4990   39.2810   14.4840 N.pl3 486  ADP486      0.2180
     24  N1        24.3500   39.1610   16.8380 N.2   486  ADP486      0.0021
     25  C2        23.7720   38.6960   17.9760 C.3   486  ADP486      0.5254
     26  N3        22.7260   37.8540   17.8730 N.2   486  ADP486     -0.0055
     27  C4        22.2150   37.4400   16.6720 C.2   486  ADP486      0.3518
@<TRIPOS>BOND
     1     7     5    2
     2    20    19    1
     3    20    21    2
     4    23    22    1
     5    19    18    1
     6     5     9    1
     7     5     8    1
     8     5     6    1
     9    21    22    1
    10    21    27    1
    11    22    24    2
    12     9    10    1
    13     8     1    1
    14     4     1    2
    15    18    27    1
    16    18    17    1
    17    27    26    2
    18     1     3    1
    19     1     2    1
    20    24    25    1
    21    10    11    1
    22    12    17    1
    23    12    11    1
    24    15    17    1
    25    15    16    1
    26    15    13    1
    27    11    13    1
    28    26    25    1
    29    13    14    1
