@<TRIPOS>MOLECULE
1qqp_SGN_1_1.pdb
 20 20 0 0 0
SMALL
GASTEIGER

@<TRIPOS>ATOM
      1  C1        36.7470   30.5390  140.1960 C.3   704  SGN704      0.2895
      2  C2        37.6130   31.7700  140.4210 C.3   704  SGN704      0.1858
      3  C3        36.8160   32.8310  141.1600 C.3   704  SGN704      0.2073
      4  C4        35.5460   33.1770  140.3950 C.3   704  SGN704      0.2133
      5  C5        34.7560   31.8990  140.1060 C.3   704  SGN704      0.1826
      6  C6        33.5660   32.2110  139.2100 C.3   704  SGN704      0.2046
      7  N         38.7450   31.4040  141.2410 N.3   704  SGN704     -0.1129
      8  O1        36.4130   30.0150  141.4820 O.3   704  SGN704     -0.1882
      9  O3        37.6120   33.9790  141.3670 O.3   704  SGN704     -0.2186
     10  O4        34.7490   34.0210  141.2330 O.3   704  SGN704     -0.2176
     11  O5        35.5830   30.9250  139.4580 O.3   704  SGN704     -0.3245
     12  O6        33.9450   33.2310  138.2850 O.3   704  SGN704     -0.2384
     13  S1        40.3240   31.2260  140.4830 S.3   704  SGN704     -0.1288
     14  O1S       40.3880   29.9110  139.8050 O.3   704  SGN704     -0.2918
     15  O2S       41.3770   31.2980  141.5260 O.3   704  SGN704     -0.2918
     16  O3S       40.5060   32.3150  139.4940 O.3   704  SGN704     -0.2918
     17  S2        32.6990   34.0870  137.3670 S.3   704  SGN704     -0.0001
     18  O4S       32.3640   35.3590  138.0520 O.3   704  SGN704     -0.2682
     19  O5S       31.4890   33.2370  137.2830 O.2   704  SGN704     -0.3452
     20  O6S       33.2120   34.3810  136.0100 O.2   704  SGN704     -0.3452
@<TRIPOS>BOND
     1    20    17    2
     2    19    17    2
     3    17    18    1
     4    17    12    1
     5    12     6    1
     6     6     5    1
     7    11     5    1
     8    11     1    1
     9    16    13    1
    10    14    13    1
    11     5     4    1
    12     1     2    1
    13     1     8    1
    14     4     3    1
    15     4    10    1
    16     2     3    1
    17     2     7    1
    18    13     7    1
    19    13    15    1
    20     3     9    1
