@<TRIPOS>MOLECULE
1qqw_HEM_A_1.pdb
 43 50 0 0 0
SMALL
GASTEIGER

@<TRIPOS>ATOM
      1 FE          8.2500   42.2770   86.1780 Fe    600  HEM600      0.0000
      2  CHA        8.8260   38.9030   86.0550 C.2   600  HEM600      0.0000
      3  CHB       10.4430   42.7110   83.5410 C.2   600  HEM600      0.0000
      4  CHC        7.7560   45.6530   86.2640 C.2   600  HEM600      0.0000
      5  CHD        5.7170   41.7910   88.3970 C.2   600  HEM600      0.0000
      6  NA         9.4220   41.0920   85.0880 N.ar  600  HEM600      0.0000
      7  C1A        9.5550   39.7070   85.1790 C.ar  600  HEM600      0.0000
      8  C2A       10.5070   39.2040   84.1760 C.ar  600  HEM600      0.0000
      9  C3A       10.9500   40.2640   83.4790 C.ar  600  HEM600      0.0000
     10  C4A       10.2900   41.4370   84.0440 C.ar  600  HEM600      0.0000
     11  CMA       11.9490   40.1930   82.3260 C.3   600  HEM600      0.0000
     12  CAA       11.0040   37.7840   83.9640 C.3   600  HEM600      0.0000
     13  CBA        9.9790   36.8750   83.3040 C.3   600  HEM600      0.0000
     14  CGA       10.3730   35.4140   83.3700 C.2   600  HEM600      0.0000
     15  O1A       11.5280   35.0930   83.0140 O.co2 600  HEM600      0.0000
     16  O2A        9.5250   34.5930   83.7790 O.co2 600  HEM600      0.0000
     17  NB         8.9250   43.8310   85.1400 N.2   600  HEM600      0.0000
     18  C1B        9.7840   43.8250   84.0360 C.2   600  HEM600      0.0000
     19  C2B        9.9560   45.1530   83.4790 C.2   600  HEM600      0.0000
     20  C3B        9.2800   46.0030   84.2950 C.2   600  HEM600      0.0000
     21  C4B        8.6220   45.1700   85.3080 C.2   600  HEM600      0.0000
     22  CMB       10.6740   45.5240   82.1870 C.3   600  HEM600      0.0000
     23  CAB        9.2840   47.4070   84.2120 C.3   600  HEM600      0.0000
     24  CBB        8.7910   48.2030   83.0790 C.3   600  HEM600      0.0000
     25  NC         7.0590   43.4580   87.1520 N.ar  600  HEM600      0.0000
     26  C1C        7.0210   44.8530   87.1190 C.ar  600  HEM600      0.0000
     27  C2C        5.9250   45.3520   87.9170 C.ar  600  HEM600      0.0000
     28  C3C        5.2170   44.2710   88.3620 C.ar  600  HEM600      0.0000
     29  C4C        5.9940   43.0960   87.9830 C.ar  600  HEM600      0.0000
     30  CMC        5.6040   46.8130   88.1980 C.3   600  HEM600      0.0000
     31  CAC        3.9110   44.2570   88.8630 C.3   600  HEM600      0.0000
     32  CBC        2.7530   44.9380   88.3000 C.3   600  HEM600      0.0000
     33  ND         7.4950   40.7100   87.0880 N.2   600  HEM600      0.0000
     34  C1D        6.4420   40.6750   87.9860 C.2   600  HEM600      0.0000
     35  C2D        6.1370   39.3100   88.3870 C.2   600  HEM600      0.0000
     36  C3D        6.9940   38.4970   87.7160 C.2   600  HEM600      0.0000
     37  C4D        7.8520   39.3720   86.9330 C.2   600  HEM600      0.0000
     38  CMD        5.0110   38.8470   89.3140 C.3   600  HEM600      0.0000
     39  CAD        6.9580   36.9620   87.7060 C.3   600  HEM600      0.0000
     40  CBD        6.1840   36.4060   86.5110 C.3   600  HEM600      0.0000
     41  CGD        6.6960   35.0470   86.0430 C.2   600  HEM600      0.0000
     42  O1D        7.1490   34.2540   86.8930 O.co2 600  HEM600      0.0000
     43  O2D        6.6450   34.7710   84.8250 O.co2 600  HEM600      0.0000
@<TRIPOS>BOND
     1    22    19    1
     2    11     9    1
     3    15    14   ar
     4    24    23    1
     5    13    14    1
     6    13    12    1
     7    14    16   ar
     8     9    10   ar
     9     9     8   ar
    10    19    18    1
    11    19    20    2
    12     3    18    1
    13     3    10    2
    14    12     8    1
    15    18    17    2
    16    10     6   ar
    17     8     7   ar
    18    23    20    1
    19    20    21    1
    20    43    41   ar
    21     6     7   ar
    22     6     1    1
    23    17    21    1
    24    17     1    1
    25     7     2    2
    26    21     4    2
    27    41    40    1
    28    41    42   ar
    29     2    37    1
    30     1    33    1
    31     1    25    1
    32     4    26    1
    33    40    39    1
    34    37    33    2
    35    37    36    1
    36    33    34    1
    37    26    25   ar
    38    26    27   ar
    39    25    29   ar
    40    39    36    1
    41    36    35    2
    42    27    30    1
    43    27    28   ar
    44    29    28   ar
    45    29     5    1
    46    34    35    1
    47    34     5    2
    48    32    31    1
    49    28    31    1
    50    35    38    1
