@<TRIPOS>MOLECULE
1qr0_COA_A_1.pdb
 48 50 0 0 0
SMALL
GASTEIGER

@<TRIPOS>ATOM
      1  N1A       20.7770    1.4130   74.4980 N.2   300  COA300      0.0021
      2  C2A       22.1010    1.0440   74.3110 C.3   300  COA300      0.5254
      3  N3A       22.5230   -0.1240   73.7270 N.2   300  COA300     -0.0055
      4  C4A       21.4290   -0.9780   73.2960 C.2   300  COA300      0.3518
      5  C5A       20.0390   -0.7150   73.4180 C.2   300  COA300      0.2526
      6  C6A       19.7140    0.5610   74.0680 C.2   300  COA300      0.4393
      7  N6A       18.4520    0.9590   74.2700 N.pl3 300  COA300      0.2180
      8  N7A       19.2940   -1.7230   72.9110 N.2   300  COA300     -0.2095
      9  C8A       20.1910   -2.5900   72.4670 C.3   300  COA300      0.3377
     10  N9A       21.5330   -2.1920   72.6720 N.pl3 300  COA300     -0.1439
     11  C1B       22.8650   -2.8450   72.3210 C.3   300  COA300      0.3185
     12  C2B       22.7830   -4.3430   72.2080 C.3   300  COA300      0.2543
     13  O2B       23.8530   -5.0990   72.8600 O.3   300  COA300     -0.2131
     14  C3B       22.6040   -4.6850   70.7020 C.3   300  COA300      0.1928
     15  O3B       23.4390   -5.8040   70.3620 O.3   300  COA300     -0.2673
     16  P3B       22.3420   -7.0830   69.7800 P.3   300  COA300      0.5327
     17  O7A       23.1600   -8.0660   68.9930 O.2   300  COA300     -0.2224
     18  O8A       21.7580   -7.8240   71.0170 O.3   300  COA300     -0.1145
     19  O9A       21.2700   -6.3620   69.0350 O.3   300  COA300     -0.1145
     20  C4B       23.3600   -3.6010   70.3030 C.3   300  COA300      0.1795
     21  O4B       23.2450   -2.3310   71.0410 O.3   300  COA300     -0.3136
     22  C5B       23.2240   -3.1970   68.8570 C.3   300  COA300      0.1812
     23  O5B       24.0000   -1.9900   68.4230 O.3   300  COA300     -0.3112
     24  P1A       24.4280   -1.4350   67.0600 P.3   300  COA300      0.2189
     25  O1A       25.2330   -2.5750   66.4660 O.2   300  COA300     -0.5170
     26  O2A       25.1260   -0.1520   67.2290 O.3   300  COA300     -0.4371
     27  O3A       23.0320   -1.4250   66.3900 O.3   300  COA300     -0.2703
     28  P2A       21.9890   -0.3590   65.9840 P.3   300  COA300      0.2188
     29  O4A       22.4710    1.0660   65.5600 O.3   300  COA300     -0.4371
     30  O5A       21.2250   -1.2440   64.9790 O.2   300  COA300     -0.5170
     31  O6A       20.8900   -0.0310   66.9560 O.3   300  COA300     -0.3138
     32  CBP       19.4940    0.9790   68.8390 C.3   300  COA300      0.0645
     33  CCP       20.8010    0.5230   68.2260 C.3   300  COA300      0.1519
     34  CDP       18.5900    1.6110   67.7650 C.3   300  COA300      0.0056
     35  CEP       19.8680    2.0700   69.8440 C.3   300  COA300      0.0056
     36  CAP       18.7570   -0.2350   69.5120 C.3   300  COA300      0.2312
     37  OAP       19.6240   -0.9920   70.2670 O.3   300  COA300     -0.2131
     38  C9P       17.5030    0.0190   70.4450 C.2   300  COA300      0.2719
     39  O9P       17.0930    1.1120   70.7370 O.2   300  COA300     -0.2706
     40  N8P       16.9580   -1.2170   71.1200 N.am  300  COA300     -0.2028
     41  C7P       15.9100   -1.1500   72.0960 C.3   300  COA300      0.1248
     42  C6P       15.0600   -2.3880   72.0450 C.3   300  COA300      0.1102
     43  C5P       13.9650   -2.5190   73.0800 C.2   300  COA300      0.2432
     44  O5P       13.9720   -1.9050   74.1780 O.2   300  COA300     -0.2733
     45  N4P       12.8780   -3.3970   72.8160 N.am  300  COA300     -0.2044
     46  C3P       12.6640   -4.1240   71.6370 C.3   300  COA300      0.1276
     47  C2P       11.1180   -4.2600   71.4480 C.3   300  COA300      0.0920
     48  S1P       10.5790   -4.9150   69.9500 S.3   300  COA300     -0.0802
@<TRIPOS>BOND
     1    30    28    2
     2    29    28    1
     3    28    27    1
     4    28    31    1
     5    27    24    1
     6    25    24    2
     7    31    33    1
     8    24    26    1
     9    24    23    1
    10    34    32    1
    11    33    32    1
    12    23    22    1
    13    32    36    1
    14    32    35    1
    15    22    20    1
    16    17    16    2
    17    19    16    1
    18    36    37    1
    19    36    38    1
    20    16    15    1
    21    16    18    1
    22    48    47    1
    23    20    14    1
    24    20    21    1
    25    15    14    1
    26    38    39    2
    27    38    40   am
    28    14    12    1
    29    21    11    1
    30    40    41    1
    31    47    46    1
    32    46    45    1
    33    42    41    1
    34    42    43    1
    35    12    11    1
    36    12    13    1
    37    11    10    1
    38     9    10    1
    39     9     8    1
    40    10     4    1
    41    45    43   am
    42     8     5    2
    43    43    44    2
    44     4     5    1
    45     4     3    2
    46     5     6    1
    47     3     2    1
    48     6     7    1
    49     6     1    2
    50     2     1    1
