@<TRIPOS>MOLECULE
1qr6_NAD_A_1.pdb
 44 48 0 0 0
SMALL
GASTEIGER

@<TRIPOS>ATOM
      1  PA        22.6080   40.9500   -7.7100 P.3   601  NAD601      0.2189
      2  O1A       23.5070   40.0800   -8.4950 O.2   601  NAD601     -0.5170
      3  O2A       21.1640   40.9260   -7.9950 O.3   601  NAD601     -0.4371
      4  O5B       23.1170   42.4830   -7.8100 O.3   601  NAD601     -0.3112
      5  C5B       24.5020   42.8410   -7.5700 C.3   601  NAD601      0.1813
      6  C4B       24.7250   44.2940   -8.0130 C.3   601  NAD601      0.1821
      7  O4B       26.0630   44.7430   -7.6050 O.3   601  NAD601     -0.3135
      8  C3B       24.6700   44.4240   -9.5180 C.3   601  NAD601      0.2184
      9  O3B       23.7620   45.4740   -9.9050 O.3   601  NAD601     -0.2174
     10  C2B       26.0600   44.7720   -9.9460 C.3   601  NAD601      0.2570
     11  O2B       26.0490   45.6720  -11.0650 O.3   601  NAD601     -0.2130
     12  C1B       26.6790   45.3950   -8.7530 C.3   601  NAD601      0.3186
     13  N9A       28.1570   45.2540   -8.7330 N.pl3 601  NAD601     -0.1439
     14  C8A       28.8950   44.0960   -8.9050 C.3   601  NAD601      0.3377
     15  N7A       30.2110   44.3970   -8.7910 N.2   601  NAD601     -0.2095
     16  C5A       30.2300   45.6830   -8.5570 C.2   601  NAD601      0.2526
     17  C6A       31.4120   46.3780   -8.3750 C.2   601  NAD601      0.4393
     18  N6A       32.6000   45.7750   -8.4230 N.pl3 601  NAD601      0.2180
     19  N1A       31.3020   47.7220   -8.1360 N.2   601  NAD601      0.0021
     20  C2A       30.0630   48.3200   -8.0910 C.3   601  NAD601      0.5254
     21  N3A       28.9220   47.5870   -8.2820 N.2   601  NAD601     -0.0055
     22  C4A       29.0170   46.2440   -8.5240 C.2   601  NAD601      0.3518
     23  O3        22.8020   40.6390   -6.1910 O.3   601  NAD601     -0.2703
     24  PN        21.8860   40.8170   -4.9320 P.3   601  NAD601      0.2189
     25  O1N       20.9770   39.6440   -4.8730 O.3   601  NAD601     -0.4371
     26  O2N       21.3010   42.1690   -5.0040 O.2   601  NAD601     -0.5170
     27  O5D       22.9140   40.7500   -3.6770 O.3   601  NAD601     -0.3112
     28  C5D       24.1960   41.4220   -3.7110 C.3   601  NAD601      0.1813
     29  C4D       24.8990   41.2880   -2.3680 C.3   601  NAD601      0.1799
     30  O4D       23.9790   41.7050   -1.3130 O.3   601  NAD601     -0.3327
     31  C3D       25.2890   39.8350   -2.0650 C.3   601  NAD601      0.2158
     32  O3D       26.7030   39.7240   -1.7990 O.3   601  NAD601     -0.2175
     33  C2D       24.5160   39.4460   -0.8320 C.3   601  NAD601      0.2309
     34  O2D       25.3220   38.6890    0.0780 O.3   601  NAD601     -0.2158
     35  C1D       24.0780   40.7360   -0.2180 C.3   601  NAD601      0.2263
     36  N1N       22.7880   40.5790    0.5240 N.pl3 601  NAD601     -0.2787
     37  C2N       22.7900   40.6580    1.9500 C.3   601  NAD601      0.1244
     38  C3N       21.6100   40.4440    2.6640 C.2   601  NAD601      0.0544
     39  C7N       21.5950   40.5390    4.1970 C.2   601  NAD601      0.2818
     40  O7N       22.6210   40.8050    4.8190 O.2   601  NAD601     -0.2670
     41  N7N       20.4140   40.3230    4.7760 N.am  601  NAD601     -0.0839
     42  C4N       20.4270   40.1580    1.9730 C.2   601  NAD601      0.0033
     43  C5N       20.4060   40.0790    0.5620 C.2   601  NAD601      0.0157
     44  C6N       21.5770   40.2850   -0.1660 C.2   601  NAD601      0.0633
@<TRIPOS>BOND
     1    11    10    1
     2    10     8    1
     3    10    12    1
     4     9     8    1
     5     8     6    1
     6    14    15    1
     7    14    13    1
     8    15    16    2
     9    12    13    1
    10    12     7    1
    11    13    22    1
    12    16    22    1
    13    16    17    1
    14    22    21    2
    15     2     1    2
    16    18    17    1
    17    17    19    2
    18    21    20    1
    19    19    20    1
    20     6     7    1
    21     6     5    1
    22     3     1    1
    23     4     1    1
    24     4     5    1
    25     1    23    1
    26    23    24    1
    27    26    24    2
    28    24    25    1
    29    24    27    1
    30    28    27    1
    31    28    29    1
    32    29    31    1
    33    29    30    1
    34    31    32    1
    35    31    33    1
    36    30    35    1
    37    33    35    1
    38    33    34    1
    39    35    36    1
    40    44    36    1
    41    44    43    2
    42    36    37    1
    43    43    42    1
    44    37    38    1
    45    42    38    2
    46    38    39    1
    47    39    41   am
    48    39    40    2
