@<TRIPOS>MOLECULE
1qr7_PEP_A_1.pdb
 10 9 0 0 0
SMALL
GASTEIGER

@<TRIPOS>ATOM
      1  C1        28.7570    7.4430   25.9920 C.2   1352  PEP1352     0.4216
      2  O1        29.9060    7.1810   25.4540 O.co2 1352  PEP1352    -0.2371
      3  O2'       27.9970    8.2800   25.5520 O.co2 1352  PEP1352    -0.2371
      4  C2        28.4470    6.6050   27.2210 C.2   1352  PEP1352     0.2283
      5  C3        29.2060    5.6390   27.8130 C.2   1352  PEP1352     0.0477
      6  O2        27.2060    6.8640   27.8160 O.2   1352  PEP1352    -0.3930
      7  P         26.9210    7.5380   29.2330 P.3   1352  PEP1352     0.5889
      8  O1P       28.2080    8.3370   29.5990 O.3   1352  PEP1352    -0.1039
      9  O2P       26.6500    6.3450   30.1040 O.3   1352  PEP1352    -0.1039
     10  O3P       25.8060    8.5000   29.0740 O.2   1352  PEP1352    -0.2114
@<TRIPOS>BOND
     1     2     1   ar
     2     3     1   ar
     3     1     4    1
     4     4     5    2
     5     4     6    1
     6     6     7    1
     7    10     7    2
     8     7     8    1
     9     7     9    1
