@<TRIPOS>MOLECULE
1qra_GTP_A_1.pdb
 32 34 0 0 0
SMALL
GASTEIGER

@<TRIPOS>ATOM
      1  PG         4.5660   31.3910   21.6350 P.3   167  GTP167      0.5373
      2  O1G        4.6130   31.9070   23.0690 O.3   167  GTP167     -0.1143
      3  O2G        3.8920   32.3190   20.6310 O.2   167  GTP167     -0.2221
      4  O3G        4.1430   30.0120   21.6130 O.3   167  GTP167     -0.1143
      5  O3B        6.1600   31.3600   21.2280 O.3   167  GTP167     -0.2258
      6  PB         6.8770   31.2020   19.7450 P.3   167  GTP167      0.2277
      7  O1B        7.0790   29.7090   19.4730 O.3   167  GTP167     -0.4368
      8  O2B        6.1250   31.9700   18.7490 O.2   167  GTP167     -0.5168
      9  O3A        8.2510   31.8900   20.0030 O.3   167  GTP167     -0.2700
     10  PA         8.8460   33.2610   19.4110 P.3   167  GTP167      0.2189
     11  O1A        8.8880   33.2560   17.9570 O.2   167  GTP167     -0.5170
     12  O2A        8.1050   34.3980   20.1290 O.3   167  GTP167     -0.4371
     13  O5'       10.4300   33.1530   19.9000 O.3   167  GTP167     -0.3112
     14  C5'       10.5490   33.0440   21.3780 C.3   167  GTP167      0.1813
     15  C4'       12.0460   33.6180   21.4740 C.3   167  GTP167      0.1799
     16  O4'       13.0520   32.8300   20.8180 O.3   167  GTP167     -0.3326
     17  C3'       12.3070   34.9690   21.0570 C.3   167  GTP167      0.2158
     18  O3'       13.1090   35.6720   21.9710 O.3   167  GTP167     -0.2175
     19  C2'       12.8390   34.9710   19.5930 C.3   167  GTP167      0.2310
     20  O2'       13.6720   35.9610   19.3550 O.3   167  GTP167     -0.2158
     21  C1'       13.8460   33.6220   19.9270 C.3   167  GTP167      0.2293
     22  N9        14.0010   32.8330   18.6490 N.pl3 167  GTP167     -0.2354
     23  C8        12.9340   32.4520   17.8480 C.3   167  GTP167      0.2246
     24  N7        13.6400   31.7980   16.8990 N.2   167  GTP167     -0.2322
     25  C5        15.0290   31.8890   17.0010 C.2   167  GTP167      0.2182
     26  C6        15.8990   31.3940   16.2380 C.1   167  GTP167      0.2372
     27  O6        15.9820   30.6800   15.1910 O.2   167  GTP167     -0.2069
     28  N1        17.2740   31.6280   16.8000 N.2   167  GTP167     -0.2485
     29  C2        17.3040   32.2950   17.8960 C.1   167  GTP167      0.2531
     30  N2        18.6770   32.4500   18.4750 N.pl3 167  GTP167     -0.0226
     31  N3        16.3840   32.7360   18.7390 N.2   167  GTP167     -0.3074
     32  C4        15.2180   32.5170   18.1350 C.2   167  GTP167      0.2300
@<TRIPOS>BOND
     1    27    26    2
     2    26    28    2
     3    26    25    1
     4    28    29    2
     5    24    25    2
     6    24    23    1
     7    25    32    1
     8    23    22    1
     9    29    30    1
    10    29    31    2
    11    11    10    2
    12    32    22    1
    13    32    31    2
    14    22    21    1
    15     8     6    2
    16    20    19    1
    17    10    13    1
    18    10     9    1
    19    10    12    1
    20     7     6    1
    21    19    21    1
    22    19    17    1
    23     6     9    1
    24     6     5    1
    25    13    14    1
    26    21    16    1
    27     3     1    2
    28    16    15    1
    29    17    15    1
    30    17    18    1
    31     5     1    1
    32    14    15    1
    33     4     1    1
    34     1     2    1
