@<TRIPOS>MOLECULE
1qrd_DQN_A_1.pdb
 12 12 0 0 0
SMALL
GASTEIGER

@<TRIPOS>ATOM
      1  C1        35.0040   10.4810   29.6960 C.2   276  DQN276      0.1873
      2  O1        34.9040   11.6000   29.1240 O.2   276  DQN276     -0.2873
      3  C2        36.0140   10.3760   30.7080 C.2   276  DQN276      0.0158
      4  C2M       36.7220   11.6450   31.0680 C.3   276  DQN276      0.0341
      5  C3        36.1340    9.1430   31.3510 C.2   276  DQN276      0.0158
      6  C3M       36.9370    8.7690   32.5810 C.3   276  DQN276      0.0341
      7  C4        35.3160    8.0680   30.8910 C.2   276  DQN276      0.1873
      8  O4        35.5280    6.9310   31.3940 O.2   276  DQN276     -0.2873
      9  C5        34.3120    8.1490   29.8690 C.2   276  DQN276      0.0158
     10  C5M       33.4170    6.9310   29.6890 C.3   276  DQN276      0.0341
     11  C6        34.1180    9.3980   29.2910 C.2   276  DQN276      0.0158
     12  C6M       32.9750    9.6930   28.3470 C.3   276  DQN276      0.0341
@<TRIPOS>BOND
     1    12    11    1
     2     2     1    2
     3    11     1    1
     4    11     9    2
     5    10     9    1
     6     1     3    1
     7     9     7    1
     8     3     4    1
     9     3     5    2
    10     7     5    1
    11     7     8    2
    12     5     6    1
