@<TRIPOS>MOLECULE
1qrq_NDP_A_1.pdb
 48 52 0 0 0
SMALL
GASTEIGER

@<TRIPOS>ATOM
      1  PA       118.8350   52.9900   39.2960 P.3   1000  NDP1000     0.2189
      2  O1A      119.1200   53.0710   40.7520 O.3   1000  NDP1000    -0.4371
      3  O2A      118.3750   54.2570   38.6810 O.2   1000  NDP1000    -0.5170
      4  O5B      120.1170   52.4820   38.4820 O.3   1000  NDP1000    -0.3112
      5  C5B      120.7060   51.2210   38.9680 C.3   1000  NDP1000     0.1813
      6  C4B      121.4600   50.6690   37.7280 C.3   1000  NDP1000     0.1820
      7  O4B      122.4970   51.6240   37.4590 O.3   1000  NDP1000    -0.3136
      8  C3B      122.1480   49.2950   38.0020 C.3   1000  NDP1000     0.2157
      9  O3B      121.2970   48.2390   37.6370 O.3   1000  NDP1000    -0.2175
     10  C2B      123.4970   49.5130   37.1920 C.3   1000  NDP1000     0.2314
     11  O2B      123.4710   49.2570   35.8040 O.3   1000  NDP1000    -0.2630
     12  C1B      123.7420   50.9650   37.3980 C.3   1000  NDP1000     0.3158
     13  N9A      124.4730   51.3530   38.5920 N.pl3 1000  NDP1000    -0.1439
     14  C8A      124.0520   51.3770   39.9100 C.3   1000  NDP1000     0.3377
     15  N7A      124.9420   51.8370   40.7400 N.2   1000  NDP1000    -0.2095
     16  C5A      125.9900   52.1380   39.9320 C.2   1000  NDP1000     0.2526
     17  C6A      127.2680   52.6790   40.2420 C.2   1000  NDP1000     0.4393
     18  N6A      127.5600   52.9680   41.5100 N.pl3 1000  NDP1000     0.2180
     19  N1A      128.1490   52.8700   39.1930 N.2   1000  NDP1000     0.0021
     20  C2A      127.7490   52.5250   37.9000 C.3   1000  NDP1000     0.5254
     21  N3A      126.5810   52.0210   37.5260 N.2   1000  NDP1000    -0.0055
     22  C4A      125.7390   51.8600   38.6070 C.2   1000  NDP1000     0.3518
     23  O3       117.9580   51.8380   38.9200 O.3   1000  NDP1000    -0.2703
     24  PN       116.6620   50.9660   38.8100 P.3   1000  NDP1000     0.2189
     25  O1N      116.9260   49.5050   38.5680 O.3   1000  NDP1000    -0.4371
     26  O2N      115.3740   51.5660   38.4740 O.2   1000  NDP1000    -0.5170
     27  O5D      116.1400   51.1510   40.3790 O.3   1000  NDP1000    -0.3112
     28  C5D      114.9690   50.2940   40.4610 C.3   1000  NDP1000     0.1813
     29  C4D      114.4730   49.9300   41.8340 C.3   1000  NDP1000     0.1799
     30  O4D      113.4600   50.8940   42.2400 O.3   1000  NDP1000    -0.3327
     31  C3D      113.8350   48.5450   41.7440 C.3   1000  NDP1000     0.2158
     32  O3D      114.5880   47.6350   42.4880 O.3   1000  NDP1000    -0.2175
     33  C2D      112.3900   48.7520   42.2480 C.3   1000  NDP1000     0.2309
     34  O2D      112.2130   48.2160   43.5670 O.3   1000  NDP1000    -0.2158
     35  C1D      112.1300   50.2600   42.1600 C.3   1000  NDP1000     0.2263
     36  N1N      111.3340   50.5600   40.8770 N.pl3 1000  NDP1000    -0.2787
     37  C2N      109.9330   50.7990   41.0840 C.3   1000  NDP1000     0.1244
     38  C3N      109.1580   51.0300   39.9200 C.2   1000  NDP1000     0.0544
     39  C7N      107.6140   51.2890   40.1170 C.2   1000  NDP1000     0.2818
     40  O7N      106.9750   51.6460   39.1400 O.2   1000  NDP1000    -0.2670
     41  N7N      107.0940   51.0940   41.3710 N.am  1000  NDP1000    -0.0839
     42  C4N      109.6770   51.0430   38.5630 C.2   1000  NDP1000     0.0033
     43  C5N      111.0960   50.7860   38.5100 C.2   1000  NDP1000     0.0157
     44  C6N      111.9040   50.5500   39.5760 C.2   1000  NDP1000     0.0633
     45  P2B      123.8240   47.7130   35.1930 P.3   1000  NDP1000     0.5328
     46  O1X      123.7620   48.1470   33.7700 O.2   1000  NDP1000    -0.2224
     47  O2X      125.1780   47.4400   35.7350 O.3   1000  NDP1000    -0.1145
     48  O3X      122.7940   46.8300   35.6570 O.3   1000  NDP1000    -0.1145
@<TRIPOS>BOND
     1    46    45    2
     2    45    48    1
     3    45    47    1
     4    45    11    1
     5    11    10    1
     6    10    12    1
     7    10     8    1
     8    12     7    1
     9    12    13    1
    10     7     6    1
    11    21    20    1
    12    21    22    2
    13     9     8    1
    14     6     8    1
    15     6     5    1
    16    20    19    1
    17    26    24    2
    18     4     5    1
    19     4     1    1
    20    43    42    1
    21    43    44    2
    22    42    38    2
    23    25    24    1
    24    13    22    1
    25    13    14    1
    26    22    16    1
    27     3     1    2
    28    24    23    1
    29    24    27    1
    30    23     1    1
    31    40    39    2
    32    19    17    2
    33     1     2    1
    34    44    36    1
    35    14    15    1
    36    38    39    1
    37    38    37    1
    38    16    17    1
    39    16    15    2
    40    39    41   am
    41    17    18    1
    42    27    28    1
    43    28    29    1
    44    36    37    1
    45    36    35    1
    46    31    29    1
    47    31    33    1
    48    31    32    1
    49    29    30    1
    50    35    30    1
    51    35    33    1
    52    33    34    1
