@<TRIPOS>MOLECULE
1qrr_UPG_A_1.pdb
 36 38 0 0 0
SMALL
GASTEIGER

@<TRIPOS>ATOM
      1  N1        72.0480  103.0350   25.0450 N.am  402  UPG402     -0.1766
      2  C2        72.1500  104.4130   24.7610 C.1   402  UPG402      0.2845
      3  N3        71.5740  105.2540   25.7170 N.2   402  UPG402     -0.2452
      4  C4        70.9230  104.8680   26.8940 C.1   402  UPG402      0.2182
      5  C5        70.8610  103.4290   27.1050 C.2   402  UPG402      0.1242
      6  C6        71.4140  102.5910   26.1940 C.2   402  UPG402      0.0929
      7  O2        72.7280  104.8990   23.7830 O.2   402  UPG402     -0.1918
      8  O4        70.4920  105.7070   27.6750 O.2   402  UPG402     -0.2085
      9  C1C       72.5620  102.0580   24.0560 C.3   402  UPG402      0.2401
     10  C2C       73.5560  101.0270   24.5900 C.3   402  UPG402      0.2319
     11  O2C       74.9180  101.4400   24.6970 O.3   402  UPG402     -0.2157
     12  C3C       73.3010   99.8670   23.6330 C.3   402  UPG402      0.2158
     13  C4C       71.8170   99.9360   23.2990 C.3   402  UPG402      0.1799
     14  O4C       71.4600  101.3210   23.4800 O.3   402  UPG402     -0.3320
     15  O3C       74.0520   99.9970   22.4250 O.3   402  UPG402     -0.2175
     16  C5C       70.8890   99.0150   24.1050 C.3   402  UPG402      0.1813
     17  O5C       71.1660   99.1380   25.5070 O.3   402  UPG402     -0.3112
     18  PA        70.1520   98.8280   26.6810 P.3   402  UPG402      0.2189
     19  O1A       70.7960   99.2330   27.9420 O.3   402  UPG402     -0.4371
     20  O2A       68.8080   99.3340   26.3380 O.2   402  UPG402     -0.5170
     21  O3A       70.1290   97.2390   26.6090 O.3   402  UPG402     -0.2703
     22  PB        71.1760   96.0370   26.8200 P.3   402  UPG402      0.2208
     23  O1B       72.2600   96.4860   27.7180 O.3   402  UPG402     -0.4371
     24  O2B       71.4880   95.4180   25.5150 O.2   402  UPG402     -0.5170
     25  O3B       70.3060   95.0480   27.7420 O.3   402  UPG402     -0.2857
     26  C1'       68.9220   94.8740   27.7570 C.3   402  UPG402      0.2742
     27  C2'       68.5950   93.9460   28.9220 C.3   402  UPG402      0.2409
     28  C3'       69.2760   92.5900   28.6870 C.3   402  UPG402      0.2198
     29  C4'       68.8480   92.0230   27.3300 C.3   402  UPG402      0.2144
     30  C5'       69.1100   93.0520   26.2190 C.3   402  UPG402      0.1835
     31  C6'       68.6030   92.6120   24.8630 C.3   402  UPG402      0.2142
     32  O2'       69.0660   94.5260   30.1280 O.3   402  UPG402     -0.2149
     33  O3'       68.9300   91.6830   29.7240 O.3   402  UPG402     -0.2174
     34  O4'       69.5650   90.8260   27.0530 O.3   402  UPG402     -0.2176
     35  O5'       68.4620   94.3050   26.5280 O.3   402  UPG402     -0.3254
     36  O6'       69.3050   91.4670   24.4140 O.3   402  UPG402     -0.2176
@<TRIPOS>BOND
     1    15    12    1
     2    13    14    1
     3    13    12    1
     4    13    16    1
     5    14     9    1
     6    12    10    1
     7     7     2    2
     8     9    10    1
     9     9     1    1
    10    16    17    1
    11    36    31    1
    12    10    11    1
    13     2     1   am
    14     2     3    2
    15    31    30    1
    16     1     6    1
    17    17    18    1
    18    24    22    2
    19     3     4    2
    20     6     5    2
    21    30    35    1
    22    30    29    1
    23    20    18    2
    24    35    26    1
    25    21    18    1
    26    21    22    1
    27    18    19    1
    28    22    23    1
    29    22    25    1
    30     4     5    1
    31     4     8    2
    32    34    29    1
    33    29    28    1
    34    25    26    1
    35    26    27    1
    36    28    27    1
    37    28    33    1
    38    27    32    1
