@<TRIPOS>MOLECULE
1qrr_NAD_A_1.pdb
 44 48 0 0 0
SMALL
GASTEIGER

@<TRIPOS>ATOM
      1  PA        64.2840   91.7150   36.4910 P.3   401  NAD401      0.2189
      2  O1A       65.5620   91.9970   37.1920 O.3   401  NAD401     -0.4371
      3  O2A       63.1790   92.7130   36.5650 O.2   401  NAD401     -0.5170
      4  O5B       63.6630   90.2990   36.9220 O.3   401  NAD401     -0.3112
      5  C5B       64.5080   89.1810   37.2550 C.3   401  NAD401      0.1813
      6  C4B       63.9000   88.5210   38.4760 C.3   401  NAD401      0.1821
      7  O4B       64.6480   87.3200   38.7350 O.3   401  NAD401     -0.3135
      8  C3B       63.9550   89.3640   39.7400 C.3   401  NAD401      0.2184
      9  O3B       62.6660   89.4850   40.3590 O.3   401  NAD401     -0.2174
     10  C2B       65.0170   88.6880   40.6010 C.3   401  NAD401      0.2570
     11  O2B       64.8160   88.8390   42.0140 O.3   401  NAD401     -0.2130
     12  C1B       64.9080   87.2420   40.1380 C.3   401  NAD401      0.3186
     13  N9A       66.1270   86.4240   40.3470 N.pl3 401  NAD401     -0.1439
     14  C8A       67.4000   86.7050   39.9880 C.3   401  NAD401      0.3377
     15  N7A       68.2500   85.7700   40.4160 N.2   401  NAD401     -0.2095
     16  C5A       67.4660   84.8970   41.0440 C.2   401  NAD401      0.2526
     17  C6A       67.8490   83.7050   41.6950 C.2   401  NAD401      0.4393
     18  N6A       69.1220   83.3530   41.8900 N.pl3 401  NAD401      0.2180
     19  N1A       66.8500   82.9420   42.2290 N.2   401  NAD401      0.0021
     20  C2A       65.5460   83.2920   42.1540 C.3   401  NAD401      0.5254
     21  N3A       65.1820   84.4380   41.5410 N.2   401  NAD401     -0.0055
     22  C4A       66.1220   85.2580   40.9860 C.2   401  NAD401      0.3518
     23  O3        64.6030   91.4160   34.9620 O.3   401  NAD401     -0.2703
     24  PN        63.6820   91.4590   33.6670 P.3   401  NAD401      0.2189
     25  O1N       63.9300   92.7350   32.9620 O.2   401  NAD401     -0.5170
     26  O2N       62.3150   91.0520   34.0720 O.3   401  NAD401     -0.4371
     27  O5D       64.3580   90.2850   32.8350 O.3   401  NAD401     -0.3112
     28  C5D       64.1420   88.8750   33.0610 C.3   401  NAD401      0.1813
     29  C4D       64.7620   88.0450   31.9360 C.3   401  NAD401      0.1799
     30  O4D       64.2990   88.5620   30.6680 O.3   401  NAD401     -0.3327
     31  C3D       66.2910   88.0790   31.8520 C.3   401  NAD401      0.2158
     32  O3D       66.8350   86.8490   31.3710 O.3   401  NAD401     -0.2175
     33  C2D       66.5620   89.1570   30.8150 C.3   401  NAD401      0.2309
     34  O2D       67.8790   89.1870   30.2620 O.3   401  NAD401     -0.2158
     35  C1D       65.4140   88.9520   29.8440 C.3   401  NAD401      0.2263
     36  N1N       65.1270   90.1490   29.0160 N.pl3 401  NAD401     -0.2787
     37  C2N       64.7580   91.4250   29.5460 C.3   401  NAD401      0.1244
     38  C3N       64.7860   92.5540   28.7090 C.2   401  NAD401      0.0544
     39  C7N       64.4670   93.9530   29.2230 C.2   401  NAD401      0.2818
     40  O7N       64.5520   94.9010   28.4490 O.2   401  NAD401     -0.2670
     41  N7N       64.2600   94.0900   30.5320 N.am  401  NAD401     -0.0839
     42  C4N       65.1480   92.3810   27.3490 C.2   401  NAD401      0.0033
     43  C5N       65.4070   91.1100   26.7990 C.2   401  NAD401      0.0157
     44  C6N       65.4650   90.0000   27.6510 C.2   401  NAD401      0.0633
@<TRIPOS>BOND
     1    43    42    1
     2    43    44    2
     3    42    38    2
     4    44    36    1
     5    40    39    2
     6    38    39    1
     7    38    37    1
     8    36    37    1
     9    36    35    1
    10    39    41   am
    11    35    30    1
    12    35    33    1
    13    34    33    1
    14    30    29    1
    15    33    31    1
    16    32    31    1
    17    31    29    1
    18    29    28    1
    19    27    28    1
    20    27    24    1
    21    25    24    2
    22    24    26    1
    23    24    23    1
    24    23     1    1
    25     1     3    2
    26     1     4    1
    27     1     2    1
    28     4     5    1
    29     5     6    1
    30     6     7    1
    31     6     8    1
    32     7    12    1
    33     8     9    1
    34     8    10    1
    35    14    13    1
    36    14    15    1
    37    12    13    1
    38    12    10    1
    39    13    22    1
    40    15    16    2
    41    10    11    1
    42    22    16    1
    43    22    21    2
    44    16    17    1
    45    21    20    1
    46    17    18    1
    47    17    19    2
    48    20    19    1
