@<TRIPOS>MOLECULE
1qrs_ATP_A_1.pdb
 34 36 0 0 0
SMALL
GASTEIGER

@<TRIPOS>ATOM
      1  PG        50.1420   25.8670   19.0950 P.3   999  ATP999      0.5373
      2  O1G       51.1220   26.5230   20.0550 O.3   999  ATP999     -0.1143
      3  O2G       49.5100   24.6330   19.7180 O.3   999  ATP999     -0.1143
      4  O3G       50.7590   25.6390   17.7230 O.2   999  ATP999     -0.2221
      5  PB        47.6350   26.7030   17.8740 P.3   999  ATP999      0.2277
      6  O1B       47.6670   25.3120   17.3560 O.2   999  ATP999     -0.5168
      7  O2B       46.4560   27.1750   18.6430 O.3   999  ATP999     -0.4368
      8  O3B       48.9250   26.8750   18.8090 O.3   999  ATP999     -0.2258
      9  PA        47.5430   27.5690   15.0530 P.3   999  ATP999      0.2189
     10  O1A       47.9310   28.8110   14.3790 O.2   999  ATP999     -0.5170
     11  O2A       48.0890   26.2840   14.5590 O.3   999  ATP999     -0.4371
     12  O3A       47.8930   27.7020   16.6270 O.3   999  ATP999     -0.2700
     13  O5'       45.9570   27.4490   15.0070 O.3   999  ATP999     -0.3112
     14  C5'       45.2200   27.7650   13.8320 C.3   999  ATP999      0.1813
     15  C4'       43.7970   28.0730   14.2070 C.3   999  ATP999      0.1820
     16  O4'       43.2460   26.8940   14.8220 O.3   999  ATP999     -0.3136
     17  C3'       43.6720   29.1790   15.2430 C.3   999  ATP999      0.2149
     18  O3'       43.2550   30.3000   14.4510 O.3   999  ATP999     -0.2176
     19  C2'       42.5020   28.7570   16.1380 C.3   999  ATP999      0.2171
     20  O2'       41.3030   29.4800   15.9580 O.3   999  ATP999     -0.3762
     21  C1'       42.3260   27.2740   15.8190 C.3   999  ATP999      0.3150
     22  N9        42.4960   26.4020   16.9660 N.pl3 999  ATP999     -0.1440
     23  C8        43.6550   25.9600   17.5480 C.3   999  ATP999      0.3377
     24  N7        43.4590   25.1740   18.5740 N.2   999  ATP999     -0.2098
     25  C5        42.0800   25.0990   18.6740 C.2   999  ATP999      0.2438
     26  C6        41.2390   24.4200   19.5580 C.2   999  ATP999      0.3428
     27  N6        41.6850   23.6480   20.5520 N.pl3 999  ATP999     -0.2449
     28  N1        39.9070   24.5570   19.3840 N.2   999  ATP999     -0.0059
     29  C2        39.4670   25.3270   18.3790 C.3   999  ATP999      0.5252
     30  N3        40.1650   26.0130   17.4820 N.2   999  ATP999     -0.0055
     31  C4        41.4770   25.8530   17.6890 C.2   999  ATP999      0.3515
     32 HO2'       40.6600   29.1220   16.5700 H     999  ATP999      0.2107
     33 HN61       42.6780   23.5320   20.6940 H     999  ATP999      0.2885
     34 HN62       41.0290   23.1800   21.1610 H     999  ATP999      0.2885
@<TRIPOS>BOND
     1    14    15    1
     2    14    13    1
     3    15    16    1
     4    15    17    1
     5    10     9    2
     6    18    17    1
     7    11     9    1
     8    16    21    1
     9    13     9    1
    10     9    12    1
    11    17    19    1
    12    21    19    1
    13    21    22    1
    14    20    19    1
    15    20    32    1
    16    12     5    1
    17    22    23    1
    18    22    31    1
    19     6     5    2
    20    30    31    2
    21    30    29    1
    22    23    24    1
    23    31    25    1
    24     4     1    2
    25     5     7    1
    26     5     8    1
    27    29    28    1
    28    24    25    2
    29    25    26    1
    30     8     1    1
    31     1     3    1
    32     1     2    1
    33    28    26    2
    34    26    27    1
    35    27    33    1
    36    27    34    1
