@<TRIPOS>MOLECULE
1qrt_ATP_A_1.pdb
 34 36 0 0 0
SMALL
GASTEIGER

@<TRIPOS>ATOM
      1  PG        49.8620   25.7810   19.2700 P.3   999  ATP999      0.5373
      2  O1G       50.5650   26.2100   20.5560 O.3   999  ATP999     -0.1143
      3  O2G       49.2050   24.4130   19.4140 O.3   999  ATP999     -0.1143
      4  O3G       50.7890   25.8860   18.0650 O.2   999  ATP999     -0.2221
      5  PB        47.4630   26.7410   17.9320 P.3   999  ATP999      0.2277
      6  O1B       47.3730   25.3420   17.4440 O.2   999  ATP999     -0.5168
      7  O2B       46.2850   27.3800   18.5760 O.3   999  ATP999     -0.4368
      8  O3B       48.6820   26.8250   18.9660 O.3   999  ATP999     -0.2258
      9  PA        47.5570   27.5680   15.1110 P.3   999  ATP999      0.2189
     10  O1A       47.9260   28.8580   14.5220 O.2   999  ATP999     -0.5170
     11  O2A       48.1070   26.3230   14.5260 O.3   999  ATP999     -0.4371
     12  O3A       47.9160   27.6530   16.6810 O.3   999  ATP999     -0.2700
     13  O5'       45.9720   27.4470   15.0690 O.3   999  ATP999     -0.3112
     14  C5'       45.2360   27.7940   13.9030 C.3   999  ATP999      0.1813
     15  C4'       43.8120   28.0770   14.2790 C.3   999  ATP999      0.1820
     16  O4'       43.2620   26.8670   14.8300 O.3   999  ATP999     -0.3136
     17  C3'       43.6690   29.0870   15.4030 C.3   999  ATP999      0.2149
     18  O3'       43.4450   30.3830   14.8430 O.3   999  ATP999     -0.2176
     19  C2'       42.3700   28.6880   16.0930 C.3   999  ATP999      0.2171
     20  O2'       41.2450   29.3770   15.5940 O.3   999  ATP999     -0.3762
     21  C1'       42.2720   27.1970   15.7780 C.3   999  ATP999      0.3150
     22  N9        42.4070   26.3310   16.9410 N.pl3 999  ATP999     -0.1440
     23  C8        43.5420   25.8540   17.5410 C.3   999  ATP999      0.3377
     24  N7        43.3040   25.0790   18.5700 N.2   999  ATP999     -0.2098
     25  C5        41.9210   25.0540   18.6530 C.2   999  ATP999      0.2438
     26  C6        41.0420   24.4160   19.5300 C.2   999  ATP999      0.3428
     27  N6        41.4370   23.6470   20.5440 N.pl3 999  ATP999     -0.2449
     28  N1        39.7200   24.5990   19.3340 N.2   999  ATP999     -0.0059
     29  C2        39.3260   25.3810   18.3300 C.3   999  ATP999      0.5252
     30  N3        40.0560   26.0350   17.4430 N.2   999  ATP999     -0.0055
     31  C4        41.3600   25.8240   17.6590 C.2   999  ATP999      0.3515
     32 HO2'       40.4820   29.0660   16.0810 H     999  ATP999      0.2107
     33 HN61       42.4220   23.4990   20.7120 H     999  ATP999      0.2885
     34 HN62       40.7510   23.2120   21.1450 H     999  ATP999      0.2885
@<TRIPOS>BOND
     1    14    15    1
     2    14    13    1
     3    15    16    1
     4    15    17    1
     5    10     9    2
     6    11     9    1
     7    16    21    1
     8    18    17    1
     9    13     9    1
    10     9    12    1
    11    17    19    1
    12    20    32    1
    13    20    19    1
    14    21    19    1
    15    21    22    1
    16    12     5    1
    17    22    23    1
    18    22    31    1
    19    30    31    2
    20    30    29    1
    21     6     5    2
    22    23    24    1
    23    31    25    1
    24     5     7    1
    25     5     8    1
    26     4     1    2
    27    29    28    1
    28    24    25    2
    29    25    26    1
    30     8     1    1
    31     1     3    1
    32     1     2    1
    33    28    26    2
    34    26    27    1
    35    27    33    1
    36    27    34    1
