@<TRIPOS>MOLECULE
1qru_ATP_A_1.pdb
 34 36 0 0 0
SMALL
GASTEIGER

@<TRIPOS>ATOM
      1  PG        49.3390   25.9230   19.1330 P.3   999  ATP999      0.5373
      2  O1G       50.1710   26.2850   20.3590 O.3   999  ATP999     -0.1143
      3  O2G       48.5600   24.6210   19.3250 O.3   999  ATP999     -0.1143
      4  O3G       50.1530   25.9490   17.8450 O.2   999  ATP999     -0.2221
      5  PB        46.9610   27.0910   17.9610 P.3   999  ATP999      0.2277
      6  O1B       46.6610   25.6760   17.6110 O.2   999  ATP999     -0.5168
      7  O2B       45.9370   27.9010   18.6660 O.3   999  ATP999     -0.4368
      8  O3B       48.2420   27.0700   18.9070 O.3   999  ATP999     -0.2258
      9  PA        47.0530   27.6160   15.0700 P.3   999  ATP999      0.2189
     10  O1A       47.4500   28.8220   14.3330 O.2   999  ATP999     -0.5170
     11  O2A       47.5730   26.2920   14.6450 O.3   999  ATP999     -0.4371
     12  O3A       47.4230   27.8630   16.6260 O.3   999  ATP999     -0.2700
     13  O5'       45.4630   27.5180   15.0200 O.3   999  ATP999     -0.3112
     14  C5'       44.7650   27.8070   13.8080 C.3   999  ATP999      0.1813
     15  C4'       43.3100   28.1270   14.1270 C.3   999  ATP999      0.1820
     16  O4'       42.7970   26.9630   14.8180 O.3   999  ATP999     -0.3136
     17  C3'       43.2310   29.2700   15.1380 C.3   999  ATP999      0.2149
     18  O3'       42.8530   30.5370   14.5120 O.3   999  ATP999     -0.2176
     19  C2'       42.1990   28.8430   16.1900 C.3   999  ATP999      0.2171
     20  O2'       41.0120   29.5530   16.1860 O.3   999  ATP999     -0.3762
     21  C1'       41.9440   27.3810   15.8440 C.3   999  ATP999      0.3150
     22  N9        42.1010   26.4800   16.9550 N.pl3 999  ATP999     -0.1440
     23  C8        43.2700   26.0820   17.5270 C.3   999  ATP999      0.3377
     24  N7        43.1050   25.2730   18.5380 N.2   999  ATP999     -0.2098
     25  C5        41.7270   25.1220   18.6180 C.2   999  ATP999      0.2438
     26  C6        40.9110   24.4000   19.4880 C.2   999  ATP999      0.3428
     27  N6        41.3920   23.6280   20.4680 N.pl3 999  ATP999     -0.2449
     28  N1        39.5770   24.4800   19.3140 N.2   999  ATP999     -0.0059
     29  C2        39.1110   25.2280   18.3160 C.3   999  ATP999      0.5252
     30  N3        39.7800   25.9450   17.4170 N.2   999  ATP999     -0.0055
     31  C4        41.0990   25.8540   17.6380 C.2   999  ATP999      0.3515
     32 HO2'       40.4830   29.2460   16.9280 H     999  ATP999      0.2107
     33 HN61       42.3880   23.5510   20.6130 H     999  ATP999      0.2885
     34 HN62       40.7600   23.1230   21.0740 H     999  ATP999      0.2885
@<TRIPOS>BOND
     1    14    15    1
     2    14    13    1
     3    15    16    1
     4    15    17    1
     5    10     9    2
     6    18    17    1
     7    11     9    1
     8    16    21    1
     9    13     9    1
    10     9    12    1
    11    17    19    1
    12    21    19    1
    13    21    22    1
    14    20    19    1
    15    20    32    1
    16    12     5    1
    17    22    23    1
    18    22    31    1
    19    30    31    2
    20    30    29    1
    21    23    24    1
    22     6     5    2
    23    31    25    1
    24     4     1    2
    25     5     7    1
    26     5     8    1
    27    29    28    1
    28    24    25    2
    29    25    26    1
    30     8     1    1
    31     1     3    1
    32     1     2    1
    33    28    26    2
    34    26    27    1
    35    27    33    1
    36    27    34    1
