@<TRIPOS>MOLECULE
1qs0_TDP_A_1.pdb
 26 27 0 0 0
SMALL
GASTEIGER

@<TRIPOS>ATOM
      1  N1'       -6.5270   -9.5340  108.8420 N.2   500  TDP500     -0.1861
      2  C2'       -5.1860   -9.8350  109.0420 C.1   500  TDP500      0.0663
      3  C2A       -4.1430   -8.7560  109.0940 C.3   500  TDP500      0.1291
      4  N3'       -4.7780  -11.0890  109.1960 N.2   500  TDP500     -0.3368
      5  C4'       -5.6960  -12.1350  109.1610 C.2   500  TDP500      0.2292
      6  N4'       -5.1880  -13.3540  109.3240 N.pl3 500  TDP500     -0.0925
      7  C5'       -7.1000  -11.8740  108.9590 C.2   500  TDP500      0.0654
      8  C6'       -7.4370  -10.5640  108.8080 C.2   500  TDP500      0.1115
      9  C35       -8.1400  -12.9880  108.9090 C.3   500  TDP500      0.1237
     10  N3        -7.9780  -13.7930  107.6090 N.pl3 500  TDP500     -0.2970
     11  C2        -7.2960  -14.9300  107.6450 C.3   500  TDP500      0.1543
     12  S1        -7.1510  -15.7280  106.1910 S.3   500  TDP500     -0.0951
     13  C5        -8.0580  -14.4980  105.4120 C.2   500  TDP500      0.0164
     14  C4        -8.4380  -13.5160  106.3190 C.2   500  TDP500      0.0279
     15  C4A       -9.2300  -12.3130  105.9590 C.3   500  TDP500      0.0473
     16  C5A       -8.3050  -14.6150  103.9530 C.3   500  TDP500      0.0661
     17  C5B       -7.1840  -14.0870  103.0870 C.3   500  TDP500      0.1544
     18  O5G       -7.2870  -14.5610  101.7840 O.3   500  TDP500     -0.3134
     19  P1        -6.2950  -14.6650  100.5520 P.3   500  TDP500      0.2230
     20  O11       -5.6780  -16.0660  100.8100 O.3   500  TDP500     -0.2261
     21  O12       -7.0190  -14.6260   99.2930 O.2   500  TDP500     -0.5169
     22  O13       -5.2170  -13.6750  100.7960 O.3   500  TDP500     -0.4370
     23  P2        -6.2660  -17.5600  100.7830 P.3   500  TDP500      0.5373
     24  O21       -5.0830  -18.4600  100.4010 O.3   500  TDP500     -0.1143
     25  O22       -7.0330  -17.7290  102.0100 O.3   500  TDP500     -0.1143
     26  O23       -7.2020  -17.5030   99.5940 O.2   500  TDP500     -0.2221
@<TRIPOS>BOND
     1    21    19    2
     2    26    23    2
     3    24    23    1
     4    19    22    1
     5    19    20    1
     6    19    18    1
     7    23    20    1
     8    23    25    1
     9    18    17    1
    10    17    16    1
    11    16    13    1
    12    13    12    1
    13    13    14    2
    14    15    14    1
    15    12    11    1
    16    14    10    1
    17    10    11    1
    18    10     9    1
    19     8     1    1
    20     8     7    2
    21     1     2    2
    22     9     7    1
    23     7     5    1
    24     2     3    1
    25     2     4    2
    26     5     4    2
    27     5     6    1
