@<TRIPOS>MOLECULE
1qs2_NAD_A_1.pdb
 44 48 0 0 0
SMALL
GASTEIGER

@<TRIPOS>ATOM
      1  PA        28.3800    4.2410   60.2640 P.3   500  NAD500      0.2189
      2  O1A       28.0410    3.9390   61.7010 O.3   500  NAD500     -0.4371
      3  O2A       28.6050    5.6740   59.9720 O.2   500  NAD500     -0.5170
      4  O5B       29.6830    3.4000   59.7450 O.3   500  NAD500     -0.3112
      5  C5B       30.7990    3.1530   60.6130 C.3   500  NAD500      0.1813
      6  C4B       32.0440    3.4650   59.7970 C.3   500  NAD500      0.1821
      7  O4B       31.8420    3.6120   58.3720 O.3   500  NAD500     -0.3135
      8  C3B       32.9090    4.6250   60.2910 C.3   500  NAD500      0.2184
      9  O3B       34.3230    4.3670   60.3860 O.3   500  NAD500     -0.2174
     10  C2B       32.6270    5.6810   59.2360 C.3   500  NAD500      0.2570
     11  O2B       33.6780    6.6440   59.1740 O.3   500  NAD500     -0.2130
     12  C1B       32.6150    4.7630   58.0440 C.3   500  NAD500      0.3186
     13  N9A       33.0570    5.1870   56.7020 N.pl3 500  NAD500     -0.1439
     14  C8A       34.3270    4.8910   56.3940 C.3   500  NAD500      0.3377
     15  N7A       34.6520    5.2660   55.1540 N.2   500  NAD500     -0.2095
     16  C5A       33.5370    5.8020   54.7140 C.2   500  NAD500      0.2526
     17  C6A       33.3750    6.3410   53.4240 C.2   500  NAD500      0.4393
     18  N6A       34.4200    6.3220   52.5760 N.pl3 500  NAD500      0.2180
     19  N1A       32.1330    6.8610   53.1130 N.2   500  NAD500      0.0021
     20  C2A       31.1310    6.8530   54.0190 C.3   500  NAD500      0.5254
     21  N3A       31.3360    6.3170   55.2560 N.2   500  NAD500     -0.0055
     22  C4A       32.5050    5.7870   55.6440 C.2   500  NAD500      0.3518
     23  O3        27.2230    3.9290   59.1570 O.3   500  NAD500     -0.2703
     24  PN        25.6510    3.5980   59.0210 P.3   500  NAD500      0.2189
     25  O1N       25.2410    4.1970   57.7140 O.2   500  NAD500     -0.5170
     26  O2N       25.0960    4.2200   60.2520 O.3   500  NAD500     -0.4371
     27  O5D       25.4550    2.0150   58.8690 O.3   500  NAD500     -0.3112
     28  C5D       25.0420    1.1580   59.9480 C.3   500  NAD500      0.1813
     29  C4D       23.5450    0.9500   60.1690 C.3   500  NAD500      0.1799
     30  O4D       22.7060    2.0860   60.4530 O.3   500  NAD500     -0.3327
     31  C3D       22.9580    0.1400   59.0740 C.3   500  NAD500      0.2158
     32  O3D       22.4610   -1.1110   59.5370 O.3   500  NAD500     -0.2175
     33  C2D       21.9190    1.0280   58.4370 C.3   500  NAD500      0.2309
     34  O2D       20.7120    0.3290   58.1360 O.3   500  NAD500     -0.2158
     35  C1D       21.7060    2.1480   59.4200 C.3   500  NAD500      0.2263
     36  N1N       21.3750    3.5110   58.8880 N.pl3 500  NAD500     -0.2787
     37  C2N       22.0800    4.6660   59.3520 C.3   500  NAD500      0.1244
     38  C3N       21.6600    5.9480   58.9510 C.2   500  NAD500      0.0544
     39  C7N       22.3840    7.1890   59.4240 C.2   500  NAD500      0.2818
     40  O7N       21.8450    8.2460   59.2370 O.2   500  NAD500     -0.2670
     41  N7N       23.4840    7.1160   60.1580 N.am  500  NAD500     -0.0839
     42  C4N       20.5360    6.0500   58.0800 C.2   500  NAD500      0.0033
     43  C5N       19.8040    4.9550   57.5790 C.2   500  NAD500      0.0157
     44  C6N       20.2310    3.6730   57.9900 C.2   500  NAD500      0.0633
@<TRIPOS>BOND
     1    18    17    1
     2    19    17    2
     3    19    20    1
     4    17    16    1
     5    20    21    1
     6    16    15    2
     7    16    22    1
     8    15    14    1
     9    21    22    2
    10    22    13    1
    11    14    13    1
    12    13    12    1
    13    43    44    2
    14    43    42    1
    15    25    24    2
    16    44    36    1
    17    12     7    1
    18    12    10    1
    19    42    38    2
    20    34    33    1
    21     7     6    1
    22    33    31    1
    23    33    35    1
    24    27    24    1
    25    27    28    1
    26    36    37    1
    27    36    35    1
    28    38    37    1
    29    38    39    1
    30    24    23    1
    31    24    26    1
    32    31    32    1
    33    31    29    1
    34    23     1    1
    35    11    10    1
    36    10     8    1
    37    40    39    2
    38    35    30    1
    39    39    41   am
    40     4     1    1
    41     4     5    1
    42     6     8    1
    43     6     5    1
    44    28    29    1
    45     3     1    2
    46    29    30    1
    47     1     2    1
    48     8     9    1
