@<TRIPOS>MOLECULE
1qs4_100_A_1.pdb
 20 22 0 0 0
SMALL
GASTEIGER

@<TRIPOS>ATOM
      1  N1       -22.0490   32.0510   62.8710 N.2   1004  1001004    -0.0128
      2  N3       -21.2990   32.3290   63.9980 N.2   1004  1001004    -0.0680
      3  C3       -20.3680   31.4200   64.2750 C.1   1004  1001004     0.1202
      4  N4       -20.5250   30.5340   63.2910 N.2   1004  1001004    -0.0680
      5  N2       -21.5280   30.8530   62.4070 N.2   1004  1001004    -0.0128
      6  C8       -19.3920   31.4210   65.4150 C.2   1004  1001004     0.2635
      7  C9       -18.4230   30.3230   65.5050 C.2   1004  1001004     0.0947
      8  O1       -19.4220   32.4020   66.3250 O.2   1004  1001004    -0.2754
      9  C1       -14.8900   26.5850   69.6810 C.2   1004  1001004    -0.0084
     10  C2       -15.8100   27.5870   70.1230 C.2   1004  1001004     0.0538
     11  C10      -16.4280   28.4960   69.2020 C.2   1004  1001004     0.0124
     12  C4       -16.1220   28.3870   67.7950 C.2   1004  1001004     0.0193
     13  C5       -15.1930   27.3660   67.3470 C.2   1004  1001004     0.0635
     14  C6       -14.5770   26.4650   68.2840 C.3   1004  1001004     0.0726
     15  C7       -16.5610   29.1220   66.6100 C.2   1004  1001004     0.0593
     16  C12      -15.8990   28.5290   65.5150 C.2   1004  1001004     0.1016
     17  N9       -15.0940   27.4950   65.9650 N.2   1004  1001004    -0.2477
     18  C11      -17.4660   30.1840   66.6050 C.2   1004  1001004     0.2011
     19  O2       -17.4510   30.9940   67.5080 O.2   1004  1001004    -0.2864
     20 CL1       -16.1610   27.7000   71.8170 Cl    1004  1001004    -0.0826
@<TRIPOS>BOND
     1     5     1    2
     2     5     4    1
     3     1     2    1
     4     4     3    2
     5     2     3    2
     6     3     6    1
     7     6     7    2
     8     6     8    1
     9     7    18    1
    10    16    17    1
    11    16    15    2
    12    17    13    2
    13    18    15    1
    14    18    19    2
    15    15    12    1
    16    13    12    1
    17    13    14    1
    18    12    11    2
    19    14     9    1
    20    11    10    1
    21     9    10    2
    22    10    20    1
