@<TRIPOS>MOLECULE
1qs8_III_C_1.pdb
 48 47 0 0 0
SMALL
GASTEIGER

@<TRIPOS>ATOM
      1  CA        61.8630   39.8870   10.5000 C.3   401  IVA401      0.0868
      2  CB        60.8000   40.7230    9.8030 C.3   401  IVA401      0.0091
      3  CG1       59.5150   40.6820   10.5920 C.3   401  IVA401      0.0005
      4  CG2       61.3070   42.1460    9.6900 C.3   401  IVA401      0.0005
      5  C         61.4500   38.4340   10.6870 C.2   401  IVA401      0.2418
      6  O         61.0920   37.7430    9.7330 O.2   401  IVA401     -0.2733
      7  N         61.4890   37.9790   11.9330 N.am  402  VAL402     -0.1978
      8  CA        61.1930   36.5920   12.2710 C.3   402  VAL402      0.1726
      9  C         59.7610   36.2110   12.6680 C.2   402  VAL402      0.2616
     10  O         59.1110   36.8880   13.4680 O.2   402  VAL402     -0.2715
     11  CB        62.1530   36.1250   13.3900 C.3   402  VAL402      0.0290
     12  CG1       61.8680   34.6880   13.7660 C.3   402  VAL402      0.0023
     13  CG2       63.5920   36.2870   12.9260 C.3   402  VAL402      0.0023
     14  N         59.2950   35.1010   12.1000 N.am  403  VAL403     -0.1963
     15  CA        57.9640   34.5640   12.3750 C.3   403  VAL403      0.1727
     16  C         58.1050   33.0730   12.6700 C.2   403  VAL403      0.2612
     17  O         58.3410   32.2750   11.7640 O.2   403  VAL403     -0.2715
     18  CB        57.0090   34.7570   11.1650 C.3   403  VAL403      0.0290
     19  CG1       55.6250   34.1880   11.4890 C.3   403  VAL403      0.0023
     20  CG2       56.9060   36.2360   10.8130 C.3   403  VAL403      0.0023
     21  N         57.9650   32.7070   13.9400 N.am  404  STA404     -0.2031
     22  CA        58.0930   31.3160   14.3710 C.3   404  STA404      0.1261
     23  CB        59.3870   31.1560   15.1720 C.3   404  STA404      0.0243
     24  CG        60.6560   31.6240   14.4460 C.3   404  STA404      0.0018
     25  CD1       60.9720   30.7740   13.2230 C.3   404  STA404      0.0001
     26  CD2       61.8540   31.7080   15.3900 C.3   404  STA404      0.0001
     27  CH        56.8860   30.8820   15.2270 C.3   404  STA404      0.1809
     28  OH        56.7660   31.7480   16.3540 O.3   404  STA404     -0.2208
     29  CM        55.6000   30.9480   14.4070 C.3   404  STA404      0.1214
     30  C         55.4990   29.8300   13.3830 C.2   404  STA404      0.2444
     31  O         55.8250   30.0260   12.2100 O.2   404  STA404     -0.2732
     32  N         55.1050   28.5950   13.6900 N.am  405  ALA405     -0.1977
     33  CA        54.9090   27.3860   12.8860 C.3   405  ALA405      0.1728
     34  C         53.6640   27.6080   12.0180 C.2   405  ALA405      0.2612
     35  O         52.7490   28.3350   12.4160 O.2   405  ALA405     -0.2715
     36  CB        54.7180   26.1690   13.8000 C.3   405  ALA405      0.0334
     37  N         53.6240   26.9820   10.8450 N.am  406  STA406     -0.2031
     38  CA        52.4970   27.1490    9.9190 C.3   406  STA406      0.1262
     39  CB        52.8480   28.2320    8.8920 C.3   406  STA406      0.0243
     40  CG        53.1230   29.6590    9.3770 C.3   406  STA406      0.0018
     41  CD1       53.5240   30.5430    8.2100 C.3   406  STA406      0.0001
     42  CD2       51.9150   30.2530   10.0840 C.3   406  STA406      0.0001
     43  CH        52.1400   25.8350    9.1660 C.3   406  STA406      0.1830
     44  OH        53.3070   25.0200    9.0150 O.3   406  STA406     -0.2207
     45  CM        51.0240   25.0460    9.8850 C.3   406  STA406      0.1486
     46  C         51.5160   24.2840   11.1020 C.2   406  STA406      0.3675
     47  O         52.2990   23.3230   10.9340 O.co2 406  STA406     -0.2456
     48  OXT       51.1130   24.6420   12.2300 O.co2 406  STA406     -0.2456
@<TRIPOS>BOND
     1    41    40    1
     2    39    40    1
     3    39    38    1
     4    44    43    1
     5    43    45    1
     6    43    38    1
     7    40    42    1
     8     4     2    1
     9     6     5    2
    10     2     1    1
    11     2     3    1
    12    45    46    1
    13    38    37    1
    14     1     5    1
    15     5     7   am
    16    20    18    1
    17    37    34   am
    18    47    46   ar
    19    46    48   ar
    20    18    19    1
    21    18    15    1
    22    17    16    2
    23     7     8    1
    24    34    35    2
    25    34    33    1
    26    14    15    1
    27    14     9   am
    28    31    30    2
    29     8     9    1
    30     8    11    1
    31    15    16    1
    32     9    10    2
    33    16    21   am
    34    33    32    1
    35    33    36    1
    36    13    11    1
    37    25    24    1
    38    30    32   am
    39    30    29    1
    40    11    12    1
    41    21    22    1
    42    22    23    1
    43    22    27    1
    44    29    27    1
    45    24    23    1
    46    24    26    1
    47    27    28    1
