@<TRIPOS>MOLECULE
1qsg_NAD_A_1.pdb
 44 48 0 0 0
SMALL
GASTEIGER

@<TRIPOS>ATOM
      1  PA        13.7500   16.0960   18.7240 P.3   1301  NAD1301     0.2189
      2  O1A       14.7120   17.0750   18.1830 O.2   1301  NAD1301    -0.5170
      3  O2A       12.9700   16.4440   19.9860 O.3   1301  NAD1301    -0.4371
      4  O5B       14.3900   14.6690   19.0370 O.3   1301  NAD1301    -0.3112
      5  C5B       15.4570   14.0880   18.1780 C.3   1301  NAD1301     0.1813
      6  C4B       16.2820   13.2100   19.0710 C.3   1301  NAD1301     0.1821
      7  O4B       17.2990   12.4910   18.2230 O.3   1301  NAD1301    -0.3135
      8  C3B       17.2180   14.0500   20.0290 C.3   1301  NAD1301     0.2184
      9  O3B       16.8440   13.6510   21.4350 O.3   1301  NAD1301    -0.2174
     10  C2B       18.6660   13.6540   19.7560 C.3   1301  NAD1301     0.2570
     11  O2B       19.4450   13.5810   20.8970 O.3   1301  NAD1301    -0.2130
     12  C1B       18.3810   12.2490   19.1050 C.3   1301  NAD1301     0.3186
     13  N9A       19.5600   11.8700   18.3490 N.pl3 1301  NAD1301    -0.1439
     14  C8A       20.1530   12.3650   17.1800 C.3   1301  NAD1301     0.3377
     15  N7A       21.2740   11.7430   16.8360 N.2   1301  NAD1301    -0.2095
     16  C5A       21.5340   10.8460   17.7940 C.2   1301  NAD1301     0.2526
     17  C6A       22.6710    9.9240   17.9740 C.2   1301  NAD1301     0.4393
     18  N6A       23.7080    9.7990   17.1660 N.pl3 1301  NAD1301     0.2180
     19  N1A       22.5430    9.1710   19.0990 N.2   1301  NAD1301     0.0021
     20  C2A       21.5520    9.1880   19.9980 C.3   1301  NAD1301     0.5254
     21  N3A       20.4600   10.0580   19.8770 N.2   1301  NAD1301    -0.0055
     22  C4A       20.4940   10.8810   18.7470 C.2   1301  NAD1301     0.3518
     23  O3        12.7490   15.7430   17.5550 O.3   1301  NAD1301    -0.2703
     24  PN        11.4500   14.7250   17.3750 P.3   1301  NAD1301     0.2189
     25  O1N       10.5940   15.3410   16.3610 O.2   1301  NAD1301    -0.5170
     26  O2N       10.8010   14.4060   18.6600 O.3   1301  NAD1301    -0.4371
     27  O5D       12.1600   13.4420   16.7670 O.3   1301  NAD1301    -0.3112
     28  C5D       11.9030   12.0720   17.2490 C.3   1301  NAD1301     0.1813
     29  C4D       11.7140   11.0580   16.2000 C.3   1301  NAD1301     0.1799
     30  O4D       10.3180   11.3510   15.6230 O.3   1301  NAD1301    -0.3327
     31  C3D       12.6610   11.0130   14.9510 C.3   1301  NAD1301     0.2158
     32  O3D       12.8010    9.6710   14.5420 O.3   1301  NAD1301    -0.2175
     33  C2D       11.9100   11.9060   13.9000 C.3   1301  NAD1301     0.2309
     34  O2D       12.2970   11.5630   12.6340 O.3   1301  NAD1301    -0.2158
     35  C1D       10.4430   11.4100   14.1730 C.3   1301  NAD1301     0.2263
     36  N1N        9.2300   12.1760   13.6310 N.pl3 1301  NAD1301    -0.2787
     37  C2N        9.0770   13.5080   14.0430 C.3   1301  NAD1301     0.1244
     38  C3N        7.9440   14.0870   13.4800 C.2   1301  NAD1301     0.0544
     39  C7N        7.7170   15.5800   13.8700 C.2   1301  NAD1301     0.2818
     40  O7N        6.8590   16.1670   13.1390 O.2   1301  NAD1301    -0.2670
     41  N7N        8.3470   16.2020   14.9030 N.am  1301  NAD1301    -0.0839
     42  C4N        6.9660   13.5080   12.6280 C.2   1301  NAD1301     0.0033
     43  C5N        7.2370   12.1360   12.3140 C.2   1301  NAD1301     0.0157
     44  C6N        8.3610   11.5140   12.8260 C.2   1301  NAD1301     0.0633
@<TRIPOS>BOND
     1    43    42    1
     2    43    44    2
     3    42    38    2
     4    34    33    1
     5    44    36    1
     6    40    39    2
     7    38    39    1
     8    38    37    1
     9    36    37    1
    10    36    35    1
    11    39    41   am
    12    33    35    1
    13    33    31    1
    14    35    30    1
    15    32    31    1
    16    31    29    1
    17    30    29    1
    18    29    28    1
    19    25    24    2
    20    27    28    1
    21    27    24    1
    22    15    14    1
    23    15    16    2
    24    18    17    1
    25    14    13    1
    26    24    23    1
    27    24    26    1
    28    23     1    1
    29    16    17    1
    30    16    22    1
    31    17    19    2
    32     5     4    1
    33     5     6    1
    34     2     1    2
    35     7     6    1
    36     7    12    1
    37    13    22    1
    38    13    12    1
    39     1     4    1
    40     1     3    1
    41    22    21    2
    42     6     8    1
    43    19    20    1
    44    12    10    1
    45    10     8    1
    46    10    11    1
    47    21    20    1
    48     8     9    1
