@<TRIPOS>MOLECULE
1qsg_TCL_A_1.pdb
 17 18 0 0 0
SMALL
GASTEIGER

@<TRIPOS>ATOM
      1  C1         9.5330   14.4730   10.2190 C.ar  1302  TCL1302     0.0566
      2  C2         8.9140   15.6900   10.4960 C.ar  1302  TCL1302     0.0611
      3  C6        10.7180   14.1640   10.9030 C.ar  1302  TCL1302     0.2307
      4  C5        11.2180   14.9930   11.8840 C.ar  1302  TCL1302     0.1840
      5  C4        10.5420   16.1580   12.1660 C.ar  1302  TCL1302     0.0417
      6  C3         9.4120   16.5760   11.4380 C.ar  1302  TCL1302     0.0147
      7  C11       16.1130   15.4470   10.7060 C.ar  1302  TCL1302     0.0587
      8  C10       16.0760   14.7600   11.9310 C.ar  1302  TCL1302     0.0259
      9  C9        14.8280   14.4830   12.4920 C.ar  1302  TCL1302     0.0929
     10  C8        13.6610   14.8700   11.9010 C.ar  1302  TCL1302     0.1559
     11  C12       14.9760   15.8650   10.0720 C.ar  1302  TCL1302     0.0146
     12  C13       13.7490   15.5650   10.7100 C.ar  1302  TCL1302     0.0392
     13  O7        12.4010   14.6390   12.4900 O.3   1302  TCL1302    -0.4494
     14 CL14        7.4600   16.1030    9.6190 Cl    1302  TCL1302    -0.0821
     15 CL15       17.6770   15.8050   10.0020 Cl    1302  TCL1302    -0.0822
     16 CL16       14.7870   13.6890   14.0440 Cl    1302  TCL1302    -0.0790
     17  O17       11.3750   12.9590   10.6220 O.3   1302  TCL1302    -0.2833
@<TRIPOS>BOND
     1    14     2    1
     2    15     7    1
     3    11     7   ar
     4    11    12   ar
     5     1     2   ar
     6     1     3   ar
     7     2     6   ar
     8    17     3    1
     9     7     8   ar
    10    12    10   ar
    11     3     4   ar
    12     6     5   ar
    13     4     5   ar
    14     4    13    1
    15    10    13    1
    16    10     9   ar
    17     8     9   ar
    18     9    16    1
