@<TRIPOS>MOLECULE
1qsg_GLC_A_1.pdb
 12 12 0 0 0
SMALL
GASTEIGER

@<TRIPOS>ATOM
      1  C1        25.9720   12.3850   14.9810 C.2   1303  GLC1303     0.3505
      2  C2        24.5420   12.8210   14.9160 C.3   1303  GLC1303     0.2823
      3  C3        24.2680   14.2650   15.2980 C.3   1303  GLC1303     0.2270
      4  C4        25.6560   14.9310   15.6530 C.3   1303  GLC1303     0.2276
      5  C5        26.5720   14.5970   14.4600 C.3   1303  GLC1303     0.2344
      6  C6        27.6880   15.6200   14.3280 C.3   1303  GLC1303     0.2281
      7  O1        26.2450   11.0340   14.5990 O.2   1303  GLC1303    -0.2472
      8  O2        23.5370   11.8790   15.1690 O.3   1303  GLC1303    -0.2082
      9  O3        23.2850   14.6170   16.2230 O.3   1303  GLC1303    -0.2169
     10  O4        25.4780   16.3700   15.4730 O.3   1303  GLC1303    -0.2163
     11  O5        27.0020   13.2430   14.4680 O.3   1303  GLC1303    -0.4450
     12  O6        28.4640   15.5660   15.5280 O.3   1303  GLC1303    -0.2163
@<TRIPOS>BOND
     1     6     5    1
     2     6    12    1
     3     5    11    1
     4     5     4    1
     5    11     1    1
     6     7     1    2
     7     2     1    1
     8     2     8    1
     9     2     3    1
    10     3     4    1
    11     3     9    1
    12    10     4    1
