@<TRIPOS>MOLECULE
1qsh_HEG_B_1.pdb
 43 48 0 0 0
SMALL
GASTEIGER

@<TRIPOS>ATOM
      1 MG         19.2290    4.4740   57.5050 Mg    147  HEG147      0.0000
      2  CHA       19.7450    3.9380   60.9190 C.2   147  HEG147      0.0000
      3  CHB       20.5400    1.3480   56.8870 C.2   147  HEG147      0.0000
      4  CHC       19.6380    5.2480   54.1600 C.2   147  HEG147      0.0000
      5  CHD       18.6790    7.7300   58.1510 C.2   147  HEG147      0.0000
      6  NA        19.9760    2.9670   58.6590 N.2   147  HEG147      0.0000
      7  C1A       20.0910    2.9480   60.0290 C.1   147  HEG147      0.0000
      8  C2A       20.6310    1.6610   60.4230 C.2   147  HEG147      0.0000
      9  C3A       20.8440    0.9330   59.3430 C.2   147  HEG147      0.0000
     10  C4A       20.4480    1.7530   58.2110 C.1   147  HEG147      0.0000
     11  CMA       21.3230   -0.5310   59.2080 C.3   147  HEG147      0.0000
     12  CAA       20.7750    1.2410   61.9320 C.3   147  HEG147      0.0000
     13  CBA       19.4630    0.5360   62.3590 C.3   147  HEG147      0.0000
     14  CGA       19.3500    0.0290   63.7590 C.2   147  HEG147      0.0000
     15  O1A       19.4840    0.8610   64.6660 O.co2 147  HEG147      0.0000
     16  O2A       19.1270   -1.2030   63.9520 O.co2 147  HEG147      0.0000
     17  NB        19.9220    3.4990   55.8740 N.2   147  HEG147      0.0000
     18  C1B       20.3320    2.1870   55.8060 C.2   147  HEG147      0.0000
     19  C2B       20.5170    1.8020   54.4070 C.2   147  HEG147      0.0000
     20  C3B       20.2540    2.8860   53.6760 C.2   147  HEG147      0.0000
     21  C4B       19.9340    3.9800   54.6010 C.2   147  HEG147      0.0000
     22  CMB       20.8890    0.3870   53.9420 C.3   147  HEG147      0.0000
     23  CAB       20.2140    3.0700   52.1520 C.2   147  HEG147      0.0000
     24  CBB       21.1250    2.5320   51.3430 C.2   147  HEG147      0.0000
     25  NC        19.2170    6.1680   56.3890 N.ar  147  HEG147      0.0000
     26  C1C       19.3950    6.2940   55.0090 C.ar  147  HEG147      0.0000
     27  C2C       19.2130    7.6670   54.5990 C.ar  147  HEG147      0.0000
     28  C3C       18.9390    8.3820   55.7090 C.ar  147  HEG147      0.0000
     29  C4C       18.9410    7.4540   56.8180 C.ar  147  HEG147      0.0000
     30  CMC       19.3380    8.1430   53.1480 C.3   147  HEG147      0.0000
     31  CAC       18.6400    9.8650   55.8450 C.2   147  HEG147      0.0000
     32  CBC       19.0940   10.8610   55.0650 C.2   147  HEG147      0.0000
     33  ND        19.2690    5.6210   59.1910 N.2   147  HEG147      0.0000
     34  C1D       18.8780    6.9320   59.2610 C.1   147  HEG147      0.0000
     35  C2D       18.7880    7.3590   60.6400 C.2   147  HEG147      0.0000
     36  C3D       19.0700    6.3160   61.4020 C.2   147  HEG147      0.0000
     37  C4D       19.3690    5.2000   60.4990 C.2   147  HEG147      0.0000
     38  CMD       18.3900    8.8030   61.0480 C.3   147  HEG147      0.0000
     39  CAD       19.1790    6.2320   62.9390 C.3   147  HEG147      0.0000
     40  CBD       20.6110    6.5750   63.4360 C.3   147  HEG147      0.0000
     41  CGD       20.9030    6.4080   64.8930 C.2   147  HEG147      0.0000
     42  O1D       22.1460    6.5340   65.2060 O.co2 147  HEG147      0.0000
     43  O2D       19.9750    6.2210   65.6960 O.co2 147  HEG147      0.0000
@<TRIPOS>BOND
     1    24    23    2
     2    23    20    1
     3    30    27    1
     4    20    19    2
     5    20    21    1
     6    22    19    1
     7     4    21    2
     8     4    26    1
     9    19    18    1
    10    27    26   ar
    11    27    28   ar
    12    21    17    1
    13    26    25   ar
    14    32    31    2
    15    28    31    1
    16    28    29   ar
    17    18    17    2
    18    18     3    1
    19    17     1    1
    20    25    29   ar
    21    25     1    1
    22    29     5    1
    23     3    10    2
    24     5    34    2
    25    10     6    2
    26    10     9    1
    27     6     7    2
    28    33    34    2
    29    33    37    2
    30    11     9    1
    31    34    35    1
    32     9     8    2
    33     7     8    1
    34     7     2    2
    35     8    12    1
    36    37     2    1
    37    37    36    1
    38    35    38    1
    39    35    36    2
    40    36    39    1
    41    12    13    1
    42    13    14    1
    43    39    40    1
    44    40    41    1
    45    14    16   ar
    46    14    15   ar
    47    41    42   ar
    48    41    43   ar
