@<TRIPOS>MOLECULE
1qsh_HEM_A_1.pdb
 43 50 0 0 0
SMALL
GASTEIGER

@<TRIPOS>ATOM
      1 FE         18.3110   18.4180   23.7890 Fe    142  HEM142      0.0000
      2  CHA       18.7030   18.5910   20.3400 C.2   142  HEM142      0.0000
      3  CHB       20.9410   20.6620   24.1260 C.2   142  HEM142      0.0000
      4  CHC       18.5250   17.7330   27.1960 C.2   142  HEM142      0.0000
      5  CHD       16.5970   15.4650   23.4010 C.2   142  HEM142      0.0000
      6  NA        19.6080   19.3790   22.4910 N.2   142  HEM142      0.0000
      7  C1A       19.5330   19.3760   21.1180 C.2   142  HEM142      0.0000
      8  C2A       20.4940   20.3460   20.5750 C.2   142  HEM142      0.0000
      9  C3A       21.1300   20.8990   21.6190 C.2   142  HEM142      0.0000
     10  C4A       20.5710   20.3280   22.8350 C.2   142  HEM142      0.0000
     11  CMA       22.2150   21.9920   21.6080 C.3   142  HEM142      0.0000
     12  CAA       20.7150   20.6240   19.0590 C.3   142  HEM142      0.0000
     13  CBA       20.0750   21.9070   18.5450 C.3   142  HEM142      0.0000
     14  CGA       20.2580   22.2560   17.0790 C.2   142  HEM142      0.0000
     15  O1A       20.7760   21.3960   16.3520 O.co2 142  HEM142      0.0000
     16  O2A       19.8670   23.4180   16.7390 O.co2 142  HEM142      0.0000
     17  NB        19.5120   19.0170   25.3290 N.ar  142  HEM142      0.0000
     18  C1B       20.5070   20.0220   25.2800 C.ar  142  HEM142      0.0000
     19  C2B       20.9220   20.3150   26.6230 C.ar  142  HEM142      0.0000
     20  C3B       20.2900   19.4700   27.4640 C.ar  142  HEM142      0.0000
     21  C4B       19.3940   18.6640   26.6350 C.ar  142  HEM142      0.0000
     22  CMB       22.0440   21.3110   26.9830 C.3   142  HEM142      0.0000
     23  CAB       20.3640   19.3490   28.9800 C.2   142  HEM142      0.0000
     24  CBB       21.2000   20.0870   29.6930 C.2   142  HEM142      0.0000
     25  NC        17.6320   16.9470   25.0440 N.2   142  HEM142      0.0000
     26  C1C       17.8310   16.8390   26.4070 C.2   142  HEM142      0.0000
     27  C2C       17.1620   15.6610   26.9240 C.2   142  HEM142      0.0000
     28  C3C       16.6800   14.9840   25.8700 C.2   142  HEM142      0.0000
     29  C4C       16.9780   15.7820   24.6960 C.2   142  HEM142      0.0000
     30  CMC       17.1590   15.2700   28.4230 C.3   142  HEM142      0.0000
     31  CAC       15.8670   13.6860   25.8280 C.2   142  HEM142      0.0000
     32  CBC       16.1520   12.7210   26.6900 C.2   142  HEM142      0.0000
     33  ND        17.7320   17.2730   22.1940 N.ar  142  HEM142      0.0000
     34  C1D       16.9850   16.1170   22.2590 C.ar  142  HEM142      0.0000
     35  C2D       16.6670   15.6900   20.9070 C.ar  142  HEM142      0.0000
     36  C3D       17.2550   16.5390   20.0770 C.ar  142  HEM142      0.0000
     37  C4D       17.9380   17.5470   20.8600 C.ar  142  HEM142      0.0000
     38  CMD       15.7940   14.4520   20.5710 C.3   142  HEM142      0.0000
     39  CAD       17.2640   16.5140   18.5160 C.3   142  HEM142      0.0000
     40  CBD       18.4740   15.6200   18.0630 C.3   142  HEM142      0.0000
     41  CGD       18.5080   15.5140   16.5320 C.2   142  HEM142      0.0000
     42  O1D       19.5740   15.7950   15.9490 O.co2 142  HEM142      0.0000
     43  O2D       17.4200   15.2140   16.0110 O.co2 142  HEM142      0.0000
@<TRIPOS>BOND
     1    42    41   ar
     2    43    41   ar
     3    15    14   ar
     4    41    40    1
     5    16    14   ar
     6    14    13    1
     7    40    39    1
     8    39    36    1
     9    13    12    1
    10    12     8    1
    11    36    37   ar
    12    36    35   ar
    13     2    37    2
    14     2     7    1
    15    38    35    1
    16     8     7    1
    17     8     9    2
    18    37    33   ar
    19    35    34   ar
    20     7     6    2
    21    11     9    1
    22     9    10    1
    23    33    34   ar
    24    33     1    1
    25    34     5    2
    26     6    10    1
    27     6     1    1
    28    10     3    2
    29     5    29    1
    30     1    25    1
    31     1    17    1
    32     3    18    1
    33    29    25    2
    34    29    28    1
    35    25    26    1
    36    18    17   ar
    37    18    19   ar
    38    17    21   ar
    39    31    28    1
    40    31    32    2
    41    28    27    2
    42    26    27    1
    43    26     4    2
    44    19    22    1
    45    19    20   ar
    46    21     4    1
    47    21    20   ar
    48    27    30    1
    49    20    23    1
    50    23    24    2
