@<TRIPOS>MOLECULE
1qsi_HEG_B_1.pdb
 43 48 0 0 0
SMALL
GASTEIGER

@<TRIPOS>ATOM
      1 MG         19.3950    4.3730   57.5760 Mg    147  HEG147      0.0000
      2  CHA       19.8660    3.8350   60.9540 C.2   147  HEG147      0.0000
      3  CHB       20.7540    1.2940   56.9570 C.2   147  HEG147      0.0000
      4  CHC       19.7960    5.1400   54.2880 C.2   147  HEG147      0.0000
      5  CHD       18.8250    7.6800   58.2570 C.2   147  HEG147      0.0000
      6  NA        20.2010    2.8410   58.7200 N.2   147  HEG147      0.0000
      7  C1A       20.2790    2.8090   60.1240 C.1   147  HEG147      0.0000
      8  C2A       20.7830    1.5320   60.4970 C.2   147  HEG147      0.0000
      9  C3A       21.0600    0.7950   59.4320 C.2   147  HEG147      0.0000
     10  C4A       20.6850    1.6470   58.2930 C.1   147  HEG147      0.0000
     11  CMA       21.5690   -0.6440   59.3250 C.3   147  HEG147      0.0000
     12  CAA       20.8460    1.1430   62.0270 C.3   147  HEG147      0.0000
     13  CBA       19.5740    0.3400   62.3850 C.3   147  HEG147      0.0000
     14  CGA       19.4880   -0.2360   63.7580 C.2   147  HEG147      0.0000
     15  O1A       19.8380    0.5210   64.7110 O.co2 147  HEG147      0.0000
     16  O2A       19.0500   -1.3870   63.8850 O.co2 147  HEG147      0.0000
     17  NB        20.0680    3.3970   55.9400 N.2   147  HEG147      0.0000
     18  C1B       20.5290    2.1230   55.8920 C.2   147  HEG147      0.0000
     19  C2B       20.8210    1.7200   54.5030 C.2   147  HEG147      0.0000
     20  C3B       20.5110    2.8020   53.7500 C.2   147  HEG147      0.0000
     21  C4B       20.1460    3.8730   54.6330 C.2   147  HEG147      0.0000
     22  CMB       21.2220    0.3110   54.1030 C.3   147  HEG147      0.0000
     23  CAB       20.6070    2.9710   52.2220 C.2   147  HEG147      0.0000
     24  CBB       21.3630    2.2510   51.4370 C.2   147  HEG147      0.0000
     25  NC        19.3180    6.0900   56.5100 N.ar  147  HEG147      0.0000
     26  C1C       19.5340    6.2040   55.1340 C.ar  147  HEG147      0.0000
     27  C2C       19.3750    7.5800   54.7420 C.ar  147  HEG147      0.0000
     28  C3C       19.1420    8.3040   55.8230 C.ar  147  HEG147      0.0000
     29  C4C       19.0750    7.3580   56.9470 C.ar  147  HEG147      0.0000
     30  CMC       19.5570    8.0660   53.2820 C.3   147  HEG147      0.0000
     31  CAC       18.8740    9.8080   55.9690 C.2   147  HEG147      0.0000
     32  CBC       19.2620   10.7850   55.1780 C.2   147  HEG147      0.0000
     33  ND        19.3830    5.5110   59.2770 N.2   147  HEG147      0.0000
     34  C1D       19.0460    6.8440   59.3220 C.1   147  HEG147      0.0000
     35  C2D       19.0290    7.3130   60.7240 C.2   147  HEG147      0.0000
     36  C3D       19.2720    6.2530   61.4690 C.2   147  HEG147      0.0000
     37  C4D       19.5640    5.1270   60.5990 C.2   147  HEG147      0.0000
     38  CMD       18.6040    8.7470   61.1060 C.3   147  HEG147      0.0000
     39  CAD       19.3960    6.1810   63.0350 C.3   147  HEG147      0.0000
     40  CBD       20.8920    6.4220   63.4710 C.3   147  HEG147      0.0000
     41  CGD       21.1590    6.3930   64.9630 C.2   147  HEG147      0.0000
     42  O1D       22.4110    6.4790   65.3140 O.co2 147  HEG147      0.0000
     43  O2D       20.1880    6.1950   65.7310 O.co2 147  HEG147      0.0000
@<TRIPOS>BOND
     1    24    23    2
     2    23    20    1
     3    30    27    1
     4    20    19    2
     5    20    21    1
     6    22    19    1
     7     4    21    2
     8     4    26    1
     9    19    18    1
    10    21    17    1
    11    27    26   ar
    12    27    28   ar
    13    26    25   ar
    14    32    31    2
    15    28    31    1
    16    28    29   ar
    17    18    17    2
    18    18     3    1
    19    17     1    1
    20    25    29   ar
    21    25     1    1
    22    29     5    1
    23     3    10    2
    24     5    34    2
    25    10     6    2
    26    10     9    1
    27     6     7    2
    28    33    34    2
    29    33    37    2
    30    34    35    1
    31    11     9    1
    32     9     8    2
    33     7     8    1
    34     7     2    2
    35     8    12    1
    36    37     2    1
    37    37    36    1
    38    35    38    1
    39    35    36    2
    40    36    39    1
    41    12    13    1
    42    13    14    1
    43    39    40    1
    44    40    41    1
    45    14    16   ar
    46    14    15   ar
    47    41    42   ar
    48    41    43   ar
