@<TRIPOS>MOLECULE
1qsi_HEM_A_1.pdb
 43 50 0 0 0
SMALL
GASTEIGER

@<TRIPOS>ATOM
      1 FE         18.7500   18.1290   23.9700 Fe    142  HEM142      0.0000
      2  CHA       18.8430   18.5720   20.5910 C.2   142  HEM142      0.0000
      3  CHB       21.2200   20.5130   24.4000 C.2   142  HEM142      0.0000
      4  CHC       18.4250   17.8340   27.3840 C.2   142  HEM142      0.0000
      5  CHD       16.6430   15.4300   23.5780 C.2   142  HEM142      0.0000
      6  NA        19.7970   19.3160   22.7340 N.2   142  HEM142      0.0000
      7  C1A       19.7440   19.3450   21.3510 C.2   142  HEM142      0.0000
      8  C2A       20.7590   20.2350   20.8690 C.2   142  HEM142      0.0000
      9  C3A       21.4160   20.7530   21.8990 C.2   142  HEM142      0.0000
     10  C4A       20.8350   20.2050   23.1140 C.2   142  HEM142      0.0000
     11  CMA       22.5900   21.7650   21.9300 C.3   142  HEM142      0.0000
     12  CAA       21.0320   20.5110   19.3590 C.2   142  HEM142      0.0000
     13  CBA       20.2060   21.6060   18.7450 C.2   142  HEM142      0.0000
     14  CGA       20.5330   21.9390   17.2940 C.2   142  HEM142      0.0000
     15  O1A       20.9830   20.9830   16.6030 O.co2 142  HEM142      0.0000
     16  O2A       20.2400   23.0770   16.9100 O.co2 142  HEM142      0.0000
     17  NB        19.6370   19.0010   25.5550 N.ar  142  HEM142      0.0000
     18  C1B       20.6450   19.9700   25.5200 C.ar  142  HEM142      0.0000
     19  C2B       20.9710   20.3340   26.8920 C.ar  142  HEM142      0.0000
     20  C3B       20.2040   19.5810   27.6980 C.ar  142  HEM142      0.0000
     21  C4B       19.4000   18.7300   26.8940 C.ar  142  HEM142      0.0000
     22  CMB       22.0420   21.3670   27.2820 C.3   142  HEM142      0.0000
     23  CAB       20.1490   19.5810   29.2540 C.3   142  HEM142      0.0000
     24  CBB       21.3970   19.6140   29.8610 C.3   142  HEM142      0.0000
     25  NC        17.6930   16.9280   25.2250 N.2   142  HEM142      0.0000
     26  C1C       17.7150   16.9070   26.6060 C.2   142  HEM142      0.0000
     27  C2C       17.0060   15.7800   27.0880 C.2   142  HEM142      0.0000
     28  C3C       16.5240   15.0740   26.0410 C.2   142  HEM142      0.0000
     29  C4C       16.9280   15.8090   24.8660 C.2   142  HEM142      0.0000
     30  CMC       16.8370   15.4460   28.5930 C.3   142  HEM142      0.0000
     31  CAC       15.7150   13.7730   26.0060 C.2   142  HEM142      0.0000
     32  CBC       15.9540   12.8390   26.9410 C.2   142  HEM142      0.0000
     33  ND        17.8640   17.1950   22.3980 N.ar  142  HEM142      0.0000
     34  C1D       17.0370   16.1200   22.4760 C.ar  142  HEM142      0.0000
     35  C2D       16.6540   15.7340   21.0990 C.ar  142  HEM142      0.0000
     36  C3D       17.2640   16.5860   20.3020 C.ar  142  HEM142      0.0000
     37  C4D       18.0410   17.5450   21.0780 C.ar  142  HEM142      0.0000
     38  CMD       15.7220   14.5580   20.7970 C.3   142  HEM142      0.0000
     39  CAD       17.1930   16.6370   18.7400 C.3   142  HEM142      0.0000
     40  CBD       18.3060   15.7220   18.1830 C.3   142  HEM142      0.0000
     41  CGD       18.3010   15.6690   16.6490 C.2   142  HEM142      0.0000
     42  O1D       19.3800   15.9910   16.1110 O.co2 142  HEM142      0.0000
     43  O2D       17.2460   15.3030   16.0990 O.co2 142  HEM142      0.0000
@<TRIPOS>BOND
     1    43    41   ar
     2    42    41   ar
     3    15    14   ar
     4    41    40    1
     5    16    14   ar
     6    14    13    1
     7    40    39    1
     8    39    36    1
     9    13    12    2
    10    12     8    1
    11    36    37   ar
    12    36    35   ar
    13     2    37    2
    14     2     7    1
    15    38    35    1
    16     8     7    1
    17     8     9    2
    18    37    33   ar
    19    35    34   ar
    20     7     6    2
    21     9    11    1
    22     9    10    1
    23    33    34   ar
    24    33     1    1
    25    34     5    2
    26     6    10    1
    27     6     1    1
    28    10     3    2
    29     5    29    1
    30     1    25    1
    31     1    17    1
    32     3    18    1
    33    29    25    2
    34    29    28    1
    35    25    26    1
    36    18    17   ar
    37    18    19   ar
    38    17    21   ar
    39    31    28    1
    40    31    32    2
    41    28    27    2
    42    26    27    1
    43    26     4    2
    44    19    22    1
    45    19    20   ar
    46    21     4    1
    47    21    20   ar
    48    27    30    1
    49    20    23    1
    50    23    24    1
