@<TRIPOS>MOLECULE
1qsn_COA_A_1.pdb
 48 50 0 0 0
SMALL
GASTEIGER

@<TRIPOS>ATOM
      1  N1A       48.5380   29.6270   60.5890 N.2   401  COA401      0.0021
      2  C2A       47.8970   30.5770   59.7840 C.3   401  COA401      0.5254
      3  N3A       47.6900   30.4910   58.4500 N.2   401  COA401     -0.0055
      4  C4A       48.1780   29.3550   57.9130 C.2   401  COA401      0.3518
      5  C5A       48.8570   28.2790   58.5820 C.2   401  COA401      0.2526
      6  C6A       49.0470   28.4500   60.0570 C.2   401  COA401      0.4393
      7  N6A       49.6410   27.5670   60.7950 N.pl3 401  COA401      0.2180
      8  N7A       49.2100   27.2880   57.7270 N.2   401  COA401     -0.2095
      9  C8A       48.7630   27.7150   56.5180 C.3   401  COA401      0.3377
     10  N9A       48.1330   28.9550   56.5700 N.pl3 401  COA401     -0.1439
     11  C1B       47.5290   29.7340   55.4270 C.3   401  COA401      0.3185
     12  C2B       48.5740   30.4560   54.5980 C.3   401  COA401      0.2543
     13  O2B       49.0350   31.5910   55.3140 O.3   401  COA401     -0.2131
     14  C3B       47.7890   30.7960   53.3170 C.3   401  COA401      0.1928
     15  O3B       46.9800   31.8940   53.4500 O.3   401  COA401     -0.2673
     16  P3B       46.6720   32.6110   51.9710 P.3   401  COA401      0.5327
     17  O7A       48.0810   33.1460   51.4300 O.3   401  COA401     -0.1145
     18  O8A       45.7430   33.8950   52.1730 O.3   401  COA401     -0.1145
     19  O9A       46.0600   31.5140   50.9940 O.2   401  COA401     -0.2224
     20  C4B       47.0830   29.4560   53.0620 C.3   401  COA401      0.1795
     21  O4B       46.9580   28.8220   54.4330 O.3   401  COA401     -0.3136
     22  C5B       47.8200   28.5080   52.1180 C.3   401  COA401      0.1812
     23  O5B       47.7550   27.2090   52.7550 O.3   401  COA401     -0.3112
     24  P1A       48.4640   25.9260   52.0790 P.3   401  COA401      0.2189
     25  O1A       49.9510   26.1290   52.1270 O.3   401  COA401     -0.4371
     26  O2A       47.8410   25.5610   50.7560 O.2   401  COA401     -0.5170
     27  O3A       48.0850   24.9310   53.1600 O.3   401  COA401     -0.2703
     28  P2A       48.9030   24.1690   54.3340 P.3   401  COA401      0.2188
     29  O4A       49.5520   25.1260   55.2760 O.3   401  COA401     -0.4371
     30  O5A       49.9430   23.1670   53.8830 O.2   401  COA401     -0.5170
     31  O6A       47.6250   23.3750   54.9850 O.3   401  COA401     -0.3138
     32  CBP       45.9040   23.4250   56.7510 C.3   401  COA401      0.0645
     33  CCP       46.4880   24.0970   55.4710 C.3   401  COA401      0.1519
     34  CDP       44.5050   24.0210   57.1330 C.3   401  COA401      0.0056
     35  CEP       45.7600   21.9350   56.3420 C.3   401  COA401      0.0056
     36  CAP       46.9530   23.7090   57.9260 C.3   401  COA401      0.2312
     37  OAP       47.0070   25.1340   58.2430 O.3   401  COA401     -0.2131
     38  C9P       46.6540   22.9470   59.2110 C.2   401  COA401      0.2719
     39  O9P       47.0680   21.6680   59.3520 O.2   401  COA401     -0.2706
     40  N8P       45.9760   23.6110   60.1280 N.am  401  COA401     -0.2028
     41  C7P       45.6040   23.0710   61.4430 C.3   401  COA401      0.1248
     42  C6P       44.5320   22.0130   61.2620 C.3   401  COA401      0.1102
     43  C5P       43.2020   22.6520   60.9930 C.2   401  COA401      0.2432
     44  O5P       42.7820   23.6920   61.6260 O.2   401  COA401     -0.2733
     45  N4P       42.5180   22.0340   60.0520 N.am  401  COA401     -0.2044
     46  C3P       41.1320   22.4260   59.5470 C.3   401  COA401      0.1276
     47  C2P       40.1500   21.9540   60.6120 C.3   401  COA401      0.0920
     48  S1P       40.1060   20.1180   60.8610 S.3   401  COA401     -0.0802
@<TRIPOS>BOND
     1    26    24    2
     2    19    16    2
     3    17    16    1
     4    16    18    1
     5    16    15    1
     6    24    25    1
     7    24    23    1
     8    24    27    1
     9    22    23    1
    10    22    20    1
    11    20    14    1
    12    20    21    1
    13    27    28    1
    14    14    15    1
    15    14    12    1
    16    30    28    2
    17    28    31    1
    18    28    29    1
    19    21    11    1
    20    12    13    1
    21    12    11    1
    22    31    33    1
    23    11    10    1
    24    33    32    1
    25    35    32    1
    26     9    10    1
    27     9     8    1
    28    10     4    1
    29    32    34    1
    30    32    36    1
    31     8     5    2
    32     4     3    2
    33     4     5    1
    34    36    37    1
    35    36    38    1
    36     3     2    1
    37     5     6    1
    38    38    39    2
    39    38    40   am
    40    46    45    1
    41    46    47    1
    42     2     1    1
    43    45    43   am
    44     6     1    2
    45     6     7    1
    46    40    41    1
    47    47    48    1
    48    43    42    1
    49    43    44    2
    50    42    41    1
