@<TRIPOS>MOLECULE
1qss_DG3_A_1.pdb
 30 32 0 0 0
SMALL
GASTEIGER

@<TRIPOS>ATOM
      1  PG        -3.2810   22.1330   -1.6400 P.3   113  DG3113      0.5373
      2  O1G       -2.1030   22.8120   -2.2320 O.2   113  DG3113     -0.2221
      3  O2G       -3.6710   22.4320   -0.2430 O.3   113  DG3113     -0.1143
      4  O3G       -2.9740   20.5530   -1.6350 O.3   113  DG3113     -0.1143
      5  O3B       -4.5520   22.2740   -2.6330 O.3   113  DG3113     -0.2258
      6  PB        -5.4830   23.4860   -3.1510 P.3   113  DG3113      0.2277
      7  O1B       -6.3360   22.8000   -4.1530 O.2   113  DG3113     -0.5168
      8  O2B       -6.1140   24.1030   -1.9580 O.3   113  DG3113     -0.4368
      9  O3A       -4.5050   24.5330   -3.9090 O.3   113  DG3113     -0.2700
     10  PA        -4.0920   26.0720   -3.6980 P.3   113  DG3113      0.2189
     11  O1A       -2.8710   26.3220   -4.5010 O.2   113  DG3113     -0.5170
     12  O2A       -4.1150   26.4290   -2.2610 O.3   113  DG3113     -0.4371
     13  O5'       -5.3510   26.7120   -4.4370 O.3   113  DG3113     -0.3113
     14  C5'       -6.5470   27.0580   -3.7130 C.3   113  DG3113      0.1785
     15  C4'       -7.7720   26.6410   -4.4920 C.3   113  DG3113      0.1471
     16  O4'       -7.8040   27.3530   -5.7560 O.3   113  DG3113     -0.3374
     17  C3'       -7.8490   25.1720   -4.8760 C.3   113  DG3113      0.0366
     18  C2'       -8.7680   25.2050   -6.0900 C.3   113  DG3113      0.0536
     19  C1'       -8.3480   26.5140   -6.7600 C.3   113  DG3113      0.1954
     20  N9        -7.3440   26.3170   -7.8010 N.pl3 113  DG3113     -0.2375
     21  C8        -5.9760   26.3050   -7.6560 C.3   113  DG3113      0.2245
     22  N7        -5.3450   26.0900   -8.7770 N.2   113  DG3113     -0.2322
     23  C5        -6.3550   25.9540   -9.7190 C.2   113  DG3113      0.2182
     24  C6        -6.2850   25.7060  -11.1140 C.1   113  DG3113      0.2372
     25  O6        -5.2820   25.5530  -11.8190 O.2   113  DG3113     -0.2069
     26  N1        -7.5510   25.6440  -11.6850 N.2   113  DG3113     -0.2485
     27  C2        -8.7330   25.8000  -11.0060 C.1   113  DG3113      0.2531
     28  N2        -9.8550   25.7090  -11.7330 N.pl3 113  DG3113     -0.0226
     29  N3        -8.8120   26.0300   -9.7090 N.2   113  DG3113     -0.3074
     30  C4        -7.5940   26.0940   -9.1330 C.2   113  DG3113      0.2299
@<TRIPOS>BOND
     1    25    24    2
     2    28    27    1
     3    26    24    2
     4    26    27    2
     5    24    23    1
     6    27    29    2
     7    23    30    1
     8    23    22    2
     9    29    30    2
    10    30    20    1
    11    22    21    1
    12    20    21    1
    13    20    19    1
    14    19    18    1
    15    19    16    1
    16    18    17    1
    17    16    15    1
    18    17    15    1
    19    11    10    2
    20    15    14    1
    21    13    14    1
    22    13    10    1
    23     7     6    2
    24     9    10    1
    25     9     6    1
    26    10    12    1
    27     6     5    1
    28     6     8    1
    29     5     1    1
    30     2     1    2
    31     1     4    1
    32     1     3    1
