@<TRIPOS>MOLECULE
1qsy_DDS_A_1.pdb
 29 31 0 0 0
SMALL
GASTEIGER

@<TRIPOS>ATOM
      1  N1        -7.6850   25.9280  -11.5780 N.2   113  DDS113      0.0021
      2  C2        -8.7710   26.0550  -10.8820 C.3   113  DDS113      0.5254
      3  N3        -8.8900   26.0790   -9.5990 N.2   113  DDS113     -0.0055
      4  C4        -7.6880   25.9480   -9.0050 C.2   113  DDS113      0.3518
      5  C5        -6.4900   25.8060   -9.6020 C.2   113  DDS113      0.2526
      6  C6        -6.5050   25.7990  -10.9310 C.2   113  DDS113      0.4393
      7  N6        -5.4200   25.6750  -11.6060 N.pl3 113  DDS113      0.2180
      8  N7        -5.4590   25.6920   -8.6810 N.2   113  DDS113     -0.2095
      9  C8        -6.0630   25.7710   -7.5550 C.3   113  DDS113      0.3377
     10  N9        -7.4130   25.9950   -7.6760 N.pl3 113  DDS113     -0.1461
     11  PA        -4.1010   25.3400   -3.8920 P.3   113  DDS113      0.2189
     12  PB        -5.5330   23.0170   -2.9590 P.3   113  DDS113      0.2277
     13  PG        -3.0490   22.1830   -1.3830 P.3   113  DDS113      0.5373
     14  C1'       -8.3870   26.3670   -6.6250 C.3   113  DDS113      0.2847
     15  O1A       -2.9550   25.3820   -4.8370 O.2   113  DDS113     -0.5170
     16  O1B       -6.3900   22.2240   -3.8020 O.2   113  DDS113     -0.5168
     17  O1G       -2.8850   23.4260   -0.7230 O.3   113  DDS113     -0.1143
     18  C2'       -8.8760   25.1120   -5.9260 C.3   113  DDS113      0.0823
     19  O2A       -3.8480   25.4190   -2.4600 O.3   113  DDS113     -0.4371
     20  O2B       -6.2500   23.6740   -1.8910 O.3   113  DDS113     -0.4368
     21  O2G       -3.0130   21.0260   -0.4880 O.3   113  DDS113     -0.1143
     22  C3'       -7.9120   25.0240   -4.7520 C.3   113  DDS113      0.0392
     23  O3A       -4.8290   23.9870   -4.0310 O.3   113  DDS113     -0.2700
     24  O3B       -4.4000   22.0690   -2.2870 O.3   113  DDS113     -0.2258
     25  O3G       -1.9280   22.1410   -2.3950 O.2   113  DDS113     -0.2221
     26  C4'       -7.7380   26.4820   -4.3620 C.3   113  DDS113      0.1493
     27  O4'       -7.7680   27.1910   -5.6300 O.3   113  DDS113     -0.3183
     28  C5'       -6.4480   26.8050   -3.6330 C.3   113  DDS113      0.1786
     29  O5'       -5.2010   26.3560   -4.3150 O.3   113  DDS113     -0.3113
@<TRIPOS>BOND
     1     7     6    1
     2     1     6    2
     3     1     2    1
     4     6     5    1
     5     2     3    1
     6     5     4    1
     7     5     8    2
     8     3     4    2
     9     4    10    1
    10     8     9    1
    11    10     9    1
    12    10    14    1
    13    14    18    1
    14    14    27    1
    15    18    22    1
    16    27    26    1
    17    15    11    2
    18    22    26    1
    19    26    28    1
    20    29    11    1
    21    29    28    1
    22    23    11    1
    23    23    12    1
    24    11    19    1
    25    16    12    2
    26    12    24    1
    27    12    20    1
    28    25    13    2
    29    24    13    1
    30    13    17    1
    31    13    21    1
