@<TRIPOS>MOLECULE
1qte_NAG_A_1.pdb
 14 14 0 0 0
SMALL
GASTEIGER

@<TRIPOS>ATOM
      1  C1         7.0940   46.7880   52.9170 C.3   651  NAG651      0.1665
      2  C2         8.0830   47.9540   52.7230 C.3   651  NAG651      0.1576
      3  C3         8.3350   48.2930   51.2210 C.3   651  NAG651      0.2069
      4  C4         8.7290   46.9880   50.4720 C.3   651  NAG651      0.2134
      5  C5         7.6980   45.8290   50.7740 C.3   651  NAG651      0.1809
      6  C6         8.3010   44.5240   50.2380 C.3   651  NAG651      0.2141
      7  C7         8.0250   49.7180   54.4660 C.2   651  NAG651      0.2420
      8  C8         7.2150   50.9130   54.9730 C.3   651  NAG651      0.0964
      9  N2         7.5240   49.1090   53.3950 N.am  651  NAG651     -0.2019
     10  O3         9.3690   49.2860   51.1140 O.3   651  NAG651     -0.2184
     11  O4         8.8330   47.1760   49.0570 O.3   651  NAG651     -0.2176
     12  O5         7.5500   45.6410   52.1810 O.3   651  NAG651     -0.3489
     13  O6         7.4330   43.4430   50.5300 O.3   651  NAG651     -0.2176
     14  O7         9.0690   49.3610   55.0140 O.2   651  NAG651     -0.2733
@<TRIPOS>BOND
     1    11     4    1
     2     6    13    1
     3     6     5    1
     4     4     5    1
     5     4     3    1
     6     5    12    1
     7    10     3    1
     8     3     2    1
     9    12     1    1
    10     2     1    1
    11     2     9    1
    12     9     7   am
    13     7     8    1
    14     7    14    2
