@<TRIPOS>MOLECULE
1qti_GNT_A_1.pdb
 21 24 0 0 0
SMALL
GASTEIGER

@<TRIPOS>ATOM
      1  C1         2.5530   67.3160   62.6050 C.2   600  GNT600     -0.0211
      2  C2         2.7290   67.7550   61.3290 C.2   600  GNT600      0.0021
      3  C3         4.0990   67.8980   60.6750 C.3   600  GNT600      0.1773
      4  C4         5.2170   68.0400   61.7620 C.3   600  GNT600      0.0816
      5  C41        5.1000   66.9120   62.8380 C.3   600  GNT600      0.1762
      6  C42        3.6940   66.9260   63.5830 C.3   600  GNT600      0.0780
      7  O5         5.2830   65.5770   62.2900 O.3   600  GNT600     -0.4757
      8  C6         4.6660   63.3810   63.2290 C.ar  600  GNT600      0.1721
      9  C7         3.8040   62.6760   64.1490 C.ar  600  GNT600      0.0397
     10  C8         2.8430   63.3810   64.9370 C.ar  600  GNT600      0.0001
     11  C9         1.6820   65.5880   65.6730 C.3   600  GNT600      0.0990
     12  N10        2.2900   66.6590   66.5310 N.3   600  GNT600     -0.2677
     13  C11        2.5880   67.9390   65.7790 C.3   600  GNT600      0.0732
     14  C12        3.8370   67.8410   64.8550 C.3   600  GNT600      0.0290
     15  C13        4.5190   64.7850   63.1420 C.ar  600  GNT600      0.1682
     16  C14        3.5760   65.4640   63.9210 C.ar  600  GNT600      0.0187
     17  C15        2.7100   64.7950   64.8430 C.ar  600  GNT600     -0.0066
     18  C16        5.8720   61.3440   62.4200 C.3   600  GNT600      0.2526
     19  O17        5.6390   62.7660   62.4180 O.3   600  GNT600     -0.4684
     20  O18        4.3410   66.7390   59.8510 O.3   600  GNT600     -0.2182
     21  C19        1.3860   66.9580   67.6870 C.3   600  GNT600      0.0899
@<TRIPOS>BOND
     1    20     3    1
     2     3     2    1
     3     3     4    1
     4     2     1    2
     5     4     5    1
     6     7     5    1
     7     7    15    1
     8    19    18    1
     9    19     8    1
    10     1     6    1
    11     5     6    1
    12    15     8   ar
    13    15    16   ar
    14     8     9   ar
    15     6    16    1
    16     6    14    1
    17    16    17   ar
    18     9    10   ar
    19    17    10   ar
    20    17    11    1
    21    14    13    1
    22    11    12    1
    23    13    12    1
    24    12    21    1
