@<TRIPOS>MOLECULE
1qtm_TTP_A_1.pdb
 28 29 0 0 0
SMALL
GASTEIGER

@<TRIPOS>ATOM
      1  PA        -4.1020   25.3440   -3.8280 P.3   113  TTP113      0.2189
      2  O1A       -2.9340   25.4280   -4.7390 O.2   113  TTP113     -0.5170
      3  O2A       -3.9510   25.5210   -2.4070 O.3   113  TTP113     -0.4371
      4  O3A       -4.6990   23.9400   -3.9490 O.3   113  TTP113     -0.2700
      5  PB        -5.5080   23.0580   -2.8880 P.3   113  TTP113      0.2277
      6  O1B       -6.3740   22.2560   -3.6800 O.2   113  TTP113     -0.5168
      7  O2B       -6.2000   23.8520   -1.9060 O.3   113  TTP113     -0.4368
      8  O3B       -4.4250   22.0950   -2.1360 O.3   113  TTP113     -0.2258
      9  PG        -3.0220   22.2760   -1.3200 P.3   113  TTP113      0.5373
     10  O1G       -2.6860   23.6380   -1.1640 O.3   113  TTP113     -0.1143
     11  O2G       -3.0770   21.4060   -0.1200 O.3   113  TTP113     -0.1143
     12  O3G       -2.0030   21.7380   -2.2740 O.2   113  TTP113     -0.2221
     13  O5'       -5.2400   26.2700   -4.3410 O.3   113  TTP113     -0.3113
     14  C5'       -6.4980   26.6970   -3.6770 C.3   113  TTP113      0.1785
     15  C4'       -7.7530   26.4340   -4.4870 C.3   113  TTP113      0.1472
     16  O4'       -7.6740   27.1490   -5.7520 O.3   113  TTP113     -0.3366
     17  C3'       -7.9620   24.9850   -4.8970 C.3   113  TTP113      0.0366
     18  C2'       -8.8560   25.1200   -6.1230 C.3   113  TTP113      0.0545
     19  C1'       -8.2990   26.3780   -6.7750 C.3   113  TTP113      0.2063
     20  N1        -7.3120   26.0560   -7.8410 N.am  113  TTP113     -0.1795
     21  C2        -7.7470   26.0910   -9.1310 C.1   113  TTP113      0.2844
     22  O2        -8.9080   26.2350   -9.4590 O.2   113  TTP113     -0.1918
     23  N3        -6.7630   25.9630  -10.0260 N.2   113  TTP113     -0.2455
     24  C4        -5.4230   25.7850   -9.7710 C.1   113  TTP113      0.2134
     25  O4        -4.6650   25.7060  -10.6740 O.2   113  TTP113     -0.2088
     26  C5        -5.0390   25.7040   -8.4130 C.2   113  TTP113      0.0891
     27  C5M       -3.5980   25.5070   -8.0560 C.3   113  TTP113      0.0462
     28  C6        -5.9930   25.8190   -7.5240 C.2   113  TTP113      0.0877
@<TRIPOS>BOND
     1    25    24    2
     2    23    24    2
     3    23    21    2
     4    24    26    1
     5    22    21    2
     6    21    20   am
     7    26    27    1
     8    26    28    2
     9    20    28    1
    10    20    19    1
    11    19    18    1
    12    19    16    1
    13    18    17    1
    14    16    15    1
    15    17    15    1
    16     2     1    2
    17    15    14    1
    18    13     1    1
    19    13    14    1
    20     4     1    1
    21     4     5    1
    22     1     3    1
    23     6     5    2
    24     5     8    1
    25     5     7    1
    26    12     9    2
    27     8     9    1
    28     9    10    1
    29     9    11    1
