@<TRIPOS>MOLECULE
1qtn_III_C_1.pdb
 35 34 0 0 0
SMALL
GASTEIGER

@<TRIPOS>ATOM
      1  C         -7.1860   31.9810   48.8980 C.2   500  ACE500      0.2423
      2  O         -6.4440   32.7670   48.3130 O.2   500  ACE500     -0.2733
      3  CH3       -7.2140   31.9300   50.4170 C.3   500  ACE500      0.0964
      4  N         -7.9530   31.1000   48.2840 N.am  501  ILE501     -0.1978
      5  CA        -8.0240   31.0360   46.8130 C.3   501  ILE501      0.1726
      6  C         -8.6890   32.2830   46.2700 C.2   501  ILE501      0.2616
      7  O         -9.5050   32.9260   46.9180 O.2   501  ILE501     -0.2715
      8  CB        -8.8720   29.7980   46.4210 C.3   501  ILE501      0.0290
      9  CG1       -8.4730   29.2540   45.0490 C.3   501  ILE501      0.0022
     10  CG2      -10.3420   30.0660   46.5310 C.3   501  ILE501      0.0023
     11  CD1       -9.3150   28.0830   44.6370 C.3   501  ILE501      0.0001
     12  N         -8.2360   32.7080   45.0950 N.am  502  GLU502     -0.1963
     13  CA        -8.7310   33.9090   44.4360 C.3   502  GLU502      0.1733
     14  C         -9.2620   33.5640   43.0380 C.2   502  GLU502      0.2617
     15  O         -8.9140   32.4840   42.5100 O.2   502  GLU502     -0.2715
     16  CB        -7.6150   34.9550   44.3190 C.3   502  GLU502      0.0429
     17  CG        -7.0860   35.3600   45.7050 C.3   502  GLU502      0.1163
     18  CD        -6.0700   36.4480   45.6790 C.2   502  GLU502      0.3649
     19  OE1       -5.6130   36.9390   44.6390 O.co2 502  GLU502     -0.2457
     20  OE2       -5.7090   36.9300   46.8300 O.co2 502  GLU502     -0.2457
     21  N        -10.0650   34.4230   42.4790 N.am  503  THR503     -0.1937
     22  CA       -10.5910   34.2090   41.1470 C.3   503  THR503      0.2028
     23  C         -9.9040   35.1120   40.1380 C.2   503  THR503      0.2638
     24  O         -9.5160   36.2340   40.4330 O.2   503  THR503     -0.2714
     25  CB       -12.1090   34.4360   41.0830 C.3   503  THR503      0.1808
     26  OG1      -12.4350   35.7250   41.5660 O.3   503  THR503     -0.2208
     27  CG2      -12.8520   33.4120   41.8780 C.3   503  THR503      0.0379
     28  C        -10.5950   35.9080   37.0360 C.3   504  ASJ504      0.2041
     29  N         -9.7940   34.6170   38.9100 N.am  504  ASJ504     -0.2024
     30  O        -10.2860   36.7480   35.9590 O.3   504  ASJ504     -0.2185
     31  CA        -9.3830   35.4420   37.7790 C.3   504  ASJ504      0.1395
     32  CB        -8.4780   34.5900   36.8380 C.3   504  ASJ504      0.1383
     33  CG        -7.0470   34.5390   37.3480 C.2   504  ASJ504      0.3667
     34  OD1       -6.6410   35.3890   38.1580 O.co2 504  ASJ504     -0.2456
     35  OD2       -6.2830   33.6170   36.9380 O.co2 504  ASJ504     -0.2456
@<TRIPOS>BOND
     1    30    28    1
     2    32    33    1
     3    32    31    1
     4    35    33   ar
     5    28    31    1
     6    33    34   ar
     7    31    29    1
     8    29    23   am
     9    23    24    2
    10    23    22    1
    11    25    22    1
    12    25    26    1
    13    25    27    1
    14    22    21    1
    15    21    14   am
    16    15    14    2
    17    14    13    1
    18    16    13    1
    19    16    17    1
    20    13    12    1
    21    11     9    1
    22    19    18   ar
    23     9     8    1
    24    12     6   am
    25    18    17    1
    26    18    20   ar
    27     6     5    1
    28     6     7    2
    29     8    10    1
    30     8     5    1
    31     5     4    1
    32     4     1   am
    33     2     1    2
    34     1     3    1
