@<TRIPOS>MOLECULE
1qtq_QSI_A_1.pdb
 32 34 0 0 0
SMALL
GASTEIGER

@<TRIPOS>ATOM
      1  N         47.1320   31.5380   13.2470 N.3   998  QSI998     -0.1230
      2  CA        46.2010   31.7940   14.3780 C.3   998  QSI998      0.1714
      3  CB        44.9640   32.5140   13.8550 C.3   998  QSI998      0.0381
      4  CG        44.2170   33.2710   14.9210 C.3   998  QSI998      0.0905
      5  CD        42.7620   33.4740   14.5930 C.2   998  QSI998      0.2608
      6  OE1       41.9990   32.5290   14.4620 O.2   998  QSI998     -0.2717
      7  NE2       42.3660   34.7270   14.4670 N.am  998  QSI998     -0.0878
      8  C         45.7800   30.4960   15.1020 C.2   998  QSI998      0.2798
      9  O         45.0230   30.4350   16.0730 O.2   998  QSI998     -0.2701
     10  N10       46.3220   29.3960   14.5590 N.am  998  QSI998     -0.0577
     11  S         46.0420   27.8840   15.1020 S.3   998  QSI998      0.0852
     12  O1S       46.3940   27.8350   16.5190 O.3   998  QSI998     -0.0508
     13  O2S       46.7830   26.9370   14.2770 O.3   998  QSI998     -0.0508
     14  O5'       44.5010   27.5140   14.9910 O.3   998  QSI998     -0.2230
     15  C5'       43.8040   27.9270   13.8510 C.3   998  QSI998      0.2064
     16  C4'       42.3400   28.1500   14.1210 C.3   998  QSI998      0.1842
     17  O4'       41.7860   27.1520   14.9460 O.3   998  QSI998     -0.3135
     18  C1'       41.1670   27.7790   16.0500 C.3   998  QSI998      0.3186
     19  N9        41.2980   26.8470   17.2250 N.pl3 998  QSI998     -0.1439
     20  C4        40.2780   26.1890   17.8580 C.2   998  QSI998      0.3518
     21  N3        38.9710   26.2590   17.5480 N.2   998  QSI998     -0.0055
     22  C2        38.2600   25.5120   18.3800 C.3   998  QSI998      0.5254
     23  N1        38.6720   24.7650   19.3920 N.2   998  QSI998      0.0021
     24  C6        39.9940   24.7110   19.6780 C.2   998  QSI998      0.4393
     25  N6        40.4190   23.9540   20.7080 N.pl3 998  QSI998      0.2180
     26  C5        40.8600   25.4640   18.8640 C.2   998  QSI998      0.2526
     27  N7        42.2180   25.6520   18.8810 N.2   998  QSI998     -0.2095
     28  C8        42.4310   26.4800   17.8900 C.3   998  QSI998      0.3377
     29  C2'       41.8750   29.1500   16.2490 C.3   998  QSI998      0.2570
     30  O2'       41.0880   30.1180   16.9580 O.3   998  QSI998     -0.2130
     31  C3'       42.1260   29.4940   14.7940 C.3   998  QSI998      0.2185
     32  O3'       40.9890   30.1630   14.2380 O.3   998  QSI998     -0.2174
@<TRIPOS>BOND
     1     1     2    1
     2    15    16    1
     3    15    14    1
     4     3     2    1
     5     3     4    1
     6    16    31    1
     7    16    17    1
     8    32    31    1
     9    13    11    1
    10     2     8    1
    11     6     5    2
    12     7     5   am
    13    10     8   am
    14    10    11    1
    15     5     4    1
    16    31    29    1
    17    17    18    1
    18    14    11    1
    19     8     9    2
    20    11    12    1
    21    18    29    1
    22    18    19    1
    23    29    30    1
    24    19    20    1
    25    19    28    1
    26    21    20    2
    27    21    22    1
    28    20    26    1
    29    28    27    1
    30    22    23    1
    31    26    27    2
    32    26    24    1
    33    23    24    2
    34    24    25    1
