@<TRIPOS>MOLECULE
1qu2_MRC_A_1.pdb
 35 36 0 0 0
SMALL
GASTEIGER

@<TRIPOS>ATOM
      1  C1        30.9390   82.8290   82.1050 C.2   1993  MRC1993     0.3408
      2  C2        29.8250   82.4250   81.3800 C.2   1993  MRC1993     0.0735
      3  C3        28.6910   83.1390   81.0150 C.2   1993  MRC1993    -0.0350
      4  C4        27.6740   82.5360   80.0280 C.3   1993  MRC1993     0.0545
      5  C5        26.1780   82.4680   80.4920 C.3   1993  MRC1993     0.1520
      6  C6        25.1770   82.4150   79.2860 C.3   1993  MRC1993     0.2093
      7  C7        23.7270   82.2330   79.8280 C.3   1993  MRC1993     0.1870
      8  C8        23.5660   80.9740   80.8050 C.3   1993  MRC1993     0.0652
      9  C9        23.8780   79.4770   80.2960 C.3   1993  MRC1993     0.0372
     10  C10       23.0130   78.7720   79.1980 C.3   1993  MRC1993     0.1424
     11  C11       22.9700   79.2520   77.9260 C.3   1993  MRC1993     0.1445
     12  C12       21.8260   79.2850   76.8790 C.3   1993  MRC1993     0.0600
     13  C13       21.5070   78.0480   75.9500 C.3   1993  MRC1993     0.1544
     14  C14       20.0710   77.5270   76.0560 C.3   1993  MRC1993     0.0356
     15  C15       28.4720   84.6170   81.3830 C.3   1993  MRC1993     0.0267
     16  C16       24.6400   81.2350   81.9040 C.3   1993  MRC1993     0.1448
     17  C1'       38.2330   75.2660   83.3600 C.2   1993  MRC1993     0.3649
     18  O1P       39.0830   74.5180   83.8540 O.co2 1993  MRC1993    -0.2457
     19  O1Q       38.5390   75.9890   82.4020 O.co2 1993  MRC1993    -0.2457
     20  C2'       36.8060   75.3000   83.9330 C.3   1993  MRC1993     0.1141
     21  C3'       36.7630   76.0140   85.3030 C.3   1993  MRC1993     0.0118
     22  C4'       35.3990   76.7000   85.5260 C.3   1993  MRC1993     0.0006
     23  C5'       35.3620   78.0940   84.8650 C.3   1993  MRC1993     0.0000
     24  C6'       33.9960   78.7700   85.1000 C.3   1993  MRC1993     0.0001
     25  C7'       33.5220   79.5030   83.8320 C.3   1993  MRC1993     0.0038
     26  C8'       33.4880   81.0330   84.0500 C.3   1993  MRC1993     0.0475
     27  C9'       32.1010   81.6500   83.7470 C.3   1993  MRC1993     0.2088
     28  O1A       31.9870   81.9040   82.3530 O.3   1993  MRC1993    -0.4454
     29  O1B       31.0670   83.9760   82.5460 O.2   1993  MRC1993    -0.2449
     30  O5        25.9970   81.3650   81.3760 O.3   1993  MRC1993    -0.3531
     31  O7        22.8180   82.1710   78.7620 O.3   1993  MRC1993    -0.2202
     32  O6        25.4890   81.3780   78.3920 O.3   1993  MRC1993    -0.2178
     33  O10       23.6620   78.0440   78.1710 O.3   1993  MRC1993    -0.3537
     34  C17       21.1240   80.6280   76.5990 C.3   1993  MRC1993     0.0052
     35  O13       22.4040   76.9860   76.1990 O.3   1993  MRC1993    -0.2231
@<TRIPOS>BOND
     1    13    14    1
     2    13    35    1
     3    13    12    1
     4    34    12    1
     5    12    11    1
     6    11    33    1
     7    11    10    1
     8    33    10    1
     9    32     6    1
    10    31     7    1
    11    10     9    1
    12     6     7    1
    13     6     5    1
    14     7     8    1
    15     4     5    1
    16     4     3    1
    17     9     8    1
    18     5    30    1
    19     8    16    1
    20     3     2    2
    21     3    15    1
    22    30    16    1
    23     2     1    1
    24     1    28    1
    25     1    29    2
    26    28    27    1
    27    19    17   ar
    28    17    18   ar
    29    17    20    1
    30    27    26    1
    31    25    26    1
    32    25    24    1
    33    20    21    1
    34    23    24    1
    35    23    22    1
    36    21    22    1
