@<TRIPOS>MOLECULE
1qu3_MRC_A_1.pdb
 35 36 0 0 0
SMALL
GASTEIGER

@<TRIPOS>ATOM
      1  C1        29.2590   82.9570   79.2820 C.2   993  MRC993      0.3408
      2  C2        28.0630   82.5850   78.6710 C.2   993  MRC993      0.0735
      3  C3        26.9340   83.3310   78.3400 C.2   993  MRC993     -0.0350
      4  C4        25.8490   82.7320   77.4190 C.3   993  MRC993      0.0545
      5  C5        24.3890   82.4560   77.9550 C.3   993  MRC993      0.1520
      6  C6        23.3310   82.4950   76.8020 C.3   993  MRC993      0.2093
      7  C7        21.9270   82.1000   77.3630 C.3   993  MRC993      0.1870
      8  C8        21.9520   80.6790   78.0650 C.3   993  MRC993      0.0652
      9  C9        22.4480   79.4040   77.2360 C.3   993  MRC993      0.0372
     10  C10       21.6200   78.8210   76.0550 C.3   993  MRC993      0.1424
     11  C11       21.3200   79.5140   74.9270 C.3   993  MRC993      0.1445
     12  C12       20.0650   79.3980   74.0370 C.3   993  MRC993      0.0600
     13  C13       19.9090   78.1980   73.0170 C.3   993  MRC993      0.1544
     14  C14       18.4420   77.9080   72.6440 C.3   993  MRC993      0.0356
     15  C15       26.8170   84.8370   78.6180 C.3   993  MRC993      0.0267
     16  C16       23.0270   80.8560   79.1670 C.3   993  MRC993      0.1448
     17  C1'       36.2300   75.3640   81.7100 C.2   993  MRC993      0.3649
     18  O1P       37.1150   74.6960   82.2440 O.co2 993  MRC993     -0.2457
     19  O1Q       36.5300   76.1570   80.8150 O.co2 993  MRC993     -0.2457
     20  C2'       34.7680   75.2100   82.1560 C.3   993  MRC993      0.1141
     21  C3'       34.4280   76.1690   83.3150 C.3   993  MRC993      0.0118
     22  C4'       33.0360   76.8060   83.1060 C.3   993  MRC993      0.0006
     23  C5'       33.1410   78.1520   82.3490 C.3   993  MRC993      0.0000
     24  C6'       31.7420   78.7850   82.1570 C.3   993  MRC993      0.0001
     25  C7'       31.6540   79.5640   80.8270 C.3   993  MRC993      0.0038
     26  C8'       31.9650   81.0730   81.0050 C.3   993  MRC993      0.0475
     27  C9'       30.7230   81.9840   80.8360 C.3   993  MRC993      0.2088
     28  O1A       30.2700   81.9630   79.4920 O.3   993  MRC993     -0.4454
     29  O1B       29.4950   84.1220   79.6450 O.2   993  MRC993     -0.2449
     30  O5        24.3330   81.1850   78.6210 O.3   993  MRC993     -0.3531
     31  O7        20.9690   82.1290   76.3330 O.3   993  MRC993     -0.2202
     32  O6        23.6890   81.6280   75.7420 O.3   993  MRC993     -0.2178
     33  O10       22.2760   78.4750   74.8520 O.3   993  MRC993     -0.3537
     34  C17       19.1000   80.6020   73.9700 C.3   993  MRC993      0.0052
     35  O13       20.4680   77.0100   73.5400 O.3   993  MRC993     -0.2231
@<TRIPOS>BOND
     1    14    13    1
     2    13    35    1
     3    13    12    1
     4    34    12    1
     5    12    11    1
     6    33    11    1
     7    33    10    1
     8    11    10    1
     9    32     6    1
    10    10     9    1
    11    31     7    1
    12     6     7    1
    13     6     5    1
    14     9     8    1
    15     7     8    1
    16     4     5    1
    17     4     3    1
    18     5    30    1
    19     8    16    1
    20     3    15    1
    21     3     2    2
    22    30    16    1
    23     2     1    1
    24     1    28    1
    25     1    29    2
    26    28    27    1
    27    19    17   ar
    28    25    26    1
    29    25    24    1
    30    27    26    1
    31    17    20    1
    32    17    18   ar
    33    20    21    1
    34    24    23    1
    35    23    22    1
    36    22    21    1
