@<TRIPOS>MOLECULE
1qu4_PLP_A_1.pdb
 15 15 0 0 0
SMALL
GASTEIGER

@<TRIPOS>ATOM
      1  N1        21.4680   29.4160   -3.9520 N.ar  600  PLP600     -0.2452
      2  C2        20.2460   28.8830   -4.3000 C.ar  600  PLP600      0.0978
      3  C2A       19.0900   29.8390   -4.3050 C.3   600  PLP600      0.0555
      4  C3        20.1340   27.4960   -4.5970 C.ar  600  PLP600      0.2049
      5  O3        18.9410   26.7910   -4.9890 O.3   600  PLP600     -0.2857
      6  C4        21.2990   26.6650   -4.5090 C.ar  600  PLP600      0.0182
      7  C4A       21.0570   25.0970   -4.9700 C.3   600  PLP600      0.0342
      8  C5        22.5500   27.3250   -4.1190 C.ar  600  PLP600      0.0261
      9  C6        22.5750   28.6460   -3.8750 C.ar  600  PLP600      0.0965
     10  C5A       23.9000   26.5800   -4.0040 C.3   600  PLP600      0.1815
     11  O4P       24.1680   25.8280   -5.1970 O.3   600  PLP600     -0.2653
     12  P         25.7650   25.4900   -5.4960 P.3   600  PLP600      0.5329
     13  O1P       25.9590   24.8860   -6.8280 O.2   600  PLP600     -0.2224
     14  O2P       26.0120   24.4980   -4.3540 O.3   600  PLP600     -0.1145
     15  O3P       26.6980   26.6280   -5.1400 O.3   600  PLP600     -0.1145
@<TRIPOS>BOND
     1    13    12    2
     2    12    11    1
     3    12    15    1
     4    12    14    1
     5    11    10    1
     6     5     4    1
     7     7     6    1
     8     4     6   ar
     9     4     2   ar
    10     6     8   ar
    11     3     2    1
    12     2     1   ar
    13     8    10    1
    14     8     9   ar
    15     1     9   ar
