@<TRIPOS>MOLECULE
1qut_NAG_A_1.pdb
 15 15 0 0 0
SMALL
GASTEIGER

@<TRIPOS>ATOM
      1  C1         7.0960   24.2320   13.7530 C.3   401  NAG401      0.2917
      2  C2         8.6120   24.3010   13.9780 C.3   401  NAG401      0.1871
      3  C3         8.9580   25.1440   15.2110 C.3   401  NAG401      0.2095
      4  C4         8.2060   26.4680   15.2090 C.3   401  NAG401      0.2136
      5  C5         6.7100   26.3010   14.8890 C.3   401  NAG401      0.1835
      6  C6         6.1420   27.6930   14.5420 C.3   401  NAG401      0.2142
      7  C7         9.9730   22.2570   13.5290 C.2   401  NAG401      0.2421
      8  C8        10.2300   20.8640   14.0110 C.3   401  NAG401      0.0964
      9  N2         9.0600   22.9390   14.2130 N.am  401  NAG401     -0.1991
     10  O1         6.8480   23.6220   12.5160 O.3   401  NAG401     -0.1879
     11  O3        10.3400   25.4330   15.2980 O.3   401  NAG401     -0.2183
     12  O4         8.3280   26.9770   16.5200 O.3   401  NAG401     -0.2176
     13  O5         6.5350   25.5190   13.7320 O.3   401  NAG401     -0.3242
     14  O6         4.7390   27.7270   14.7480 O.3   401  NAG401     -0.2176
     15  O7        10.5770   22.7150   12.5570 O.2   401  NAG401     -0.2733
@<TRIPOS>BOND
     1    10     1    1
     2    15     7    2
     3     7     8    1
     4     7     9   am
     5    13     1    1
     6    13     5    1
     7     1     2    1
     8     2     9    1
     9     2     3    1
    10     6    14    1
    11     6     5    1
    12     5     4    1
    13     4     3    1
    14     4    12    1
    15     3    11    1
