@<TRIPOS>MOLECULE
1qv0_CZH_A_1.pdb
 34 38 0 0 0
SMALL
GASTEIGER

@<TRIPOS>ATOM
      1  N1         7.8610    6.6120   33.3750 N.2   201  CZH201     -0.0275
      2  C2         8.1980    6.5090   34.7450 C.3   201  CZH201      0.3915
      3  C3         6.9370    5.7670   35.3610 C.2   201  CZH201      0.3887
      4  N4         6.1610    5.4760   34.3450 N.am  201  CZH201     -0.1262
      5  C5         4.8580    4.8220   34.4010 C.3   201  CZH201      0.2691
      6  C6         4.2620    4.6680   33.1680 C.2   201  CZH201      0.1563
      7  N7         4.8250    5.1690   31.9450 N.2   201  CZH201     -0.3986
      8  C8         5.9880    5.7610   31.9640 C.2   201  CZH201      0.1948
      9  C9         6.7330    5.9640   33.2110 C.2   201  CZH201      0.3543
     10  C10        9.6120    5.8430   34.8510 C.3   201  CZH201      0.1200
     11  C11       10.1400    5.8600   36.2600 C.ar  201  CZH201     -0.0145
     12  C12       10.7040    7.0560   36.8550 C.ar  201  CZH201     -0.0007
     13  C13       11.1660    7.0260   38.1970 C.ar  201  CZH201      0.0417
     14  C14       10.9870    5.8140   38.9660 C.ar  201  CZH201      0.1957
     15  C15       10.3880    4.6490   38.3960 C.ar  201  CZH201      0.0417
     16  C16        9.9560    4.6780   37.0560 C.ar  201  CZH201     -0.0007
     17  O17       11.4000    5.8500   40.2210 O.3   201  CZH201     -0.2866
     18  O18        6.7030    5.4780   36.5250 O.2   201  CZH201     -0.2391
     19  C19        2.9690    4.0380   33.0610 C.ar  201  CZH201      0.0297
     20  C20        2.5220    3.4930   31.8150 C.ar  201  CZH201      0.0056
     21  C21        1.2270    2.9440   31.7540 C.ar  201  CZH201      0.0421
     22  C22        0.3510    2.9670   32.8830 C.ar  201  CZH201      0.1957
     23  C23        0.7700    3.5990   34.1040 C.ar  201  CZH201      0.0421
     24  C24        2.0850    4.1010   34.1620 C.ar  201  CZH201      0.0056
     25  O25       -0.9020    2.4780   32.7920 O.3   201  CZH201     -0.2866
     26  C26        6.5410    6.2890   30.6670 C.3   201  CZH201      0.0931
     27  C27        7.0490    5.1370   29.8730 C.ar  201  CZH201     -0.0149
     28  C28        8.4370    4.9800   29.6520 C.ar  201  CZH201     -0.0038
     29  C29        8.9250    3.9160   28.8470 C.ar  201  CZH201     -0.0003
     30  C30        8.0210    3.0070   28.2990 C.ar  201  CZH201     -0.0000
     31  C31        6.6150    3.1600   28.5330 C.ar  201  CZH201     -0.0003
     32  C32        6.1140    4.1790   29.3590 C.ar  201  CZH201     -0.0038
     33  O33        8.2980    7.8280   35.3340 O.3   201  CZH201     -0.1337
     34  O34        7.1600    8.5420   34.9010 O.3   201  CZH201     -0.0302
@<TRIPOS>BOND
     1    30    31   ar
     2    30    29   ar
     3    31    32   ar
     4    29    28   ar
     5    32    27   ar
     6    28    27   ar
     7    27    26    1
     8    26     8    1
     9    21    20   ar
    10    21    22   ar
    11    20    19   ar
    12     7     8    2
    13     7     6    2
    14     8     9    1
    15    25    22    1
    16    22    23   ar
    17    19     6    1
    18    19    24   ar
    19     6     5    1
    20     9     1    2
    21     9     4    1
    22     1     2    1
    23    23    24   ar
    24     4     5    1
    25     4     3   am
    26     2    10    1
    27     2    33    1
    28     2     3    1
    29    10    11    1
    30    34    33    1
    31     3    18    2
    32    11    12   ar
    33    11    16   ar
    34    12    13   ar
    35    16    15   ar
    36    13    14   ar
    37    15    14   ar
    38    14    17    1
