@<TRIPOS>MOLECULE
1qv1_CZH_A_1.pdb
 34 38 0 0 0
SMALL
GASTEIGER

@<TRIPOS>ATOM
      1  N1         7.7630    6.5020   33.2970 N.2   201  CZH201     -0.0275
      2  C2         8.0640    6.4300   34.6610 C.3   201  CZH201      0.3915
      3  C3         6.8390    5.7090   35.3130 C.2   201  CZH201      0.3887
      4  N4         6.0740    5.3960   34.2740 N.am  201  CZH201     -0.1262
      5  C5         4.8060    4.7160   34.3070 C.3   201  CZH201      0.2691
      6  C6         4.1330    4.6040   33.1220 C.2   201  CZH201      0.1563
      7  N7         4.7050    5.1230   31.9060 N.2   201  CZH201     -0.3986
      8  C8         5.8540    5.7370   31.9200 C.2   201  CZH201      0.1948
      9  C9         6.6210    5.9030   33.1320 C.2   201  CZH201      0.3543
     10  C10        9.4680    5.7720   34.8750 C.3   201  CZH201      0.1200
     11  C11        9.9080    5.7460   36.2810 C.ar  201  CZH201     -0.0145
     12  C12       10.5570    6.9250   36.8570 C.ar  201  CZH201     -0.0007
     13  C13       10.9960    6.9620   38.1790 C.ar  201  CZH201      0.0417
     14  C14       10.7670    5.7740   38.9890 C.ar  201  CZH201      0.1957
     15  C15       10.1360    4.6180   38.4470 C.ar  201  CZH201      0.0417
     16  C16        9.7040    4.6150   37.0840 C.ar  201  CZH201     -0.0007
     17  O17       11.1250    5.8400   40.2550 O.3   201  CZH201     -0.2866
     18  O18        6.6200    5.4330   36.4600 O.2   201  CZH201     -0.2391
     19  C19        2.8500    3.9910   33.0410 C.ar  201  CZH201      0.0297
     20  C20        2.4130    3.4060   31.8290 C.ar  201  CZH201      0.0056
     21  C21        1.1210    2.8520   31.7500 C.ar  201  CZH201      0.0421
     22  C22        0.2470    2.8850   32.8900 C.ar  201  CZH201      0.1957
     23  C23        0.6910    3.4850   34.0730 C.ar  201  CZH201      0.0421
     24  C24        1.9810    3.9880   34.1670 C.ar  201  CZH201      0.0056
     25  O25       -0.9710    2.3560   32.7600 O.3   201  CZH201     -0.2866
     26  C26        6.3870    6.2720   30.6150 C.3   201  CZH201      0.0931
     27  C27        6.9090    5.1290   29.7810 C.ar  201  CZH201     -0.0149
     28  C28        8.3000    4.9700   29.6120 C.ar  201  CZH201     -0.0038
     29  C29        8.8250    3.8940   28.8120 C.ar  201  CZH201     -0.0003
     30  C30        7.9010    3.0070   28.2090 C.ar  201  CZH201     -0.0000
     31  C31        6.4840    3.1430   28.3940 C.ar  201  CZH201     -0.0003
     32  C32        6.0130    4.2100   29.2010 C.ar  201  CZH201     -0.0038
     33  O33        8.2240    7.7690   35.2150 O.3   201  CZH201     -0.1337
     34  O34        7.0070    8.4320   34.8430 O.3   201  CZH201     -0.0302
@<TRIPOS>BOND
     1    30    31   ar
     2    30    29   ar
     3    31    32   ar
     4    29    28   ar
     5    32    27   ar
     6    28    27   ar
     7    27    26    1
     8    26     8    1
     9    21    20   ar
    10    21    22   ar
    11    20    19   ar
    12     7     8    2
    13     7     6    2
    14     8     9    1
    15    25    22    1
    16    22    23   ar
    17    19     6    1
    18    19    24   ar
    19     6     5    1
    20     9     1    2
    21     9     4    1
    22     1     2    1
    23    23    24   ar
    24     4     5    1
    25     4     3   am
    26     2    10    1
    27     2    33    1
    28     2     3    1
    29    34    33    1
    30    10    11    1
    31     3    18    2
    32    11    12   ar
    33    11    16   ar
    34    12    13   ar
    35    16    15   ar
    36    13    14   ar
    37    15    14   ar
    38    14    17    1
