@<TRIPOS>MOLECULE
1qv6_24B_A_1.pdb
 10 10 0 0 0
SMALL
GASTEIGER

@<TRIPOS>ATOM
      1  F2         2.0110   -2.6530   21.4130 F     378  24B378     -0.2043
      2  F4         2.9770   -1.4900   16.9990 F     378  24B378     -0.2041
      3  O1        -1.1950   -3.8990   20.9410 O.3   378  24B378     -0.2151
      4  C1         0.2160   -2.2410   19.9440 C.ar  378  24B378      0.0382
      5  C2         1.6600   -2.3170   20.1910 C.ar  378  24B378      0.1408
      6  C3         2.5830   -2.0790   19.2090 C.ar  378  24B378      0.0590
      7  C4         2.0980   -1.7410   17.9570 C.ar  378  24B378      0.1424
      8  C5         0.7380   -1.6530   17.6720 C.ar  378  24B378      0.0295
      9  C6        -0.2130   -1.8980   18.6620 C.ar  378  24B378      0.0028
     10  C7        -0.7470   -2.5470   21.0640 C.3   378  24B378      0.2108
@<TRIPOS>BOND
     1     2     7    1
     2     8     7   ar
     3     8     9   ar
     4     7     6   ar
     5     9     4   ar
     6     6     5   ar
     7     4     5   ar
     8     4    10    1
     9     5     1    1
    10     3    10    1
