@<TRIPOS>MOLECULE
1qv6_NAD_A_1.pdb
 44 48 0 0 0
SMALL
GASTEIGER

@<TRIPOS>ATOM
      1  PA        -3.0510  -13.9850   18.9980 P.3   377  NAD377      0.2189
      2  O1A       -1.7270  -14.5400   19.3660 O.2   377  NAD377     -0.5170
      3  O2A       -4.1320  -14.0950   19.9910 O.3   377  NAD377     -0.4371
      4  O5B       -3.4370  -14.5520   17.5590 O.3   377  NAD377     -0.3112
      5  C5B       -2.4880  -14.8170   16.5340 C.3   377  NAD377      0.1813
      6  C4B       -3.0930  -15.9290   15.7140 C.3   377  NAD377      0.1821
      7  O4B       -2.2360  -16.2130   14.5920 O.3   377  NAD377     -0.3135
      8  C3B       -3.2760  -17.2520   16.4720 C.3   377  NAD377      0.2184
      9  O3B       -4.6520  -17.7000   16.4010 O.3   377  NAD377     -0.2174
     10  C2B       -2.2600  -18.1580   15.7690 C.3   377  NAD377      0.2570
     11  O2B       -2.5710  -19.5260   15.8160 O.3   377  NAD377     -0.2130
     12  C1B       -2.2180  -17.5800   14.3390 C.3   377  NAD377      0.3186
     13  N9A       -1.0430  -17.8880   13.5730 N.pl3 377  NAD377     -0.1439
     14  C8A        0.2340  -17.9710   14.1020 C.3   377  NAD377      0.3377
     15  N7A        1.0950  -18.2650   13.1600 N.2   377  NAD377     -0.2095
     16  C5A        0.3960  -18.4010   11.9980 C.2   377  NAD377      0.2526
     17  C6A        0.7610  -18.7410   10.6750 C.2   377  NAD377      0.4393
     18  N6A        1.9630  -18.9820   10.1940 N.pl3 377  NAD377      0.2180
     19  N1A       -0.2620  -18.7660    9.7860 N.2   377  NAD377      0.0021
     20  C2A       -1.5570  -18.5240   10.1150 C.3   377  NAD377      0.5254
     21  N3A       -1.9350  -18.2220   11.3340 N.2   377  NAD377     -0.0055
     22  C4A       -0.9460  -18.1890   12.2450 C.2   377  NAD377      0.3518
     23  O3        -2.8770  -12.4670   18.7460 O.3   377  NAD377     -0.2703
     24  PN        -3.8640  -11.2310   18.7350 P.3   377  NAD377      0.2189
     25  O1N       -4.0170  -10.6810   20.0780 O.3   377  NAD377     -0.4371
     26  O2N       -5.0220  -11.5620   17.9000 O.2   377  NAD377     -0.5170
     27  O5D       -2.9060  -10.1760   18.0040 O.3   377  NAD377     -0.3112
     28  C5D       -2.5530  -10.4530   16.6460 C.3   377  NAD377      0.1813
     29  C4D       -1.4680   -9.4570   16.2150 C.3   377  NAD377      0.1799
     30  O4D       -1.9770   -8.0890   16.2490 O.3   377  NAD377     -0.3327
     31  C3D       -0.2190   -9.4740   17.1480 C.3   377  NAD377      0.2158
     32  O3D        0.9390   -9.2690   16.3740 O.3   377  NAD377     -0.2175
     33  C2D       -0.4620   -8.1900   17.9520 C.3   377  NAD377      0.2309
     34  O2D        0.6910   -7.6700   18.5360 O.3   377  NAD377     -0.2158
     35  C1D       -1.0560   -7.2750   16.8710 C.3   377  NAD377      0.2263
     36  N1N       -1.8260   -6.0770   17.3070 N.pl3 377  NAD377     -0.2787
     37  C2N       -1.7380   -4.9630   16.5540 C.3   377  NAD377      0.1244
     38  C3N       -2.4230   -3.8130   16.9370 C.2   377  NAD377      0.0544
     39  C7N       -2.3680   -2.5880   16.1120 C.2   377  NAD377      0.2818
     40  O7N       -2.7320   -1.5180   16.6020 O.2   377  NAD377     -0.2670
     41  N7N       -2.0290   -2.7180   14.7940 N.am  377  NAD377     -0.0839
     42  C4N       -3.2630   -3.8790   18.0830 C.2   377  NAD377      0.0033
     43  C5N       -3.4020   -5.0720   18.7620 C.2   377  NAD377      0.0157
     44  C6N       -2.6680   -6.1680   18.3690 C.2   377  NAD377      0.0633
@<TRIPOS>BOND
     1    19    20    1
     2    19    17    2
     3    20    21    1
     4    18    17    1
     5    17    16    1
     6    21    22    2
     7    16    22    1
     8    16    15    2
     9    22    13    1
    10    15    14    1
    11    13    14    1
    12    13    12    1
    13    12     7    1
    14    12    10    1
    15     7     6    1
    16    41    39   am
    17     6     8    1
    18     6     5    1
    19    10    11    1
    20    10     8    1
    21    39    40    2
    22    39    38    1
    23    29    30    1
    24    29    28    1
    25    29    31    1
    26    30    35    1
    27    32    31    1
    28     9     8    1
    29     5     4    1
    30    37    38    1
    31    37    36    1
    32    28    27    1
    33    35    36    1
    34    35    33    1
    35    38    42    2
    36    31    33    1
    37    36    44    1
    38     4     1    1
    39    26    24    2
    40    33    34    1
    41    27    24    1
    42    42    43    1
    43    44    43    2
    44    24    23    1
    45    24    25    1
    46    23     1    1
    47     1     2    2
    48     1     3    1
