@<TRIPOS>MOLECULE
1qv7_NAD_A_1.pdb
 44 48 0 0 0
SMALL
GASTEIGER

@<TRIPOS>ATOM
      1  PA        -3.0700  -13.9720   18.9150 P.3   377  NAD377      0.2189
      2  O1A       -1.7530  -14.5470   19.2620 O.2   377  NAD377     -0.5170
      3  O2A       -4.2060  -14.0970   19.8800 O.3   377  NAD377     -0.4371
      4  O5B       -3.4700  -14.4950   17.4540 O.3   377  NAD377     -0.3112
      5  C5B       -2.5330  -14.8160   16.4590 C.3   377  NAD377      0.1813
      6  C4B       -3.0510  -15.9530   15.6090 C.3   377  NAD377      0.1821
      7  O4B       -2.1960  -16.1970   14.4810 O.3   377  NAD377     -0.3135
      8  C3B       -3.1930  -17.2800   16.3610 C.3   377  NAD377      0.2184
      9  O3B       -4.5160  -17.8120   16.2920 O.3   377  NAD377     -0.2174
     10  C2B       -2.1650  -18.1760   15.6920 C.3   377  NAD377      0.2570
     11  O2B       -2.5110  -19.5500   15.7020 O.3   377  NAD377     -0.2130
     12  C1B       -2.1320  -17.5940   14.3100 C.3   377  NAD377      0.3186
     13  N9A       -0.9430  -17.9250   13.5390 N.pl3 377  NAD377     -0.1439
     14  C8A        0.3290  -17.9960   13.9870 C.3   377  NAD377      0.3377
     15  N7A        1.1200  -18.3090   12.9670 N.2   377  NAD377     -0.2095
     16  C5A        0.3880  -18.4140   11.8730 C.2   377  NAD377      0.2526
     17  C6A        0.6390  -18.7740   10.4950 C.2   377  NAD377      0.4393
     18  N6A        1.8960  -19.0120   10.0280 N.pl3 377  NAD377      0.2180
     19  N1A       -0.4110  -18.7620    9.6880 N.2   377  NAD377      0.0021
     20  C2A       -1.6580  -18.5020   10.1040 C.3   377  NAD377      0.5254
     21  N3A       -1.9780  -18.2310   11.3750 N.2   377  NAD377     -0.0055
     22  C4A       -0.9930  -18.1890   12.2650 C.2   377  NAD377      0.3518
     23  O3        -2.7880  -12.4280   18.6780 O.3   377  NAD377     -0.2703
     24  PN        -3.8450  -11.2300   18.6540 P.3   377  NAD377      0.2189
     25  O1N       -4.0370  -10.7130   20.0320 O.3   377  NAD377     -0.4371
     26  O2N       -5.0510  -11.6520   17.8280 O.2   377  NAD377     -0.5170
     27  O5D       -2.8190  -10.2170   17.9610 O.3   377  NAD377     -0.3112
     28  C5D       -2.4880  -10.4190   16.6120 C.3   377  NAD377      0.1813
     29  C4D       -1.4140   -9.4450   16.1820 C.3   377  NAD377      0.1799
     30  O4D       -1.9700   -8.1210   16.1890 O.3   377  NAD377     -0.3327
     31  C3D       -0.2140   -9.4200   17.1190 C.3   377  NAD377      0.2158
     32  O3D        0.9220   -9.2860   16.3010 O.3   377  NAD377     -0.2175
     33  C2D       -0.4570   -8.1750   17.9260 C.3   377  NAD377      0.2309
     34  O2D        0.7390   -7.6660   18.4000 O.3   377  NAD377     -0.2158
     35  C1D       -1.0630   -7.2620   16.8590 C.3   377  NAD377      0.2263
     36  N1N       -1.8440   -6.0990   17.2890 N.pl3 377  NAD377     -0.2787
     37  C2N       -1.7650   -4.9580   16.5380 C.3   377  NAD377      0.1244
     38  C3N       -2.4590   -3.8480   16.9050 C.2   377  NAD377      0.0544
     39  C7N       -2.3670   -2.6390   16.0470 C.2   377  NAD377      0.2818
     40  O7N       -2.7970   -1.4350   16.5510 O.2   377  NAD377     -0.2670
     41  N7N       -2.0010   -2.7580   14.7420 N.am  377  NAD377     -0.0839
     42  C4N       -3.2950   -3.8840   18.0200 C.2   377  NAD377      0.0033
     43  C5N       -3.4200   -5.0460   18.7510 C.2   377  NAD377      0.0157
     44  C6N       -2.6770   -6.1500   18.3710 C.2   377  NAD377      0.0633
@<TRIPOS>BOND
     1    19    20    1
     2    19    17    2
     3    18    17    1
     4    20    21    1
     5    17    16    1
     6    21    22    2
     7    16    22    1
     8    16    15    2
     9    22    13    1
    10    15    14    1
    11    13    14    1
    12    13    12    1
    13    12     7    1
    14    12    10    1
    15     7     6    1
    16    41    39   am
    17     6     8    1
    18     6     5    1
    19    10    11    1
    20    10     8    1
    21    39    40    2
    22    39    38    1
    23    29    30    1
    24    29    28    1
    25    29    31    1
    26    30    35    1
    27     9     8    1
    28    32    31    1
    29     5     4    1
    30    37    38    1
    31    37    36    1
    32    28    27    1
    33    35    36    1
    34    35    33    1
    35    38    42    2
    36    31    33    1
    37    36    44    1
    38     4     1    1
    39    26    24    2
    40    33    34    1
    41    27    24    1
    42    42    43    1
    43    44    43    2
    44    24    23    1
    45    24    25    1
    46    23     1    1
    47     1     2    2
    48     1     3    1
