@<TRIPOS>MOLECULE
1qv7_DFB_A_1.pdb
 10 10 0 0 0
SMALL
GASTEIGER

@<TRIPOS>ATOM
      1  O1        -1.3880   -4.0780   20.8690 O.3   378  DFB378     -0.2151
      2  C7        -0.9790   -2.6890   20.9570 C.3   378  DFB378      0.2109
      3  C1         0.0300   -2.3310   19.8640 C.ar  378  DFB378      0.0403
      4  C2         1.4690   -2.2770   20.1130 C.ar  378  DFB378      0.1658
      5  F2         1.9870   -2.5300   21.3110 F     378  DFB378     -0.2021
      6  C6        -0.4110   -2.0170   18.5860 C.ar  378  DFB378      0.0006
      7  C5         0.4620   -1.7120   17.5490 C.ar  378  DFB378      0.0022
      8  C4         1.8310   -1.6460   17.7540 C.ar  378  DFB378      0.0319
      9  C3         2.3590   -1.9350   19.0000 C.ar  378  DFB378      0.1671
     10  F3         3.6770   -1.8730   19.2140 F     378  DFB378     -0.2018
@<TRIPOS>BOND
     1     7     8   ar
     2     7     6   ar
     3     8     9   ar
     4     6     3   ar
     5     9    10    1
     6     9     4   ar
     7     3     4   ar
     8     3     2    1
     9     4     5    1
    10     1     2    1
