@<TRIPOS>MOLECULE
1qvi_ADP_A_1.pdb
 27 29 0 0 0
SMALL
GASTEIGER

@<TRIPOS>ATOM
      1  PB       -15.5610   -9.8540   57.4480 P.3   1999  ADP1999     0.5373
      2  O1B      -15.2040   -9.7940   58.8480 O.3   1999  ADP1999    -0.1143
      3  O2B      -15.9120   -8.4730   56.8120 O.3   1999  ADP1999    -0.1143
      4  O3B      -15.6230  -11.0630   56.6510 O.2   1999  ADP1999    -0.2221
      5  PA       -12.4670   -9.4340   57.7310 P.3   1999  ADP1999     0.2231
      6  O1A      -12.5900   -8.3860   58.7350 O.3   1999  ADP1999    -0.4370
      7  O2A      -12.2340  -10.7100   58.4670 O.2   1999  ADP1999    -0.5169
      8  O3A      -13.9050   -9.7670   56.9430 O.3   1999  ADP1999    -0.2261
      9  O5'      -11.1480   -9.5950   56.9430 O.3   1999  ADP1999    -0.3111
     10  C5'      -11.1750  -10.1510   55.6490 C.3   1999  ADP1999     0.1813
     11  C4'       -9.6240  -10.4310   55.4850 C.3   1999  ADP1999     0.1821
     12  O4'       -8.9420   -9.3860   54.8240 O.3   1999  ADP1999    -0.3135
     13  C3'       -8.7910  -10.6120   56.8640 C.3   1999  ADP1999     0.2184
     14  O3'       -8.6490  -11.9740   57.3300 O.3   1999  ADP1999    -0.2174
     15  C2'       -7.4490   -9.9510   56.6340 C.3   1999  ADP1999     0.2570
     16  O2'       -6.3690  -10.8420   56.2880 O.3   1999  ADP1999    -0.2130
     17  C1'       -7.7900   -8.9130   55.5870 C.3   1999  ADP1999     0.3186
     18  N9        -8.1050   -7.5540   56.1900 N.pl3 1999  ADP1999    -0.1439
     19  C8        -9.3240   -6.9610   56.2620 C.3   1999  ADP1999     0.3377
     20  N7        -9.2160   -5.7860   56.8510 N.2   1999  ADP1999    -0.2095
     21  C5        -7.9630   -5.5940   57.1550 C.2   1999  ADP1999     0.2526
     22  C6        -7.2300   -4.5810   57.7900 C.2   1999  ADP1999     0.4393
     23  N6        -7.8420   -3.4680   58.2020 N.pl3 1999  ADP1999     0.2180
     24  N1        -5.8640   -4.7130   57.9640 N.2   1999  ADP1999     0.0021
     25  C2        -5.1900   -5.8160   57.5590 C.3   1999  ADP1999     0.5254
     26  N3        -5.8920   -6.8080   56.9490 N.2   1999  ADP1999    -0.0055
     27  C4        -7.2450   -6.7440   56.7490 C.2   1999  ADP1999     0.3518
@<TRIPOS>BOND
     1    12    11    1
     2    12    17    1
     3    11    10    1
     4    11    13    1
     5    17    18    1
     6    17    15    1
     7    10     9    1
     8    18    19    1
     9    18    27    1
    10    19    20    1
    11    16    15    1
    12    15    13    1
    13     4     1    2
    14    27    26    2
    15    27    21    1
    16     3     1    1
    17    20    21    2
    18    13    14    1
    19     8     1    1
    20     8     5    1
    21     9     5    1
    22    26    25    1
    23    21    22    1
    24     1     2    1
    25    25    24    1
    26     5     7    2
    27     5     6    1
    28    22    24    2
    29    22    23    1
