@<TRIPOS>MOLECULE
1qvj_RP5_A_1.pdb
 14 14 0 0 0
SMALL
GASTEIGER

@<TRIPOS>ATOM
      1  C1'       28.2350   31.4410   38.9170 C.3   554  RP5554      0.3513
      2  O1'       27.2750   30.6410   38.1780 O.2   554  RP5554     -0.4474
      3  C2'       29.2060   30.4630   39.6370 C.3   554  RP5554      0.2615
      4  O2'       30.5850   30.7920   39.4380 O.3   554  RP5554     -0.2130
      5  C3'       28.8230   29.0710   39.1240 C.3   554  RP5554      0.2476
      6  O3'       29.7270   28.6870   37.9600 O.3   554  RP5554     -0.2118
      7  C4'       27.5870   29.1310   38.5380 C.2   554  RP5554      0.1892
      8  C5'       26.4660   28.1080   38.2070 C.2   554  RP5554      0.2181
      9  O5'       25.2140   28.6050   37.5710 O.2   554  RP5554     -0.3937
     10  P'        25.1330   28.0310   35.9770 P.3   554  RP5554      0.5888
     11  O1X       23.7380   28.1520   35.4800 O.3   554  RP5554     -0.1039
     12  O2X       26.0430   28.7600   35.0930 O.2   554  RP5554     -0.2114
     13  O3X       25.5570   26.4880   36.0440 O.3   554  RP5554     -0.1039
     14  O1        27.5640   32.2820   39.8060 O.3   554  RP5554     -0.1714
@<TRIPOS>BOND
     1    12    10    2
     2    11    10    1
     3    10    13    1
     4    10     9    1
     5     9     8    1
     6     6     5    1
     7     2     7    1
     8     2     1    1
     9     8     7    2
    10     7     5    1
    11     1     3    1
    12     1    14    1
    13     5     3    1
    14     4     3    1
