@<TRIPOS>MOLECULE
1qvn_FRI_A_1.pdb
 47 50 0 0 0
SMALL
GASTEIGER

@<TRIPOS>ATOM
      1  O47       15.7940   12.9430   85.1680 O.2   201  FRI201     -0.2729
      2  C30       16.2040   13.2640   84.0610 C.2   201  FRI201      0.2478
      3  C29       17.6290   12.9410   83.6680 C.3   201  FRI201      0.1999
      4  N3        18.3730   12.2940   84.7380 N.am  201  FRI201     -0.1926
      5  C27       18.6330   10.9850   84.7640 C.2   201  FRI201      0.2818
      6  O46       18.4210   10.2300   83.8230 O.2   201  FRI201     -0.2696
      7  C26       19.2170   10.4640   86.0470 C.3   201  FRI201      0.2577
      8  C41       18.0850    9.9820   86.9490 C.3   201  FRI201      0.0529
      9  C32       18.2130   10.5250   88.3690 C.3   201  FRI201      0.0040
     10  C37       17.9000    9.4380   89.3890 C.3   201  FRI201      0.0001
     11  C36       17.3050   11.7310   88.5870 C.3   201  FRI201      0.0001
     12  N7        20.1830    9.3960   85.8360 N.pl3 201  FRI201     -0.0806
     13  C24       21.3030    9.2610   86.5550 C.cat 201  FRI201      0.5349
     14  N5        21.9140   10.3200   87.0900 N.pl3 201  FRI201      0.1354
     15  N4        21.8290    8.0500   86.7370 N.pl3 201  FRI201      0.1354
     16  N2        15.4250   13.8870   83.1700 N.am  201  FRI201     -0.2781
     17  C31       15.2610   13.3590   81.8030 C.3   201  FRI201      0.0938
     18  C39       15.3210   14.5020   80.7890 C.3   201  FRI201      0.0275
     19  C19       14.3170   15.5850   81.1760 C.3   201  FRI201      0.0434
     20  C21       14.7790   16.1640   82.5050 C.3   201  FRI201      0.0275
     21  C43       14.6650   15.0820   83.5790 C.3   201  FRI201      0.0938
     22  C23       14.2050   16.6450   80.1090 C.ar  201  FRI201      0.0569
     23  N8        13.0990   17.2610   79.6300 N.ar  201  FRI201     -0.2529
     24  C38       11.6990   16.9750   79.9200 C.3   201  FRI201      0.1533
     25  N6        13.4500   18.2940   78.7600 N.ar  201  FRI201     -0.1695
     26  C13       15.0490   17.2040   79.3760 C.ar  201  FRI201      0.0352
     27  C14       14.8240   18.1970   78.6210 C.ar  201  FRI201      0.1029
     28  C11       15.7530   19.0210   77.7860 C.ar  201  FRI201      0.0310
     29  C15       15.2410   19.6440   76.6460 C.ar  201  FRI201      0.0056
     30  C17       16.0860   20.3840   75.8230 C.ar  201  FRI201      0.0379
     31  C20       17.4210   20.5570   76.1940 C.ar  201  FRI201      0.1503
     32  C33       17.9200   19.9380   77.3240 C.ar  201  FRI201      0.1021
     33  C34       17.0970   19.1690   78.1220 C.ar  201  FRI201      0.0726
     34 CL10       17.8250   18.3980   79.5710 Cl    201  FRI201     -0.0812
     35 CL9        19.6470   20.1280   77.7620 Cl    201  FRI201     -0.0782
     36  O45       18.2560   21.3400   75.4530 O.3   201  FRI201     -0.4698
     37  C40       17.7740   21.9050   74.2380 C.3   201  FRI201      0.2320
     38  C22       16.5840   22.7850   74.5370 C.ar  201  FRI201      0.0212
     39  C28       15.8570   23.3470   73.4850 C.ar  201  FRI201      0.0006
     40  C25       14.8580   24.2950   73.7830 C.ar  201  FRI201      0.0164
     41  C35       14.4070   24.4350   75.1020 C.ar  201  FRI201      0.0733
     42  C18       15.1360   23.8630   76.1490 C.ar  201  FRI201      0.0164
     43  C16       16.2190   23.0350   75.8610 C.ar  201  FRI201      0.0006
     44  N1        13.2650   25.1330   75.3380 N.am  201  FRI201     -0.1792
     45  C12       13.2580   26.4200   75.6980 C.2   201  FRI201      0.2461
     46  O44       12.3790   26.8770   76.4120 O.2   201  FRI201     -0.2730
     47  C42       14.3800   27.2730   75.1720 C.3   201  FRI201      0.0968
@<TRIPOS>BOND
     1    39    40   ar
     2    39    38   ar
     3    40    41   ar
     4    37    38    1
     5    37    36    1
     6    38    43   ar
     7    41    44    1
     8    41    42   ar
     9    47    45    1
    10    44    45   am
    11    36    31    1
    12    45    46    2
    13    30    31   ar
    14    30    29   ar
    15    43    42   ar
    16    31    32   ar
    17    29    28   ar
    18    32    35    1
    19    32    33   ar
    20    28    33   ar
    21    28    27    1
    22    33    34    1
    23    27    25   ar
    24    27    26   ar
    25    25    23   ar
    26    26    22   ar
    27    23    24    1
    28    23    22   ar
    29    22    19    1
    30    18    19    1
    31    18    17    1
    32    19    20    1
    33    17    16    1
    34    20    21    1
    35    16    21    1
    36    16     2   am
    37     3     2    1
    38     3     4    1
    39     6     5    2
    40     2     1    2
    41     4     5   am
    42     5     7    1
    43    12     7    1
    44    12    13    2
    45     7     8    1
    46    13    15    1
    47    13    14    1
    48     8     9    1
    49     9    11    1
    50     9    10    1
