@<TRIPOS>MOLECULE
1qvr_ANP_A_1.pdb
 31 33 0 0 0
SMALL
GASTEIGER

@<TRIPOS>ATOM
      1  PG        40.0340   30.4800   32.3350 P.3   901  ANP901      0.4884
      2  O1G       41.0800   31.2000   31.5710 O.2   901  ANP901     -0.2331
      3  O2G       38.7140   31.3710   32.5360 O.3   901  ANP901     -0.1240
      4  O3G       39.7180   29.1610   31.7070 O.3   901  ANP901     -0.1240
      5  PB        41.4970   31.1230   34.9000 P.3   901  ANP901      0.4669
      6  O1B       40.7440   32.3740   34.8010 O.3   901  ANP901     -0.1253
      7  O2B       42.9050   31.3950   34.6240 O.2   901  ANP901     -0.2351
      8  N3B       40.6850   30.1660   33.8900 N.3   901  ANP901     -0.0163
      9  PA        40.4160   30.7860   37.7980 P.3   901  ANP901      0.2220
     10  O1A       40.8210   31.7860   38.8540 O.3   901  ANP901     -0.4370
     11  O2A       39.0150   31.0280   37.2880 O.2   901  ANP901     -0.5170
     12  O3A       41.4510   30.8430   36.5580 O.3   901  ANP901     -0.2360
     13  O5'       40.5730   29.3330   38.4330 O.3   901  ANP901     -0.3111
     14  C5'       40.2350   28.2610   37.5660 C.3   901  ANP901      0.1813
     15  C4'       40.3680   26.9570   38.3980 C.3   901  ANP901      0.1821
     16  O4'       41.6180   26.9560   39.1430 O.3   901  ANP901     -0.3135
     17  C3'       39.3910   26.7800   39.5520 C.3   901  ANP901      0.2184
     18  O3'       39.1830   25.3840   39.6700 O.3   901  ANP901     -0.2174
     19  C2'       40.1290   27.3030   40.7970 C.3   901  ANP901      0.2570
     20  O2'       39.8150   26.7090   42.0270 O.3   901  ANP901     -0.2130
     21  C1'       41.5850   27.1230   40.5740 C.3   901  ANP901      0.3186
     22  N9        42.4830   28.2280   41.1570 N.pl3 901  ANP901     -0.1439
     23  C8        43.2900   29.0480   40.4450 C.3   901  ANP901      0.3377
     24  N7        43.9540   29.8990   41.2270 N.2   901  ANP901     -0.2095
     25  C5        43.5630   29.6150   42.4750 C.2   901  ANP901      0.2526
     26  C6        43.9770   30.2380   43.7170 C.2   901  ANP901      0.4393
     27  N6        44.8840   31.2540   43.6850 N.pl3 901  ANP901      0.2180
     28  N1        43.4380   29.7830   44.9200 N.2   901  ANP901      0.0021
     29  C2        42.5280   28.7500   44.8410 C.3   901  ANP901      0.5254
     30  N3        42.1360   28.1600   43.6720 N.2   901  ANP901     -0.0055
     31  C4        42.6320   28.5610   42.4590 C.2   901  ANP901      0.3518
@<TRIPOS>BOND
     1     2     1    2
     2     4     1    1
     3     1     3    1
     4     1     8    1
     5     8     5    1
     6     7     5    2
     7     6     5    1
     8     5    12    1
     9    12     9    1
    10    11     9    2
    11    14    15    1
    12    14    13    1
    13     9    13    1
    14     9    10    1
    15    15    16    1
    16    15    17    1
    17    16    21    1
    18    17    18    1
    19    17    19    1
    20    23    22    1
    21    23    24    1
    22    21    19    1
    23    21    22    1
    24    19    20    1
    25    22    31    1
    26    24    25    2
    27    31    25    1
    28    31    30    2
    29    25    26    1
    30    30    29    1
    31    27    26    1
    32    26    28    2
    33    29    28    1
