@<TRIPOS>MOLECULE
1qvt_PRL_A_1.pdb
 16 18 0 0 0
SMALL
GASTEIGER

@<TRIPOS>ATOM
      1  C1       -61.7170  -45.6280    3.2670 C.ar  311  PRL311      0.0039
      2  C2       -61.8070  -45.7260    1.8910 C.ar  311  PRL311      0.0182
      3  C3       -62.9320  -46.2690    1.3150 C.ar  311  PRL311      0.0916
      4  C4       -63.9730  -46.7140    2.0930 C.ar  311  PRL311      0.0501
      5  C5       -65.9230  -47.4550    6.3200 C.2   311  PRL311      0.0460
      6  C6       -65.8820  -47.3820    7.6910 C.2   311  PRL311      0.0736
      7  C7       -64.7670  -46.8370    8.3240 C.3   311  PRL311      0.0708
      8  C8       -63.6960  -46.3670    7.5790 C.2   311  PRL311     -0.0174
      9  C9       -62.6830  -45.9840    5.4360 C.2   311  PRL311      0.0048
     10  N10      -64.9270  -47.0720    4.2210 N.2   311  PRL311     -0.4018
     11  C11      -63.8810  -46.6190    3.4600 C.ar  311  PRL311      0.1327
     12  C12      -63.7330  -46.4410    6.2160 C.2   311  PRL311      0.0258
     13  C13      -62.7490  -46.0670    4.0640 C.ar  311  PRL311      0.0297
     14  C14      -64.8680  -46.9910    5.5900 C.2   311  PRL311      0.1321
     15  N15      -63.0560  -46.3820   -0.0180 N.pl3 311  PRL311     -0.1280
     16  N16      -66.9400  -47.8480    8.3890 N.pl3 311  PRL311     -0.1323
@<TRIPOS>BOND
     1    15     3    1
     2     3     2   ar
     3     3     4   ar
     4     2     1   ar
     5     4    11   ar
     6     1    13   ar
     7    11    13   ar
     8    11    10    2
     9    13     9    2
    10    10    14    2
    11     9    12    1
    12    14    12    1
    13    14     5    1
    14    12     8    2
    15     5     6    2
    16     8     7    1
    17     6     7    1
    18     6    16    1
