@<TRIPOS>MOLECULE
1qvu_PRL_A_1.pdb
 16 18 0 0 0
SMALL
GASTEIGER

@<TRIPOS>ATOM
      1  C1       -61.7950  -45.2160    2.7980 C.ar  196  PRL196      0.0039
      2  C2       -62.0530  -45.3950    1.4440 C.ar  196  PRL196      0.0182
      3  C3       -63.2530  -45.9480    1.0220 C.ar  196  PRL196      0.0916
      4  C4       -64.2050  -46.3280    1.9290 C.ar  196  PRL196      0.0501
      5  C5       -65.7480  -46.8040    6.3910 C.2   196  PRL196      0.0460
      6  C6       -65.5820  -46.6520    7.7500 C.2   196  PRL196      0.0736
      7  C7       -64.3960  -46.0980    8.2380 C.3   196  PRL196      0.0708
      8  C8       -63.3880  -45.6880    7.3680 C.2   196  PRL196     -0.0174
      9  C9       -62.5540  -45.4360    5.0930 C.2   196  PRL196      0.0048
     10  N10      -64.9400  -46.5550    4.1690 N.2   196  PRL196     -0.4018
     11  C11      -63.9650  -46.1570    3.2750 C.ar  196  PRL196      0.1327
     12  C12      -63.5410  -45.8410    6.0110 C.2   196  PRL196      0.0258
     13  C13      -62.7500  -45.5970    3.7310 C.ar  196  PRL196      0.0297
     14  C14      -64.7510  -46.3910    5.5290 C.2   196  PRL196      0.1321
     15  N15      -63.5380  -46.1360   -0.2750 N.pl3 196  PRL196     -0.1280
     16  N16      -66.5780  -47.0580    8.5710 N.pl3 196  PRL196     -0.1323
@<TRIPOS>BOND
     1    15     3    1
     2     3     2   ar
     3     3     4   ar
     4     2     1   ar
     5     4    11   ar
     6     1    13   ar
     7    11    13   ar
     8    11    10    2
     9    13     9    2
    10    10    14    2
    11     9    12    1
    12    14    12    1
    13    14     5    1
    14    12     8    2
    15     5     6    2
    16     8     7    1
    17     6     7    1
    18     6    16    1
