@<TRIPOS>MOLECULE
1qvu_ET_A_1.pdb
 24 27 0 0 0
SMALL
GASTEIGER

@<TRIPOS>ATOM
      1  C1       -73.9150  -51.6640    8.7990 C.3   195  ET195       0.0550
      2  C2       -74.5840  -51.9090    9.9670 C.2   195  ET195      -0.0033
      3  C3       -74.7580  -50.9270   10.9160 C.2   195  ET195       0.0864
      4  C4       -74.2620  -49.6950   10.7230 C.2   195  ET195       0.0322
      5  N5       -73.0310  -48.0580    9.3480 N.pl3 195  ET195      -0.2871
      6  C6       -72.2470  -47.7000    8.0150 C.2   195  ET195       0.0515
      7  C7       -71.4120  -48.4720    5.8310 C.ar  195  ET195       0.0193
      8  C8       -71.2250  -49.4220    4.8440 C.ar  195  ET195       0.0891
      9  C9       -71.7430  -50.7400    5.0630 C.ar  195  ET195       0.0180
     10  C10      -72.4220  -51.0610    6.2320 C.ar  195  ET195       0.0012
     11  C11      -72.1200  -48.7690    7.0820 C.ar  195  ET195       0.0147
     12  C12      -72.6440  -50.0720    7.2920 C.ar  195  ET195      -0.0012
     13  C13      -73.3540  -50.3590    8.5220 C.2   195  ET195      -0.0040
     14  C14      -73.5490  -49.3680    9.5180 C.2   195  ET195       0.0492
     15  C15      -71.7050  -46.2950    7.8190 C.ar  195  ET195       0.0136
     16  C16      -72.6060  -45.2100    7.4210 C.ar  195  ET195       0.0012
     17  C17      -72.1540  -43.9120    7.2220 C.ar  195  ET195       0.0000
     18  C18      -70.7990  -43.5860    7.3930 C.ar  195  ET195       0.0000
     19  C19      -69.8760  -44.5860    7.7790 C.ar  195  ET195       0.0000
     20  C20      -70.3210  -45.8940    7.9840 C.ar  195  ET195       0.0012
     21  C21      -73.1930  -46.9420   10.4260 C.3   195  ET195       0.0956
     22  C22      -74.5500  -46.3100   10.5760 C.3   195  ET195       0.0236
     23  N23      -75.4370  -51.2060   12.0680 N.pl3 195  ET195      -0.1283
     24  N24      -70.5540  -49.1140    3.6510 N.pl3 195  ET195      -0.1281
@<TRIPOS>BOND
     1    24     8    1
     2     8     9   ar
     3     8     7   ar
     4     9    10   ar
     5     7    11   ar
     6    10    12   ar
     7    11    12   ar
     8    11     6    2
     9    17    18   ar
    10    17    16   ar
    11    12    13    2
    12    18    19   ar
    13    16    15   ar
    14    19    20   ar
    15    15    20   ar
    16    15     6    1
    17     6     5    1
    18    13     1    1
    19    13    14    1
    20     1     2    1
    21     5    14    1
    22     5    21    1
    23    14     4    2
    24     2     3    2
    25    21    22    1
    26     4     3    1
    27     3    23    1
