@<TRIPOS>MOLECULE
1qw4_H4B_A_1.pdb
 17 18 0 0 0
SMALL
GASTEIGER

@<TRIPOS>ATOM
      1  N1       -47.2480  143.2690   45.3640 N.2   901  H4B901     -0.2683
      2  C2       -48.2370  142.3490   45.1070 C.1   901  H4B901      0.2608
      3  N2       -49.0130  141.8270   46.0580 N.pl3 901  H4B901     -0.0220
      4  N3       -48.4200  141.9730   43.7930 N.2   901  H4B901     -0.2474
      5  C4       -47.6630  142.4640   42.6940 C.1   901  H4B901      0.2441
      6  O4       -47.9260  142.0530   41.5560 O.2   901  H4B901     -0.2063
      7  C4A      -46.6750  143.4020   43.0430 C.2   901  H4B901      0.2463
      8  C8A      -46.4510  143.8080   44.3590 C.1   901  H4B901      0.1270
      9  N5       -45.8680  143.9490   41.9620 N.2   901  H4B901     -0.2460
     10  N8       -45.5010  144.7100   44.6810 N.2   901  H4B901     -0.2054
     11  C6       -44.5060  144.4070   42.4350 C.3   901  H4B901      0.1627
     12  C7       -44.6450  145.3080   43.6430 C.3   901  H4B901      0.1643
     13  C9       -43.8230  144.9800   41.1870 C.3   901  H4B901      0.2063
     14  O9       -44.5730  146.0030   40.5750 O.3   901  H4B901     -0.2183
     15  C10      -42.4310  145.5340   41.5060 C.3   901  H4B901      0.1842
     16  C11      -41.7380  146.0790   40.3000 C.3   901  H4B901      0.0383
     17  O10      -41.7260  144.4480   42.1130 O.3   901  H4B901     -0.2204
@<TRIPOS>BOND
     1    16    15    1
     2    14    13    1
     3    13    15    1
     4    13    11    1
     5    15    17    1
     6     6     5    2
     7     9    11    1
     8     9     7    2
     9    11    12    1
    10     5     7    1
    11     5     4    2
    12     7     8    1
    13    12    10    1
    14     4     2    2
    15     8    10    2
    16     8     1    2
    17     2     1    2
    18     2     3    1
