@<TRIPOS>MOLECULE
1qw4_HEM_A_1.pdb
 43 50 0 0 0
SMALL
GASTEIGER

@<TRIPOS>ATOM
      1  CHA      -50.0490  135.5980   46.8800 C.2   900  HEM900      0.0000
      2  CHB      -53.8740  136.6440   49.7070 C.2   900  HEM900      0.0000
      3  CHC      -54.5070  131.9450   50.3080 C.2   900  HEM900      0.0000
      4  CHD      -50.1910  130.9910   48.4270 C.2   900  HEM900      0.0000
      5  C1A      -51.1410  136.2550   47.4310 C.2   900  HEM900      0.0000
      6  C2A      -51.5460  137.6260   47.1490 C.2   900  HEM900      0.0000
      7  C3A      -52.5200  137.9520   48.0140 C.2   900  HEM900      0.0000
      8  C4A      -52.8030  136.7540   48.8030 C.2   900  HEM900      0.0000
      9  CMA      -53.0940  139.3350   48.2290 C.3   900  HEM900      0.0000
     10  CAA      -51.0230  138.6090   46.1420 C.3   900  HEM900      0.0000
     11  CBA      -51.2550  138.2150   44.6960 C.3   900  HEM900      0.0000
     12  CGA      -50.8390  139.2980   43.7160 C.2   900  HEM900      0.0000
     13  O1A      -50.7390  138.9900   42.5090 O.co2 900  HEM900      0.0000
     14  O2A      -50.6210  140.4470   44.1600 O.co2 900  HEM900      0.0000
     15  C1B      -54.3600  135.4650   50.2380 C.ar  900  HEM900      0.0000
     16  C2B      -55.6050  135.3340   50.9630 C.ar  900  HEM900      0.0000
     17  C3B      -55.7880  134.0080   51.1670 C.ar  900  HEM900      0.0000
     18  C4B      -54.6740  133.3130   50.4820 C.ar  900  HEM900      0.0000
     19  CMB      -56.5460  136.4370   51.4450 C.3   900  HEM900      0.0000
     20  CAB      -56.8160  133.5260   51.9770 C.3   900  HEM900      0.0000
     21  CBB      -57.1220  132.2270   52.3470 C.3   900  HEM900      0.0000
     22  C1C      -53.4320  131.2800   49.7690 C.2   900  HEM900      0.0000
     23  C2C      -53.3530  129.8370   49.6520 C.2   900  HEM900      0.0000
     24  C3C      -52.0930  129.5270   49.1950 C.2   900  HEM900      0.0000
     25  C4C      -51.4480  130.8270   49.0060 C.2   900  HEM900      0.0000
     26  CMC      -54.4860  128.8720   50.0310 C.3   900  HEM900      0.0000
     27  CAC      -51.5010  128.2800   48.9260 C.3   900  HEM900      0.0000
     28  CBC      -51.8470  127.0310   49.4040 C.3   900  HEM900      0.0000
     29  C1D      -49.6700  132.1870   47.9380 C.ar  900  HEM900      0.0000
     30  C2D      -48.5030  132.2850   47.0460 C.ar  900  HEM900      0.0000
     31  C3D      -48.5170  133.5490   46.5700 C.ar  900  HEM900      0.0000
     32  C4D      -49.6730  134.2690   47.1620 C.ar  900  HEM900      0.0000
     33  CMD      -47.5150  131.2200   46.6170 C.3   900  HEM900      0.0000
     34  CAD      -47.5650  134.0760   45.5180 C.3   900  HEM900      0.0000
     35  CBD      -48.2660  134.2140   44.1740 C.3   900  HEM900      0.0000
     36  CGD      -47.3990  134.9190   43.1570 C.2   900  HEM900      0.0000
     37  O1D      -47.9080  135.2850   42.0740 O.co2 900  HEM900      0.0000
     38  O2D      -46.2010  135.1050   43.4460 O.co2 900  HEM900      0.0000
     39  NA       -51.9500  135.6990   48.4360 N.2   900  HEM900      0.0000
     40  NB       -53.7650  134.2300   49.9880 N.ar  900  HEM900      0.0000
     41  NC       -52.2850  131.8880   49.3350 N.2   900  HEM900      0.0000
     42  ND       -50.3700  133.4200   48.0300 N.ar  900  HEM900      0.0000
     43 FE        -51.8890  133.8540   49.2090 Fe    900  HEM900      0.0000
@<TRIPOS>BOND
     1    37    36   ar
     2    13    12   ar
     3    36    38   ar
     4    36    35    1
     5    12    14   ar
     6    12    11    1
     7    35    34    1
     8    11    10    1
     9    34    31    1
    10    10     6    1
    11    31    30   ar
    12    31    32   ar
    13    33    30    1
    14     1    32    2
    15     1     5    1
    16    30    29   ar
    17     6     5    1
    18     6     7    2
    19    32    42   ar
    20     5    39    2
    21    29    42   ar
    22    29     4    2
    23     7     9    1
    24     7     8    1
    25    42    43    1
    26     4    25    1
    27    39     8    1
    28    39    43    1
    29     8     2    2
    30    27    24    1
    31    27    28    1
    32    25    24    1
    33    25    41    2
    34    24    23    2
    35    43    41    1
    36    43    40    1
    37    41    22    1
    38    23    22    1
    39    23    26    1
    40     2    15    1
    41    22     3    2
    42    40    15   ar
    43    40    18   ar
    44    15    16   ar
    45     3    18    1
    46    18    17   ar
    47    16    17   ar
    48    16    19    1
    49    17    20    1
    50    20    21    1
