@<TRIPOS>MOLECULE
1qw4_3AR_A_1.pdb
 15 14 0 0 0
SMALL
GASTEIGER

@<TRIPOS>ATOM
      1  N        -54.1480  138.7250   42.2780 N.3   902  3AR902     -0.1208
      2  CA       -54.7970  137.8170   41.3570 C.3   902  3AR902      0.1944
      3  C        -55.9620  138.5350   40.6940 C.2   902  3AR902      0.3819
      4  O        -56.6520  139.4620   41.3800 O.co2 902  3AR902     -0.2441
      5  CB       -55.2740  136.5490   42.1010 C.3   902  3AR902      0.0343
      6  CG       -54.1760  135.7040   42.8080 C.3   902  3AR902      0.0490
      7  CD       -53.8630  136.1130   44.2600 C.3   902  3AR902      0.2204
      8  NE       -55.0600  136.0440   45.0770 N.pl3 902  3AR902     -0.0894
      9  CZ       -55.2170  135.1940   46.0940 C.cat 902  3AR902      0.4951
     10  NH1      -55.0540  133.8650   45.8750 N.pl3 902  3AR902     -0.0894
     11  NH2      -55.5590  135.6420   47.2480 N.pl3 902  3AR902      0.1317
     12  C1       -54.0950  133.0580   46.5790 C.3   902  3AR902      0.2203
     13  C2       -54.3090  131.5690   46.2270 C.3   902  3AR902      0.0469
     14  C3       -54.1590  131.2750   44.7300 C.3   902  3AR902      0.0038
     15  OXT      -56.3040  138.3040   39.3970 O.co2 902  3AR902     -0.2441
@<TRIPOS>BOND
     1    15     3   ar
     2     3     2    1
     3     3     4   ar
     4     2     5    1
     5     2     1    1
     6     5     6    1
     7     6     7    1
     8     7     8    1
     9    14    13    1
    10     8     9    1
    11    10     9    1
    12    10    12    1
    13     9    11    2
    14    13    12    1
