@<TRIPOS>MOLECULE
1qw5_H4B_A_1.pdb
 17 18 0 0 0
SMALL
GASTEIGER

@<TRIPOS>ATOM
      1  N1       -47.0340  143.2320   45.2680 N.2   901  H4B901     -0.2683
      2  C2       -48.0150  142.3080   45.0060 C.1   901  H4B901      0.2608
      3  N2       -48.8010  141.8030   45.9480 N.pl3 901  H4B901     -0.0220
      4  N3       -48.1730  141.9200   43.7070 N.2   901  H4B901     -0.2474
      5  C4       -47.3990  142.3870   42.6110 C.1   901  H4B901      0.2441
      6  O4       -47.6460  141.9610   41.4780 O.2   901  H4B901     -0.2063
      7  C4A      -46.4140  143.3350   42.9620 C.2   901  H4B901      0.2463
      8  C8A      -46.2130  143.7550   44.2710 C.1   901  H4B901      0.1270
      9  N5       -45.5860  143.8640   41.8940 N.2   901  H4B901     -0.2460
     10  N8       -45.2710  144.6660   44.6000 N.2   901  H4B901     -0.2054
     11  C6       -44.2280  144.3290   42.3750 C.3   901  H4B901      0.1627
     12  C7       -44.3900  145.2510   43.5670 C.3   901  H4B901      0.1643
     13  C9       -43.5500  144.8940   41.1160 C.3   901  H4B901      0.2063
     14  O9       -44.3340  145.9090   40.5070 O.3   901  H4B901     -0.2183
     15  C10      -42.1410  145.4690   41.4030 C.3   901  H4B901      0.1842
     16  C11      -41.4770  146.0040   40.1790 C.3   901  H4B901      0.0383
     17  O10      -41.4050  144.3970   42.0110 O.3   901  H4B901     -0.2204
@<TRIPOS>BOND
     1    16    15    1
     2    14    13    1
     3    13    15    1
     4    13    11    1
     5    15    17    1
     6     6     5    2
     7     9    11    1
     8     9     7    2
     9    11    12    1
    10     5     7    1
    11     5     4    2
    12     7     8    1
    13    12    10    1
    14     4     2    2
    15     8    10    2
    16     8     1    2
    17     2     1    2
    18     2     3    1
