@<TRIPOS>MOLECULE
1qw5_14W_A_1.pdb
 13 13 0 0 0
SMALL
GASTEIGER

@<TRIPOS>ATOM
      1  C2       -52.1350  135.4930   42.7760 C.ar  902  14W902     -0.0030
      2  C3       -52.1070  135.8430   41.3890 C.ar  902  14W902     -0.0034
      3  C4       -53.3260  135.7920   40.6530 C.ar  902  14W902     -0.0028
      4  C5       -54.5400  135.4020   41.2830 C.ar  902  14W902     -0.0005
      5  C6       -54.5400  135.0610   42.6640 C.ar  902  14W902     -0.0002
      6  C1       -53.3330  135.1020   43.4250 C.ar  902  14W902      0.0283
      7  C7       -53.3140  134.7440   44.8880 C.3   902  14W902      0.2775
      8  N8       -54.4750  135.3560   45.5230 N.pl3 902  14W902     -0.0264
      9  C9       -55.2700  134.8070   46.4840 C.2   902  14W902      0.3904
     10  C10      -55.2590  133.3130   46.7140 C.3   902  14W902      0.1389
     11  N11      -56.0430  135.5530   47.1990 N.2   902  14W902      0.1918
     12  C12      -50.8090  136.2660   40.7240 C.3   902  14W902      0.1356
     13  N13      -49.7160  135.3900   41.0860 N.3   902  14W902     -0.1262
@<TRIPOS>BOND
     1     3     4   ar
     2     3     2   ar
     3    12    13    1
     4    12     2    1
     5     4     5   ar
     6     2     1   ar
     7     5     6   ar
     8     1     6   ar
     9     6     7    1
    10     7     8    1
    11     8     9    1
    12     9    10    1
    13     9    11    2
