@<TRIPOS>MOLECULE
1qw5_HEM_A_1.pdb
 43 50 0 0 0
SMALL
GASTEIGER

@<TRIPOS>ATOM
      1  CHA      -49.9430  135.6640   46.9080 C.2   900  HEM900      0.0000
      2  CHB      -53.8780  136.6940   49.5430 C.2   900  HEM900      0.0000
      3  CHC      -54.4710  131.9920   50.2700 C.2   900  HEM900      0.0000
      4  CHD      -50.2180  131.0630   48.2980 C.2   900  HEM900      0.0000
      5  C1A      -51.0230  136.3440   47.4320 C.2   900  HEM900      0.0000
      6  C2A      -51.3500  137.7350   47.1690 C.2   900  HEM900      0.0000
      7  C3A      -52.3750  138.0540   47.9830 C.2   900  HEM900      0.0000
      8  C4A      -52.7380  136.8300   48.7210 C.2   900  HEM900      0.0000
      9  CMA      -53.0250  139.4200   48.1100 C.3   900  HEM900      0.0000
     10  CAA      -50.7500  138.6740   46.1590 C.3   900  HEM900      0.0000
     11  CBA      -51.1330  138.3040   44.7420 C.3   900  HEM900      0.0000
     12  CGA      -50.7070  139.3460   43.7120 C.2   900  HEM900      0.0000
     13  O1A      -50.6080  138.9890   42.5190 O.co2 900  HEM900      0.0000
     14  O2A      -50.4830  140.5160   44.0880 O.co2 900  HEM900      0.0000
     15  C1B      -54.3730  135.5050   50.0780 C.ar  900  HEM900      0.0000
     16  C2B      -55.6060  135.3590   50.8310 C.ar  900  HEM900      0.0000
     17  C3B      -55.7800  134.0220   51.1200 C.ar  900  HEM900      0.0000
     18  C4B      -54.6340  133.3560   50.4480 C.ar  900  HEM900      0.0000
     19  CMB      -56.5430  136.4980   51.1950 C.3   900  HEM900      0.0000
     20  CAB      -56.8170  133.5030   51.9170 C.2   900  HEM900      0.0000
     21  CBB      -57.1990  132.2140   52.2030 C.2   900  HEM900      0.0000
     22  C1C      -53.4360  131.3280   49.6450 C.2   900  HEM900      0.0000
     23  C2C      -53.3290  129.8790   49.6010 C.2   900  HEM900      0.0000
     24  C3C      -52.1010  129.5820   49.1210 C.2   900  HEM900      0.0000
     25  C4C      -51.4730  130.8780   48.8520 C.2   900  HEM900      0.0000
     26  CMC      -54.3720  128.9090   50.1270 C.3   900  HEM900      0.0000
     27  CAC      -51.5140  128.3290   48.9200 C.3   900  HEM900      0.0000
     28  CBC      -51.8420  127.0960   49.4660 C.3   900  HEM900      0.0000
     29  C1D      -49.6860  132.2730   47.8680 C.ar  900  HEM900      0.0000
     30  C2D      -48.4690  132.3920   47.0570 C.ar  900  HEM900      0.0000
     31  C3D      -48.4510  133.6390   46.6320 C.ar  900  HEM900      0.0000
     32  C4D      -49.6210  134.3360   47.1620 C.ar  900  HEM900      0.0000
     33  CMD      -47.4110  131.3680   46.6980 C.3   900  HEM900      0.0000
     34  CAD      -47.4110  134.1310   45.6890 C.3   900  HEM900      0.0000
     35  CBD      -48.0290  134.2680   44.3200 C.3   900  HEM900      0.0000
     36  CGD      -47.0210  134.7330   43.3140 C.2   900  HEM900      0.0000
     37  O1D      -47.3850  134.9850   42.1480 O.co2 900  HEM900      0.0000
     38  O2D      -45.8440  134.8410   43.7000 O.co2 900  HEM900      0.0000
     39  NA       -51.8970  135.7750   48.3590 N.2   900  HEM900      0.0000
     40  NB       -53.7590  134.2740   49.8750 N.ar  900  HEM900      0.0000
     41  NC       -52.3030  131.9400   49.1600 N.2   900  HEM900      0.0000
     42  ND       -50.3680  133.4890   47.9590 N.ar  900  HEM900      0.0000
     43 FE        -51.8970  133.8940   48.9960 Fe    900  HEM900      0.0000
@<TRIPOS>BOND
     1    37    36   ar
     2    13    12   ar
     3    36    38   ar
     4    36    35    1
     5    12    14   ar
     6    12    11    1
     7    35    34    1
     8    11    10    1
     9    34    31    1
    10    10     6    1
    11    31    30   ar
    12    31    32   ar
    13    33    30    1
    14     1    32    2
    15     1     5    1
    16    30    29   ar
    17    32    42   ar
    18     6     5    1
    19     6     7    2
    20     5    39    2
    21    29    42   ar
    22    29     4    2
    23    42    43    1
    24     7     9    1
    25     7     8    1
    26     4    25    1
    27    39     8    1
    28    39    43    1
    29     8     2    2
    30    25    24    1
    31    25    41    2
    32    27    24    1
    33    27    28    1
    34    43    41    1
    35    43    40    1
    36    24    23    2
    37    41    22    1
    38     2    15    1
    39    23    22    1
    40    23    26    1
    41    22     3    2
    42    40    15   ar
    43    40    18   ar
    44    15    16   ar
    45     3    18    1
    46    18    17   ar
    47    16    17   ar
    48    16    19    1
    49    17    20    1
    50    20    21    2
