@<TRIPOS>MOLECULE
1qw6_HEM_A_1.pdb
 43 50 0 0 0
SMALL
GASTEIGER

@<TRIPOS>ATOM
      1  CHA       -1.0710    4.7050   55.8860 C.2   900  HEM900      0.0000
      2  CHB       -3.9800    0.9080   56.4420 C.2   900  HEM900      0.0000
      3  CHC       -5.4690    2.6330   60.6870 C.2   900  HEM900      0.0000
      4  CHD       -3.0250    6.7410   59.8160 C.2   900  HEM900      0.0000
      5  C1A       -1.6630    3.4760   55.7380 C.ar  900  HEM900      0.0000
      6  C2A       -1.2680    2.4950   54.7540 C.ar  900  HEM900      0.0000
      7  C3A       -2.1450    1.4800   54.8610 C.ar  900  HEM900      0.0000
      8  C4A       -3.0370    1.7950   55.9430 C.ar  900  HEM900      0.0000
      9  CMA       -2.1720    0.2280   54.0120 C.3   900  HEM900      0.0000
     10  CAA       -0.0210    2.4570   53.8800 C.3   900  HEM900      0.0000
     11  CBA        1.2050    2.4480   54.7800 C.3   900  HEM900      0.0000
     12  CGA        2.4650    2.0590   54.0610 C.2   900  HEM900      0.0000
     13  O1A        3.5440    2.2400   54.6510 O.co2 900  HEM900      0.0000
     14  O2A        2.3850    1.5680   52.9190 O.co2 900  HEM900      0.0000
     15  C1B       -4.7020    1.0460   57.6030 C.2   900  HEM900      0.0000
     16  C2B       -5.5240    0.0050   58.1770 C.2   900  HEM900      0.0000
     17  C3B       -5.9230    0.4620   59.4090 C.2   900  HEM900      0.0000
     18  C4B       -5.3990    1.8320   59.5380 C.2   900  HEM900      0.0000
     19  CMB       -5.9640   -1.2790   57.4690 C.3   900  HEM900      0.0000
     20  CAB       -6.5840   -0.2990   60.3680 C.3   900  HEM900      0.0000
     21  CBB       -7.7200    0.1100   61.0540 C.3   900  HEM900      0.0000
     22  C1C       -4.8380    3.8490   60.8980 C.ar  900  HEM900      0.0000
     23  C2C       -4.9080    4.6200   62.1430 C.ar  900  HEM900      0.0000
     24  C3C       -4.2920    5.8370   61.8700 C.ar  900  HEM900      0.0000
     25  C4C       -3.7800    5.7520   60.4810 C.ar  900  HEM900      0.0000
     26  CMC       -5.5590    4.1530   63.4490 C.3   900  HEM900      0.0000
     27  CAC       -4.1870    6.9810   62.6500 C.3   900  HEM900      0.0000
     28  CBC       -5.0210    7.3350   63.6920 C.3   900  HEM900      0.0000
     29  C1D       -2.3490    6.5870   58.6000 C.2   900  HEM900      0.0000
     30  C2D       -1.3250    7.4900   58.1000 C.2   900  HEM900      0.0000
     31  C3D       -0.7550    6.9150   57.0000 C.2   900  HEM900      0.0000
     32  C4D       -1.3990    5.6290   56.8520 C.2   900  HEM900      0.0000
     33  CMD       -0.9100    8.8150   58.7540 C.3   900  HEM900      0.0000
     34  CAD        0.2900    7.5400   56.0840 C.3   900  HEM900      0.0000
     35  CBD        1.6810    7.0200   56.4000 C.3   900  HEM900      0.0000
     36  CGD        2.7660    7.6610   55.5470 C.2   900  HEM900      0.0000
     37  O1D        3.9560    7.3460   55.7720 O.co2 900  HEM900      0.0000
     38  O2D        2.4340    8.4750   54.6570 O.co2 900  HEM900      0.0000
     39  NA        -2.7410    3.0200   56.4860 N.ar  900  HEM900      0.0000
     40  NB        -4.6430    2.1710   58.4090 N.2   900  HEM900      0.0000
     41  NC        -4.1110    4.5210   59.9050 N.ar  900  HEM900      0.0000
     42  ND        -2.4010    5.4390   57.8180 N.2   900  HEM900      0.0000
     43 FE         -3.7180    3.9280   57.9840 Fe    900  HEM900      0.0000
@<TRIPOS>BOND
     1    14    12   ar
     2    10     6    1
     3    10    11    1
     4     9     7    1
     5    12    13   ar
     6    12    11    1
     7    38    36   ar
     8     6     7   ar
     9     6     5   ar
    10     7     8   ar
    11    36    37   ar
    12    36    35    1
    13     5     1    2
    14     5    39   ar
    15     1    32    1
    16     8     2    2
    17     8    39   ar
    18    34    35    1
    19    34    31    1
    20     2    15    1
    21    39    43    1
    22    32    31    1
    23    32    42    2
    24    31    30    2
    25    19    16    1
    26    15    16    1
    27    15    40    2
    28    42    43    1
    29    42    29    1
    30    43    40    1
    31    43    41    1
    32    30    29    1
    33    30    33    1
    34    16    17    2
    35    40    18    1
    36    29     4    2
    37    17    18    1
    38    17    20    1
    39    18     3    2
    40     4    25    1
    41    41    25   ar
    42    41    22   ar
    43    20    21    1
    44    25    24   ar
    45     3    22    1
    46    22    23   ar
    47    24    23   ar
    48    24    27    1
    49    23    26    1
    50    27    28    1
