@<TRIPOS>MOLECULE
1qw6_3AR_A_1.pdb
 15 14 0 0 0
SMALL
GASTEIGER

@<TRIPOS>ATOM
      1  N          3.9250   -0.2500   56.6770 N.3   902  3AR902     -0.1208
      2  CA         4.1020   -0.7510   58.0150 C.3   902  3AR902      0.1944
      3  C          4.5830   -2.1850   57.9480 C.2   902  3AR902      0.3819
      4  O          4.2070   -3.0080   56.9310 O.co2 902  3AR902     -0.2441
      5  CB         2.7890   -0.6740   58.8270 C.3   902  3AR902      0.0343
      6  CG         2.1370    0.7160   59.0340 C.3   902  3AR902      0.0490
      7  CD         1.1140    1.1470   57.9580 C.3   902  3AR902      0.2204
      8  NE        -0.0150    0.2090   57.8300 N.pl3 902  3AR902     -0.0894
      9  CZ        -0.9590   -0.0300   58.7860 C.cat 902  3AR902      0.4951
     10  NH1       -0.8790    0.5820   59.9880 N.pl3 902  3AR902     -0.0894
     11  NH2       -1.9250   -0.8610   58.5400 N.pl3 902  3AR902      0.1317
     12  C1        -1.9230    1.4360   60.4930 C.3   902  3AR902      0.2203
     13  C2        -1.7760    1.6360   62.0050 C.3   902  3AR902      0.0469
     14  C3        -0.4370    2.2720   62.3910 C.3   902  3AR902      0.0038
     15  OXT        5.3690   -2.6930   58.9330 O.co2 902  3AR902     -0.2441
@<TRIPOS>BOND
     1     1     2    1
     2     4     3   ar
     3     8     7    1
     4     8     9    1
     5     3     2    1
     6     3    15   ar
     7     7     6    1
     8     2     5    1
     9    11     9    2
    10     9    10    1
    11     5     6    1
    12    10    12    1
    13    12    13    1
    14    13    14    1
