@<TRIPOS>MOLECULE
1qw6_H4B_A_1.pdb
 17 18 0 0 0
SMALL
GASTEIGER

@<TRIPOS>ATOM
      1  N1         2.1910    3.1600   48.5810 N.2   901  H4B901     -0.2683
      2  C2         2.1650    2.7440   49.8750 C.1   901  H4B901      0.2608
      3  N2         1.0510    2.3610   50.4700 N.pl3 901  H4B901     -0.0220
      4  N3         3.3530    2.7360   50.5510 N.2   901  H4B901     -0.2474
      5  C4         4.6160    3.1320   50.0100 C.1   901  H4B901      0.2441
      6  O4         5.6350    3.0810   50.7270 O.2   901  H4B901     -0.2063
      7  C4A        4.5530    3.5490   48.6620 C.2   901  H4B901      0.2463
      8  C8A        3.3590    3.5680   47.9460 C.1   901  H4B901      0.1270
      9  N5         5.7980    3.9700   48.0160 N.2   901  H4B901     -0.2460
     10  N8         3.2960    3.9600   46.6600 N.2   901  H4B901     -0.2054
     11  C6         5.5610    4.9430   46.8710 C.3   901  H4B901      0.1627
     12  C7         4.5040    4.3920   45.9370 C.3   901  H4B901      0.1643
     13  C9         6.9580    5.2420   46.2690 C.3   901  H4B901      0.2063
     14  O9         7.6340    4.0500   45.8720 O.3   901  H4B901     -0.2183
     15  C10        6.8890    6.2030   45.0360 C.3   901  H4B901      0.1842
     16  C11        8.2230    6.5200   44.4580 C.3   901  H4B901      0.0383
     17  O10        6.2020    7.3750   45.4840 O.3   901  H4B901     -0.2204
@<TRIPOS>BOND
     1    16    15    1
     2    15    17    1
     3    15    13    1
     4    14    13    1
     5    12    10    1
     6    12    11    1
     7    13    11    1
     8    10     8    2
     9    11     9    1
    10     8     1    2
    11     8     7    1
    12     9     7    2
    13     1     2    2
    14     7     5    1
    15     2     3    1
    16     2     4    2
    17     5     4    2
    18     5     6    2
