@<TRIPOS>MOLECULE
1qw7_EBP_B_1.pdb
 16 16 0 0 0
SMALL
GASTEIGER

@<TRIPOS>ATOM
      1  C1        30.8390   11.0220   -4.8710 C.ar  701  EBP701     -0.0101
      2  C2        29.4360   11.3290   -4.6990 C.ar  701  EBP701     -0.0040
      3  C3        28.4050   10.7800   -5.6010 C.ar  701  EBP701     -0.0046
      4  C4        28.8350    9.9310   -6.6580 C.ar  701  EBP701     -0.0219
      5  C5        30.1870    9.6320   -6.8170 C.ar  701  EBP701     -0.0046
      6  C6        31.2150   10.1750   -5.9200 C.ar  701  EBP701     -0.0040
      7  C7        31.8810   11.6210   -3.9330 C.3   701  EBP701      0.1423
      8  C8        27.8160    9.3660   -7.6080 C.3   701  EBP701      0.0310
      9  C9        34.6050   11.0510   -5.4570 C.3   701  EBP701      0.1514
     10  C10       35.9960   11.4240   -5.1000 C.3   701  EBP701      0.0352
     11  C11       32.1190   15.2480   -5.4460 C.3   701  EBP701      0.1514
     12  C12       31.3440   15.9500   -4.3710 C.3   701  EBP701      0.0352
     13  P         32.7920   12.8840   -4.4960 P.3   701  EBP701      0.3476
     14  O1        33.7530   12.2560   -5.6230 O.3   701  EBP701     -0.2939
     15  O2        31.8390   13.8080   -5.2910 O.3   701  EBP701     -0.2939
     16  O3        33.5080   13.5690   -3.4280 O.2   701  EBP701     -0.2574
@<TRIPOS>BOND
     1     8     4    1
     2     5     4   ar
     3     5     6   ar
     4     4     3   ar
     5     6     1   ar
     6    14     9    1
     7    14    13    1
     8     3     2   ar
     9     9    10    1
    10    11    15    1
    11    11    12    1
    12    15    13    1
    13     1     2   ar
    14     1     7    1
    15    13     7    1
    16    13    16    2
