@<TRIPOS>MOLECULE
1qw8_KHO_A_1.pdb
 19 20 0 0 0
SMALL
GASTEIGER

@<TRIPOS>ATOM
      1  C1        91.9330   26.6750   40.9250 C.3   950  KHO950      0.3022
      2  O4        93.3200   26.4270   40.6730 O.3   950  KHO950     -0.1869
      3  C2        91.1290   26.5510   39.6380 C.3   950  KHO950      0.2403
      4  O2        91.8500   27.1000   38.5320 O.3   950  KHO950     -0.2149
      5  C3        89.7580   27.2000   39.8980 C.3   950  KHO950      0.1859
      6  O1'       89.1310   27.3850   38.6230 O.3   950  KHO950     -0.3255
      7  C1'       87.7320   27.2160   38.3360 C.3   950  KHO950      0.2695
      8  C2'       87.3010   28.2880   37.3070 C.3   950  KHO950      0.2404
      9  C3'       87.1600   27.4910   36.0040 C.3   950  KHO950      0.2168
     10  O3'       87.8240   28.1310   34.9130 O.3   950  KHO950     -0.2175
     11  O2'       86.1330   29.0800   37.6790 O.3   950  KHO950     -0.2149
     12  O4'       87.5550   25.9470   37.6890 O.3   950  KHO950     -0.3256
     13  C4'       87.8220   26.1300   36.3190 C.3   950  KHO950      0.1836
     14  C5'       87.3780   24.8980   35.4880 C.3   950  KHO950      0.2142
     15  O5'       85.9940   24.6330   35.6710 O.3   950  KHO950     -0.2176
     16  C4        89.0490   26.3440   40.9590 C.3   950  KHO950      0.2111
     17  O6        87.8600   26.9690   41.4480 O.3   950  KHO950     -0.2177
     18  C5        89.9480   26.0610   42.1850 C.3   950  KHO950      0.1803
     19  O5        91.3270   25.7750   41.8710 O.3   950  KHO950     -0.3237
@<TRIPOS>BOND
     1    10     9    1
     2    14    15    1
     3    14    13    1
     4     9    13    1
     5     9     8    1
     6    13    12    1
     7     8    11    1
     8     8     7    1
     9    12     7    1
    10     7     6    1
    11     4     3    1
    12     6     5    1
    13     3     5    1
    14     3     1    1
    15     5    16    1
    16     2     1    1
    17     1    19    1
    18    16    17    1
    19    16    18    1
    20    19    18    1
