@<TRIPOS>MOLECULE
1qw9_KHP_A_1.pdb
 19 20 0 0 0
SMALL
GASTEIGER

@<TRIPOS>ATOM
      1  O5'       86.2470   24.7380   35.5320 O.2   1750  KHP1750    -0.2855
      2  C5B       87.5100   24.9580   35.5900 C.2   1750  KHP1750     0.2395
      3  C4B       88.0080   26.1920   36.3520 C.3   1750  KHP1750     0.2159
      4  O4'       87.6940   26.0060   37.7330 O.3   1750  KHP1750    -0.3103
      5  C1B       87.7690   27.2900   38.3370 C.3   1750  KHP1750     0.3222
      6  C2B       87.4920   28.3040   37.2350 C.3   1750  KHP1750     0.2544
      7  O2B       86.4410   29.2170   37.5320 O.3   1750  KHP1750    -0.2135
      8  C3B       87.3240   27.5000   35.9660 C.3   1750  KHP1750     0.2231
      9  O3B       87.9170   28.1690   34.8890 O.3   1750  KHP1750    -0.2171
     10  O1'       89.1100   27.5850   38.7970 O.3   1750  KHP1750    -0.4505
     11  C1'       89.5830   26.8740   39.9580 C.ar  1750  KHP1750     0.1415
     12  C2'       90.8690   26.4760   39.9270 C.ar  1750  KHP1750     0.0387
     13  C3'       91.3870   25.8000   40.9660 C.ar  1750  KHP1750     0.0272
     14  C4'       90.6300   25.5190   42.0380 C.ar  1750  KHP1750     0.1431
     15  N1'       91.1670   24.8480   43.0680 N.pl3 1750  KHP1750     0.0577
     16  O3'       90.4950   24.5770   44.0560 O.2   1750  KHP1750    -0.1261
     17  O2'       92.3390   24.4930   43.0220 O.2   1750  KHP1750    -0.1261
     18  C5'       89.3440   25.9120   42.0710 C.ar  1750  KHP1750     0.0272
     19  C6'       88.8220   26.5870   41.0260 C.ar  1750  KHP1750     0.0387
@<TRIPOS>BOND
     1     9     8    1
     2     1     2    2
     3     2     3    1
     4     8     3    1
     5     8     6    1
     6     3     4    1
     7     6     7    1
     8     6     5    1
     9     4     5    1
    10     5    10    1
    11    10    11    1
    12    12    11   ar
    13    12    13   ar
    14    11    19   ar
    15    13    14   ar
    16    19    18   ar
    17    14    18   ar
    18    14    15    1
    19    17    15    2
    20    15    16    2
