@<TRIPOS>MOLECULE
1qwc_HEM_A_1.pdb
 43 50 0 0 0
SMALL
GASTEIGER

@<TRIPOS>ATOM
      1  CHA       -1.0310    4.4480   55.6880 C.2   900  HEM900      0.0000
      2  CHB       -4.1580    0.8240   56.0610 C.2   900  HEM900      0.0000
      3  CHC       -5.4460    2.5700   60.4210 C.2   900  HEM900      0.0000
      4  CHD       -3.0640    6.6480   59.5540 C.2   900  HEM900      0.0000
      5  C1A       -1.5990    3.2000   55.5150 C.ar  900  HEM900      0.0000
      6  C2A       -1.0920    2.1220   54.6630 C.ar  900  HEM900      0.0000
      7  C3A       -2.0630    1.1480   54.6890 C.ar  900  HEM900      0.0000
      8  C4A       -3.1080    1.5980   55.6100 C.ar  900  HEM900      0.0000
      9  CMA       -2.0620   -0.1590   53.9110 C.3   900  HEM900      0.0000
     10  CAA        0.2780    2.0500   53.9750 C.3   900  HEM900      0.0000
     11  CBA        1.4780    2.0130   54.9080 C.3   900  HEM900      0.0000
     12  CGA        2.7930    1.8960   54.1760 C.2   900  HEM900      0.0000
     13  O1A        3.8460    2.0910   54.8210 O.co2 900  HEM900      0.0000
     14  O2A        2.7840    1.6050   52.9630 O.co2 900  HEM900      0.0000
     15  C1B       -4.8830    1.0770   57.2110 C.2   900  HEM900      0.0000
     16  C2B       -5.6740    0.0580   57.8530 C.2   900  HEM900      0.0000
     17  C3B       -6.0660    0.5300   59.0710 C.2   900  HEM900      0.0000
     18  C4B       -5.5010    1.8800   59.1930 C.2   900  HEM900      0.0000
     19  CMB       -5.9910   -1.3380   57.3320 C.3   900  HEM900      0.0000
     20  CAB       -6.6590   -0.2790   60.0530 C.3   900  HEM900      0.0000
     21  CBB       -7.8200   -0.0590   60.7800 C.3   900  HEM900      0.0000
     22  C1C       -4.6970    3.7070   60.6950 C.ar  900  HEM900      0.0000
     23  C2C       -4.8220    4.5030   61.9080 C.ar  900  HEM900      0.0000
     24  C3C       -4.3350    5.7540   61.6130 C.ar  900  HEM900      0.0000
     25  C4C       -3.7750    5.6600   60.2420 C.ar  900  HEM900      0.0000
     26  CMC       -5.3970    4.0440   63.2520 C.3   900  HEM900      0.0000
     27  CAC       -4.4050    6.9130   62.4120 C.3   900  HEM900      0.0000
     28  CBC       -5.2950    7.2720   63.4310 C.3   900  HEM900      0.0000
     29  C1D       -2.4000    6.4240   58.3460 C.2   900  HEM900      0.0000
     30  C2D       -1.3600    7.3070   57.8450 C.2   900  HEM900      0.0000
     31  C3D       -0.7500    6.6860   56.7920 C.2   900  HEM900      0.0000
     32  C4D       -1.4160    5.3900   56.6420 C.2   900  HEM900      0.0000
     33  CMD       -0.9750    8.6790   58.3900 C.3   900  HEM900      0.0000
     34  CAD        0.3780    7.2900   55.9500 C.3   900  HEM900      0.0000
     35  CBD        1.7410    6.6400   56.2300 C.3   900  HEM900      0.0000
     36  CGD        2.8790    7.4260   55.6230 C.2   900  HEM900      0.0000
     37  O1D        4.0440    6.9930   55.7520 O.co2 900  HEM900      0.0000
     38  O2D        2.6040    8.4840   55.0210 O.co2 900  HEM900      0.0000
     39  NA        -2.7790    2.8190   56.1680 N.ar  900  HEM900      0.0000
     40  NB        -4.7650    2.2070   58.0420 N.2   900  HEM900      0.0000
     41  NC        -4.0220    4.3960   59.6970 N.ar  900  HEM900      0.0000
     42  ND        -2.4470    5.2430   57.5940 N.2   900  HEM900      0.0000
     43 FE         -3.7540    3.7890   57.7520 Fe    900  HEM900      0.0000
@<TRIPOS>BOND
     1    14    12   ar
     2     9     7    1
     3    10     6    1
     4    10    11    1
     5    12    13   ar
     6    12    11    1
     7     6     7   ar
     8     6     5   ar
     9     7     8   ar
    10    38    36   ar
    11     5     1    2
    12     5    39   ar
    13     8     2    2
    14     8    39   ar
    15    36    37   ar
    16    36    35    1
    17     1    32    1
    18    34    35    1
    19    34    31    1
    20     2    15    1
    21    39    43    1
    22    32    31    1
    23    32    42    2
    24    31    30    2
    25    15    16    1
    26    15    40    2
    27    19    16    1
    28    42    43    1
    29    42    29    1
    30    43    40    1
    31    43    41    1
    32    30    29    1
    33    30    33    1
    34    16    17    2
    35    40    18    1
    36    29     4    2
    37    17    18    1
    38    17    20    1
    39    18     3    2
    40     4    25    1
    41    41    25   ar
    42    41    22   ar
    43    20    21    1
    44    25    24   ar
    45     3    22    1
    46    22    23   ar
    47    24    23   ar
    48    24    27    1
    49    23    26    1
    50    27    28    1
