@<TRIPOS>MOLECULE
1qwc_H4B_A_1.pdb
 17 18 0 0 0
SMALL
GASTEIGER

@<TRIPOS>ATOM
      1  N1         2.1950    3.2100   48.3460 N.2   901  H4B901     -0.2683
      2  C2         2.1130    2.7630   49.6220 C.1   901  H4B901      0.2608
      3  N2         0.9680    2.3700   50.1690 N.pl3 901  H4B901     -0.0220
      4  N3         3.2620    2.7280   50.3400 N.2   901  H4B901     -0.2474
      5  C4         4.5520    3.1230   49.8700 C.1   901  H4B901      0.2441
      6  O4         5.5250    3.0340   50.6390 O.2   901  H4B901     -0.2063
      7  C4A        4.5520    3.5800   48.5200 C.2   901  H4B901      0.2463
      8  C8A        3.3880    3.6260   47.7620 C.1   901  H4B901      0.1270
      9  N5         5.8220    4.0070   47.9150 N.2   901  H4B901     -0.2460
     10  N8         3.3700    4.0480   46.4830 N.2   901  H4B901     -0.2054
     11  C6         5.6280    5.0070   46.7670 C.3   901  H4B901      0.1627
     12  C7         4.5960    4.4900   45.8020 C.3   901  H4B901      0.1643
     13  C9         7.0420    5.2920   46.1970 C.3   901  H4B901      0.2063
     14  O9         7.6980    4.1080   45.7790 O.3   901  H4B901     -0.2183
     15  C10        7.0300    6.2550   44.9850 C.3   901  H4B901      0.1842
     16  C11        8.3950    6.5260   44.4720 C.3   901  H4B901      0.0383
     17  O10        6.3600    7.4430   45.4260 O.3   901  H4B901     -0.2204
@<TRIPOS>BOND
     1    16    15    1
     2    15    17    1
     3    15    13    1
     4    14    13    1
     5    12    10    1
     6    12    11    1
     7    13    11    1
     8    10     8    2
     9    11     9    1
    10     8     1    2
    11     8     7    1
    12     9     7    2
    13     1     2    2
    14     7     5    1
    15     2     3    1
    16     2     4    2
    17     5     4    2
    18     5     6    2
