@<TRIPOS>MOLECULE
1qwc_14W_A_1.pdb
 13 13 0 0 0
SMALL
GASTEIGER

@<TRIPOS>ATOM
      1  C2         3.0400    2.4780   58.1060 C.ar  902  14W902     -0.0030
      2  C3         4.4170    2.2610   58.2130 C.ar  902  14W902     -0.0034
      3  C4         4.8600    1.1620   58.9560 C.ar  902  14W902     -0.0028
      4  C5         3.9460    0.3050   59.5710 C.ar  902  14W902     -0.0005
      5  C6         2.5750    0.5380   59.4460 C.ar  902  14W902     -0.0002
      6  C1         2.1060    1.6320   58.7120 C.ar  902  14W902      0.0283
      7  C7         0.6310    1.9270   58.5910 C.3   902  14W902      0.2775
      8  N8        -0.0690    0.6740   58.4250 N.pl3 902  14W902     -0.0264
      9  C9        -1.2960    0.3970   58.9010 C.2   902  14W902      0.3904
     10  C10       -1.7710    1.0950   60.1360 C.3   902  14W902      0.1389
     11  N11       -2.0630   -0.4460   58.3120 N.2   902  14W902      0.1918
     12  C12        5.3850    3.1980   57.5350 C.3   902  14W902      0.1356
     13  N13        4.6960    4.0320   56.5820 N.3   902  14W902     -0.1262
@<TRIPOS>BOND
     1    13    12    1
     2    12     2    1
     3     1     2   ar
     4     1     6   ar
     5     2     3   ar
     6    11     9    2
     7     8     7    1
     8     8     9    1
     9     7     6    1
    10     6     5   ar
    11     9    10    1
    12     3     4   ar
    13     5     4   ar
