@<TRIPOS>MOLECULE
1qwj_NCC_A_1.pdb
 41 43 0 0 0
SMALL
GASTEIGER

@<TRIPOS>ATOM
      1  O3P      111.1560    3.8670   11.4300 O.3   2002  NCC2002    -0.4372
      2  P        112.0320    3.6190   10.2640 P.3   2002  NCC2002     0.2162
      3  O2P      111.1600    3.0810    9.0120 O.3   2002  NCC2002    -0.2833
      4  O1P      112.7180    4.8870    9.9010 O.2   2002  NCC2002    -0.5171
      5  O5'      113.1370    2.5210   10.5720 O.3   2002  NCC2002    -0.3113
      6  C5'      112.8930    1.1580   11.0160 C.3   2002  NCC2002     0.1813
      7  C4'      113.8380    0.8970   12.2310 C.3   2002  NCC2002     0.1799
      8  O4'      115.1170    0.5350   11.6770 O.3   2002  NCC2002    -0.3320
      9  C1'      116.1570    1.3890   12.1840 C.3   2002  NCC2002     0.2400
     10  N1       117.1990    1.7600   11.1840 N.am  2002  NCC2002    -0.1778
     11  C6       116.9210    1.7500    9.8320 C.2   2002  NCC2002     0.0836
     12  C5       117.9200    2.0800    8.8740 C.2   2002  NCC2002     0.0687
     13  C4       119.2160    2.4140    9.3690 C.2   2002  NCC2002     0.2346
     14  N4       120.2300    2.7270    8.5050 N.pl3 2002  NCC2002    -0.0921
     15  N3       119.4450    2.4160   10.7180 N.2   2002  NCC2002    -0.3024
     16  C2       118.4730    2.0890   11.6310 C.1   2002  NCC2002     0.2756
     17  O2       118.7500    2.1100   12.8380 O.2   2002  NCC2002    -0.1925
     18  C2'      115.4810    2.5900   12.8820 C.3   2002  NCC2002     0.2319
     19  O2'      116.1110    2.9120   14.1150 O.3   2002  NCC2002    -0.2157
     20  C3'      113.9990    2.2110   13.0150 C.3   2002  NCC2002     0.2158
     21  O3'      113.6770    1.9400   14.3820 O.3   2002  NCC2002    -0.2175
     22  C9       110.8750    4.8050    7.3160 C.2   2002  NCC2002     0.4155
     23  O1B      110.4140    5.5460    8.1720 O.co2 2002  NCC2002    -0.2402
     24  O1A      110.9820    5.2040    6.0510 O.co2 2002  NCC2002    -0.2402
     25  C10      111.3480    3.3870    7.5850 C.3   2002  NCC2002     0.2906
     26  O6       110.5240    2.4710    6.8080 O.3   2002  NCC2002    -0.3237
     27  C12      110.9180    1.0790    6.9730 C.3   2002  NCC2002     0.1733
     28  C13      109.9550    0.2110    6.1390 C.3   2002  NCC2002     0.2135
     29  O7       109.7650    0.8300    4.8640 O.3   2002  NCC2002    -0.2176
     30  C14      108.6110    0.0990    6.8680 C.3   2002  NCC2002     0.2173
     31  O8       108.7970   -0.5190    8.1390 O.3   2002  NCC2002    -0.2175
     32  C15      107.6070   -0.7300    6.0650 C.3   2002  NCC2002     0.2175
     33  O9       106.5300    0.1220    5.6580 O.3   2002  NCC2002    -0.2175
     34  C16      112.4270    0.8650    6.5250 C.3   2002  NCC2002     0.1554
     35  N5       112.8410   -0.5200    6.7090 N.am  2002  NCC2002    -0.2020
     36  C17      113.3240   -1.1660    5.5060 C.2   2002  NCC2002     0.2420
     37  O10      113.3890   -0.6140    4.4160 O.2   2002  NCC2002    -0.2733
     38  C18      113.7640   -2.5980    5.6320 C.3   2002  NCC2002     0.0964
     39  C19      113.3460    1.7990    7.3660 C.3   2002  NCC2002     0.1797
     40  O4       114.7250    1.6480    6.9780 O.3   2002  NCC2002    -0.2210
     41  C20      112.8610    3.2530    7.1440 C.3   2002  NCC2002     0.1031
@<TRIPOS>BOND
     1    37    36    2
     2    29    28    1
     3    36    38    1
     4    36    35   am
     5    33    32    1
     6    24    22   ar
     7    32    30    1
     8    28    30    1
     9    28    27    1
    10    34    35    1
    11    34    27    1
    12    34    39    1
    13    26    27    1
    14    26    25    1
    15    30    31    1
    16    40    39    1
    17    41    39    1
    18    41    25    1
    19    22    25    1
    20    22    23   ar
    21    25     3    1
    22    14    13    1
    23    12    13    1
    24    12    11    2
    25     3     2    1
    26    13    15    2
    27    11    10    1
    28     4     2    2
    29     2     5    1
    30     2     1    1
    31     5     6    1
    32    15    16    2
    33     6     7    1
    34    10    16   am
    35    10     9    1
    36    16    17    2
    37     8     9    1
    38     8     7    1
    39     9    18    1
    40     7    20    1
    41    18    20    1
    42    18    19    1
    43    20    21    1
