@<TRIPOS>MOLECULE
1qwn_GUL_A_1.pdb
 12 12 0 0 0
SMALL
GASTEIGER

@<TRIPOS>ATOM
      1  C5        30.3670   66.1650    6.8130 C.3   2003  GUL2003     0.2883
      2  C2        32.4160   65.7870    8.7280 C.3   2003  GUL2003     0.2143
      3  F1        29.6870   65.7450    5.7280 F     2003  GUL2003    -0.2039
      4  O2        33.5300   65.3200    9.4430 O.3   2003  GUL2003    -0.2176
      5  C3        32.8600   66.6620    7.4710 C.3   2003  GUL2003     0.2200
      6  O3        34.0860   66.0660    6.9900 O.3   2003  GUL2003    -0.2174
      7  C4        31.8180   66.4850    6.3270 C.3   2003  GUL2003     0.2431
      8  O4        31.7550   67.6970    5.5750 O.3   2003  GUL2003    -0.2146
      9  C6        29.6220   67.3070    7.4710 C.3   2003  GUL2003     0.2458
     10  O6        28.3290   66.8700    7.8820 O.3   2003  GUL2003    -0.2145
     11  O         30.3920   65.0040    7.6720 O.3   2003  GUL2003    -0.3239
     12  C1        31.5840   64.5790    8.3650 C.3   2003  GUL2003     0.1805
@<TRIPOS>BOND
     1     8     7    1
     2     3     1    1
     3     7     1    1
     4     7     5    1
     5     1     9    1
     6     1    11    1
     7     6     5    1
     8     5     2    1
     9     9    10    1
    10    11    12    1
    11    12     2    1
    12     2     4    1
