@<TRIPOS>MOLECULE
1qws_HEM_A_1.pdb
 43 50 0 0 0
SMALL
GASTEIGER

@<TRIPOS>ATOM
      1 FE         -1.4530   -1.5950   21.2440 Fe    760  HEM760      0.0000
      2  CHA        1.7160   -3.0070   20.9610 C.2   760  HEM760      0.0000
      3  CHB       -2.2100   -3.8740   23.7540 C.2   760  HEM760      0.0000
      4  CHC       -4.1460    0.3740   22.1610 C.2   760  HEM760      0.0000
      5  CHD       -0.6940    0.5730   18.7080 C.2   760  HEM760      0.0000
      6  NA        -0.4190   -3.1120   22.2000 N.2   760  HEM760      0.0000
      7  C1A        0.8430   -3.5650   21.8840 C.2   760  HEM760      0.0000
      8  C2A        1.1160   -4.7390   22.6890 C.2   760  HEM760      0.0000
      9  C3A        0.0200   -4.9610   23.4400 C.2   760  HEM760      0.0000
     10  C4A       -0.9510   -3.9280   23.1970 C.2   760  HEM760      0.0000
     11  CMA       -0.2270   -6.0640   24.4800 C.3   760  HEM760      0.0000
     12  CAA        2.4300   -5.6100   22.6620 C.3   760  HEM760      0.0000
     13  CBA        2.2410   -6.8670   21.7520 C.3   760  HEM760      0.0000
     14  CGA        3.5780   -7.5930   21.9140 C.2   760  HEM760      0.0000
     15  O1A        4.3980   -7.5280   20.9620 O.co2 760  HEM760      0.0000
     16  O2A        3.8140   -8.1430   23.0100 O.co2 760  HEM760      0.0000
     17  NB        -2.8570   -1.7320   22.7290 N.ar  760  HEM760      0.0000
     18  C1B       -3.0890   -2.8090   23.5700 C.ar  760  HEM760      0.0000
     19  C2B       -4.4090   -2.6550   24.1660 C.ar  760  HEM760      0.0000
     20  C3B       -4.9170   -1.4820   23.7460 C.ar  760  HEM760      0.0000
     21  C4B       -3.9680   -0.8640   22.8110 C.ar  760  HEM760      0.0000
     22  CMB       -5.0450   -3.6970   25.1160 C.3   760  HEM760      0.0000
     23  CAB       -6.2870   -0.8510   24.0730 C.2   760  HEM760      0.0000
     24  CBB       -7.3470   -1.6280   24.1910 C.2   760  HEM760      0.0000
     25  NC        -2.2480    0.1960   20.5870 N.2   760  HEM760      0.0000
     26  C1C       -3.4400    0.7580   21.0320 C.2   760  HEM760      0.0000
     27  C2C       -3.7660    1.8180   20.0980 C.2   760  HEM760      0.0000
     28  C3C       -2.8310    1.8130   19.1480 C.2   760  HEM760      0.0000
     29  C4C       -1.8410    0.7910   19.4490 C.2   760  HEM760      0.0000
     30  CMC       -5.0450    2.7140   20.1690 C.3   760  HEM760      0.0000
     31  CAC       -2.6840    2.7160   17.9200 C.2   760  HEM760      0.0000
     32  CBC       -3.7910    3.1460   17.2890 C.2   760  HEM760      0.0000
     33  ND         0.2640   -1.2560   20.0960 N.ar  760  HEM760      0.0000
     34  C1D        0.3080   -0.3190   19.0540 C.ar  760  HEM760      0.0000
     35  C2D        1.5170   -0.4790   18.3280 C.ar  760  HEM760      0.0000
     36  C3D        2.2600   -1.5780   19.0100 C.ar  760  HEM760      0.0000
     37  C4D        1.4230   -2.0080   20.0870 C.ar  760  HEM760      0.0000
     38  CMD        2.0470    0.3330   17.1350 C.3   760  HEM760      0.0000
     39  CAD        3.6400   -2.1040   18.5800 C.3   760  HEM760      0.0000
     40  CBD        3.1980   -3.3530   17.7820 C.3   760  HEM760      0.0000
     41  CGD        4.4610   -3.9930   17.2260 C.2   760  HEM760      0.0000
     42  O1D        4.4370   -5.1640   16.8640 O.co2 760  HEM760      0.0000
     43  O2D        5.5470   -3.3360   17.0880 O.co2 760  HEM760      0.0000
@<TRIPOS>BOND
     1    42    41   ar
     2    43    41   ar
     3    38    35    1
     4    41    40    1
     5    32    31    2
     6    40    39    1
     7    31    28    1
     8    35    36   ar
     9    35    34   ar
    10    39    36    1
    11     5    34    2
    12     5    29    1
    13    36    37   ar
    14    34    33   ar
    15    28    29    1
    16    28    27    2
    17    29    25    2
    18    37    33   ar
    19    37     2    2
    20    33     1    1
    21    27    30    1
    22    27    26    1
    23    25    26    1
    24    25     1    1
    25     2     7    1
    26    15    14   ar
    27    26     4    2
    28     1     6    1
    29     1    17    1
    30    13    14    1
    31    13    12    1
    32     7     6    2
    33     7     8    1
    34    14    16   ar
    35     4    21    1
    36     6    10    1
    37    12     8    1
    38     8     9    2
    39    17    21   ar
    40    17    18   ar
    41    21    20   ar
    42    10     9    1
    43    10     3    2
    44     9    11    1
    45    18     3    1
    46    18    19   ar
    47    20    23    1
    48    20    19   ar
    49    23    24    2
    50    19    22    1
