@<TRIPOS>MOLECULE
1qwu_GUL_A_1.pdb
 12 12 0 0 0
SMALL
GASTEIGER

@<TRIPOS>ATOM
      1  C5        30.3620   66.0770    6.6520 C.3   2003  GUL2003     0.3160
      2  C2        32.4770   65.7760    8.8070 C.3   2003  GUL2003     0.2143
      3  F1        29.6860   65.5500    5.7770 F     2003  GUL2003    -0.1983
      4  O2        33.4980   65.4240    9.5600 O.3   2003  GUL2003    -0.2176
      5  C3        32.8450   66.4910    7.4470 C.3   2003  GUL2003     0.2204
      6  O3        34.1240   66.1290    6.9930 O.3   2003  GUL2003    -0.2174
      7  C4        31.8710   66.5730    6.1380 C.3   2003  GUL2003     0.2480
      8  O4        31.6410   67.5950    5.3770 O.3   2003  GUL2003    -0.2142
      9  C6        29.4220   67.1420    7.3000 C.2   2003  GUL2003     0.2707
     10  O6        28.5530   66.9110    7.9970 O.2   2003  GUL2003    -0.2826
     11  O         30.3510   65.0050    7.7570 O.3   2003  GUL2003    -0.3203
     12  C1        31.5720   64.5480    8.3260 C.3   2003  GUL2003     0.1808
@<TRIPOS>BOND
     1     8     7    1
     2     3     1    1
     3     7     1    1
     4     7     5    1
     5     1     9    1
     6     1    11    1
     7     6     5    1
     8     9    10    2
     9     5     2    1
    10    11    12    1
    11    12     2    1
    12     2     4    1
