@<TRIPOS>MOLECULE
1qx1_FMF_A_1.pdb
 11 11 0 0 0
SMALL
GASTEIGER

@<TRIPOS>ATOM
      1  C5        30.3870   66.4620    7.2340 C.3   2003  FMF2003     0.1810
      2  C2        32.2910   65.9040    9.0360 C.3   2003  FMF2003     0.2230
      3  F2        33.3520   65.3690    9.6520 F     2003  FMF2003    -0.2317
      4  C3        32.7010   66.6330    7.6630 C.3   2003  FMF2003     0.2194
      5  O3        33.9650   66.0100    7.2230 O.3   2003  FMF2003    -0.2173
      6  C4        31.6790   66.6650    6.4760 C.3   2003  FMF2003     0.2144
      7  O4        31.7960   67.8420    5.8330 O.3   2003  FMF2003    -0.2176
      8  C6        29.3220   66.4620    6.2290 C.3   2003  FMF2003     0.2141
      9  O6        28.0570   66.5860    6.9410 O.3   2003  FMF2003    -0.2176
     10  O         30.3670   65.1950    7.8500 O.3   2003  FMF2003    -0.3479
     11  C1        31.1960   64.8820    8.8970 C.3   2003  FMF2003     0.1801
@<TRIPOS>BOND
     1     7     6    1
     2     8     9    1
     3     8     1    1
     4     6     1    1
     5     6     4    1
     6     5     4    1
     7     1    10    1
     8     4     2    1
     9    10    11    1
    10    11     2    1
    11     2     3    1
