@<TRIPOS>MOLECULE
1qx6_E64_A_1.pdb
 25 24 0 0 0
SMALL
GASTEIGER

@<TRIPOS>ATOM
      1  C1        23.8430   18.8340   12.7080 C.2   245  E64245      0.3680
      2  O1        24.8310   18.2880   13.3680 O.co2 245  E64245     -0.2455
      3  O2        22.7080   19.2370   13.2670 O.co2 245  E64245     -0.2455
      4  C2        24.0030   18.9880   11.2450 C.3   245  E64245      0.1564
      5  C3        24.6180   17.6810   10.6160 C.3   245  E64245      0.2403
      6  O3        23.8060   16.4790   10.9180 O.3   245  E64245     -0.2126
      7  C4        26.0160   17.4780   11.1860 C.2   245  E64245      0.2728
      8  O4        26.7920   18.5090   11.2360 O.2   245  E64245     -0.2706
      9  N1        26.3390   16.2300   11.7570 N.am  245  E64245     -0.1956
     10  C6        27.7660   15.8390   12.2370 C.3   245  E64245      0.1728
     11  C7        27.8490   14.2810   12.5070 C.3   245  E64245      0.0311
     12  C8        27.3120   13.5090   13.8030 C.3   245  E64245      0.0022
     13  C9        28.5290   12.9190   14.6120 C.3   245  E64245      0.0001
     14  C10       26.4750   14.4250   14.7780 C.3   245  E64245      0.0001
     15  C11       28.8910   16.2420   11.1660 C.2   245  E64245      0.2612
     16  O5        30.1050   15.8940   11.3280 O.2   245  E64245     -0.2715
     17  N2        28.5150   16.9230   10.0550 N.am  245  E64245     -0.2040
     18  C12       28.6960   16.3760    8.6340 C.3   245  E64245      0.1153
     19  C13       27.7410   15.1760    8.2520 C.3   245  E64245      0.0271
     20  C14       28.1340   13.9260    9.1010 C.3   245  E64245      0.0487
     21  C15       28.8520   12.8440    8.2570 C.3   245  E64245      0.2205
     22  N3        28.1060   11.5760    8.2690 N.pl3 245  E64245     -0.0865
     23  C16       27.9310   10.7640    9.3550 C.cat 245  E64245      0.5346
     24  N4        27.2250    9.6240    9.2130 N.pl3 245  E64245      0.1354
     25  N5        28.4610   11.0800   10.5820 N.pl3 245  E64245      0.1354
@<TRIPOS>BOND
     1    19    18    1
     2    19    20    1
     3    21    22    1
     4    21    20    1
     5    22    23    2
     6    18    17    1
     7    24    23    1
     8    23    25    1
     9    17    15   am
    10     5     6    1
    11     5     7    1
    12     5     4    1
    13    15    16    2
    14    15    10    1
    15     7     8    2
    16     7     9   am
    17     4     1    1
    18     9    10    1
    19    10    11    1
    20    11    12    1
    21     1     3   ar
    22     1     2   ar
    23    12    13    1
    24    12    14    1
