@<TRIPOS>MOLECULE
1qxa_III_B_1.pdb
 12 11 0 0 0
SMALL
GASTEIGER

@<TRIPOS>ATOM
      1  N         25.5390   20.0990    8.9990 N.3   245  GLY245     -0.1210
      2  CA        26.5940   19.1220    8.8010 C.3   245  GLY245      0.1956
      3  C         27.7840   19.6670    8.0350 C.2   245  GLY245      0.2612
      4  O         27.9210   19.4190    6.8370 O.2   245  GLY245     -0.2717
      5  N         28.6480   20.4070    8.7260 N.am  246  GLY246     -0.1942
      6  CA        29.8230   20.9740    8.0860 C.3   246  GLY246      0.2014
      7  C         31.1130   20.5220    8.7420 C.2   246  GLY246      0.2639
      8  O         31.1060   19.6220    9.5810 O.2   246  GLY246     -0.2714
      9  N         32.2250   21.1450    8.3600 N.am  247  GLY247     -0.1954
     10  CA        33.5100   20.7840    8.9330 C.3   247  GLY247      0.1869
     11  C         34.0230   19.4410    8.4450 C.2   247  GLY247      0.2309
     12  O         35.1600   19.3860    7.9260 O.2   247  GLY247     -0.2863
@<TRIPOS>BOND
     1     4     3    2
     2    12    11    2
     3     3     5   am
     4     3     2    1
     5     6     5    1
     6     6     7    1
     7     9     7   am
     8     9    10    1
     9    11    10    1
    10     7     8    2
    11     2     1    1
