@<TRIPOS>MOLECULE
1qxd_HEM_A_1.pdb
 43 50 0 0 0
SMALL
GASTEIGER

@<TRIPOS>ATOM
      1 FE         37.0400   33.0430   16.1990 Fe    143  HEM143      0.0000
      2  CHA       36.3060   32.8190   12.8260 C.2   143  HEM143      0.0000
      3  CHB       33.7930   33.6920   16.9610 C.2   143  HEM143      0.0000
      4  CHC       37.8760   33.1640   19.5640 C.2   143  HEM143      0.0000
      5  CHD       40.4620   32.7770   15.4510 C.2   143  HEM143      0.0000
      6  NA        35.3810   33.1390   15.1400 N.2   143  HEM143      0.0000
      7  C1A       35.2680   33.0690   13.7320 C.2   143  HEM143      0.0000
      8  C2A       33.9500   33.4350   13.3680 C.2   143  HEM143      0.0000
      9  C3A       33.2180   33.6840   14.4790 C.2   143  HEM143      0.0000
     10  C4A       34.1160   33.4650   15.6150 C.2   143  HEM143      0.0000
     11  CMA       31.7860   34.2030   14.5010 C.3   143  HEM143      0.0000
     12  CAA       33.5070   33.8020   11.9990 C.3   143  HEM143      0.0000
     13  CBA       32.5290   32.8630   11.3660 C.3   143  HEM143      0.0000
     14  CGA       31.9880   33.4270   10.0810 C.2   143  HEM143      0.0000
     15  O1A       31.1160   32.7710    9.4700 O.co2 143  HEM143      0.0000
     16  O2A       32.4370   34.5310    9.6880 O.co2 143  HEM143      0.0000
     17  NB        36.0740   33.4040   17.9160 N.ar  143  HEM143      0.0000
     18  C1B       34.6990   33.6840   18.0280 C.ar  143  HEM143      0.0000
     19  C2B       34.3400   33.8680   19.4190 C.ar  143  HEM143      0.0000
     20  C3B       35.4650   33.6820   20.1690 C.ar  143  HEM143      0.0000
     21  C4B       36.5560   33.3690   19.2200 C.ar  143  HEM143      0.0000
     22  CMB       32.9820   34.2360   19.9400 C.3   143  HEM143      0.0000
     23  CAB       35.5360   33.7010   21.5780 C.3   143  HEM143      0.0000
     24  CBB       35.0480   34.7310   22.4340 C.3   143  HEM143      0.0000
     25  NC        38.7620   33.0730   17.3030 N.2   143  HEM143      0.0000
     26  C1C       38.8920   33.1020   18.6800 C.2   143  HEM143      0.0000
     27  C2C       40.2750   33.0540   19.0620 C.2   143  HEM143      0.0000
     28  C3C       41.0330   32.9470   17.8950 C.2   143  HEM143      0.0000
     29  C4C       40.0940   32.9460   16.8050 C.2   143  HEM143      0.0000
     30  CMC       40.7660   33.0020   20.4990 C.3   143  HEM143      0.0000
     31  CAC       42.4310   32.9110   17.7420 C.3   143  HEM143      0.0000
     32  CBC       43.3390   33.9350   18.2760 C.3   143  HEM143      0.0000
     33  ND        38.1230   32.8400   14.5070 N.ar  143  HEM143      0.0000
     34  C1D       39.5480   32.7410   14.4010 C.ar  143  HEM143      0.0000
     35  C2D       39.9160   32.5500   13.0260 C.ar  143  HEM143      0.0000
     36  C3D       38.7520   32.5550   12.2820 C.ar  143  HEM143      0.0000
     37  C4D       37.6360   32.7010   13.1900 C.ar  143  HEM143      0.0000
     38  CMD       41.3100   32.2200   12.5450 C.3   143  HEM143      0.0000
     39  CAD       38.6790   32.4520   10.7730 C.3   143  HEM143      0.0000
     40  CBD       38.9900   33.7380   10.0140 C.3   143  HEM143      0.0000
     41  CGD       38.9180   33.5600    8.5110 C.2   143  HEM143      0.0000
     42  O1D       39.6730   32.7260    7.9630 O.co2 143  HEM143      0.0000
     43  O2D       38.1010   34.2560    7.8770 O.co2 143  HEM143      0.0000
@<TRIPOS>BOND
     1    43    41   ar
     2    42    41   ar
     3    41    40    1
     4    15    14   ar
     5    16    14   ar
     6    40    39    1
     7    14    13    1
     8    39    36    1
     9    13    12    1
    10    12     8    1
    11    36    35   ar
    12    36    37   ar
    13    38    35    1
    14     2    37    2
    15     2     7    1
    16    35    34   ar
    17    37    33   ar
    18     8     7    1
    19     8     9    2
    20     7     6    2
    21    34    33   ar
    22    34     5    2
    23     9    11    1
    24     9    10    1
    25    33     1    1
    26     6    10    1
    27     6     1    1
    28     5    29    1
    29    10     3    2
    30     1    25    1
    31     1    17    1
    32    29    25    2
    33    29    28    1
    34     3    18    1
    35    25    26    1
    36    31    28    1
    37    31    32    1
    38    28    27    2
    39    17    18   ar
    40    17    21   ar
    41    18    19   ar
    42    26    27    1
    43    26     4    2
    44    27    30    1
    45    21     4    1
    46    21    20   ar
    47    19    22    1
    48    19    20   ar
    49    20    23    1
    50    23    24    1
