@<TRIPOS>MOLECULE
1qxe_HEM_A_1.pdb
 43 50 0 0 0
SMALL
GASTEIGER

@<TRIPOS>ATOM
      1 FE         37.1830   33.4230   16.4790 Fe    143  HEM143      0.0000
      2  CHA       36.3610   33.2620   13.1800 C.2   143  HEM143      0.0000
      3  CHB       33.9070   34.0100   17.3210 C.2   143  HEM143      0.0000
      4  CHC       38.0310   33.5320   19.8420 C.2   143  HEM143      0.0000
      5  CHD       40.5100   33.0380   15.7290 C.2   143  HEM143      0.0000
      6  NA        35.4840   33.5560   15.5000 N.2   143  HEM143      0.0000
      7  C1A       35.3190   33.4720   14.1190 C.2   143  HEM143      0.0000
      8  C2A       33.9390   33.7640   13.7510 C.2   143  HEM143      0.0000
      9  C3A       33.2730   34.0010   14.8550 C.2   143  HEM143      0.0000
     10  C4A       34.2260   33.8650   15.9760 C.2   143  HEM143      0.0000
     11  CMA       31.8290   34.3980   14.9850 C.3   143  HEM143      0.0000
     12  CAA       33.5930   34.2630   12.4210 C.3   143  HEM143      0.0000
     13  CBA       32.6590   33.3750   11.6820 C.3   143  HEM143      0.0000
     14  CGA       32.0460   34.1060   10.4840 C.2   143  HEM143      0.0000
     15  O1A       32.7940   34.5730    9.5830 O.co2 143  HEM143      0.0000
     16  O2A       30.8120   34.2160   10.4750 O.co2 143  HEM143      0.0000
     17  NB        36.1850   33.6790   18.2010 N.ar  143  HEM143      0.0000
     18  C1B       34.8220   33.9490   18.3560 C.ar  143  HEM143      0.0000
     19  C2B       34.4530   34.1160   19.7430 C.ar  143  HEM143      0.0000
     20  C3B       35.5920   33.9560   20.4780 C.ar  143  HEM143      0.0000
     21  C4B       36.6700   33.7040   19.5060 C.ar  143  HEM143      0.0000
     22  CMB       33.0300   34.4120   20.2760 C.3   143  HEM143      0.0000
     23  CAB       35.6860   33.8610   21.8860 C.3   143  HEM143      0.0000
     24  CBB       35.2910   34.8460   22.8250 C.3   143  HEM143      0.0000
     25  NC        38.9160   33.2760   17.5580 N.2   143  HEM143      0.0000
     26  C1C       39.0480   33.3060   18.9330 C.2   143  HEM143      0.0000
     27  C2C       40.4660   33.2730   19.2780 C.2   143  HEM143      0.0000
     28  C3C       41.2050   33.2100   18.0930 C.2   143  HEM143      0.0000
     29  C4C       40.2080   33.1770   17.0560 C.2   143  HEM143      0.0000
     30  CMC       41.0230   33.3430   20.7000 C.3   143  HEM143      0.0000
     31  CAC       42.6060   33.2350   17.9070 C.3   143  HEM143      0.0000
     32  CBC       43.4620   34.2130   18.5630 C.3   143  HEM143      0.0000
     33  ND        38.1920   33.1940   14.8220 N.ar  143  HEM143      0.0000
     34  C1D       39.5780   33.0190   14.6890 C.ar  143  HEM143      0.0000
     35  C2D       39.9530   32.8880   13.2940 C.ar  143  HEM143      0.0000
     36  C3D       38.7670   32.9690   12.6060 C.ar  143  HEM143      0.0000
     37  C4D       37.6940   33.1720   13.5220 C.ar  143  HEM143      0.0000
     38  CMD       41.3270   32.6690   12.7140 C.3   143  HEM143      0.0000
     39  CAD       38.6390   32.8370   11.1060 C.3   143  HEM143      0.0000
     40  CBD       38.9530   34.1560   10.4070 C.3   143  HEM143      0.0000
     41  CGD       39.0110   33.9930    8.8780 C.2   143  HEM143      0.0000
     42  O1D       40.0170   33.5110    8.3290 O.co2 143  HEM143      0.0000
     43  O2D       38.0120   34.3350    8.2440 O.co2 143  HEM143      0.0000
@<TRIPOS>BOND
     1    43    41   ar
     2    42    41   ar
     3    41    40    1
     4    15    14   ar
     5    40    39    1
     6    16    14   ar
     7    14    13    1
     8    39    36    1
     9    13    12    1
    10    12     8    1
    11    36    35   ar
    12    36    37   ar
    13    38    35    1
    14     2    37    2
    15     2     7    1
    16    35    34   ar
    17    37    33   ar
    18     8     7    1
    19     8     9    2
    20     7     6    2
    21    34    33   ar
    22    34     5    2
    23    33     1    1
    24     9    11    1
    25     9    10    1
    26     6    10    1
    27     6     1    1
    28     5    29    1
    29    10     3    2
    30     1    25    1
    31     1    17    1
    32    29    25    2
    33    29    28    1
    34     3    18    1
    35    25    26    1
    36    31    28    1
    37    31    32    1
    38    28    27    2
    39    17    18   ar
    40    17    21   ar
    41    18    19   ar
    42    26    27    1
    43    26     4    2
    44    27    30    1
    45    21     4    1
    46    21    20   ar
    47    19    22    1
    48    19    20   ar
    49    20    23    1
    50    23    24    1
