@<TRIPOS>MOLECULE
1qxk_429_A_1.pdb
 37 38 0 0 0
SMALL
GASTEIGER

@<TRIPOS>ATOM
      1  C1        34.4080   30.0010   19.7020 C.ar  322  429322      0.2290
      2  C2        33.7610   28.9820   20.4480 C.ar  322  429322      0.1780
      3  C3        32.3340   28.9530   20.5010 C.ar  322  429322      0.0399
      4  C4        31.5840   29.9230   19.8090 C.ar  322  429322     -0.0009
      5  C5        32.2310   30.9430   19.0530 C.ar  322  429322     -0.0166
      6  C6        33.6480   30.9680   19.0090 C.ar  322  429322      0.0410
      7  O5        34.5820   28.0540   21.0920 O.3   322  429322     -0.4604
      8  C9        31.3770   31.7290   16.7440 C.3   322  429322      0.1770
      9  N1        30.5880   32.7730   16.0700 N.am  322  429322     -0.1974
     10  C10       30.8620   33.1910   14.8150 C.2   322  429322      0.2423
     11  C11       30.7230   30.3610   16.4260 C.2   322  429322      0.2616
     12  N2        29.3920   30.3480   16.6890 N.am  322  429322     -0.2040
     13  C12       28.7460   29.2060   17.3290 C.3   322  429322      0.1153
     14  C13       27.4550   29.6820   18.0040 C.3   322  429322      0.0273
     15  C14       26.3390   30.6290   20.0860 C.3   322  429322      0.2055
     16  C15       27.6500   30.1510   19.4620 C.3   322  429322      0.0492
     17  O1        25.9830   29.7510   21.1470 O.3   322  429322     -0.4751
     18  O4        31.9830   33.4070   14.3590 O.2   322  429322     -0.2733
     19  C23       29.6010   33.3810   13.9670 C.3   322  429322      0.0964
     20  C8        34.1860   27.6790   22.3930 C.3   322  429322      0.3187
     21  O8        31.3670   29.4170   15.9840 O.2   322  429322     -0.2715
     22  C7        31.4210   31.9840   18.2930 C.3   322  429322      0.0575
     23  C24       35.0890   26.5600   22.8380 C.2   322  429322      0.4084
     24  O6        36.0330   27.0090   23.6830 O.co2 322  429322     -0.2415
     25  O7        34.9880   25.4290   22.4870 O.co2 322  429322     -0.2415
     26  C32       24.6570   29.8370   21.6320 C.ar  322  429322      0.1479
     27  C33       23.9960   31.1030   21.8360 C.ar  322  429322      0.0373
     28  C34       22.6710   31.1650   22.3230 C.ar  322  429322      0.0064
     29  C35       21.9780   29.9710   22.6200 C.ar  322  429322      0.0425
     30  C36       22.5950   28.7110   22.4340 C.ar  322  429322      0.2049
     31  C37       23.9400   28.6200   21.9410 C.ar  322  429322      0.1482
     32  C38       24.5450   27.2720   21.7650 C.2   322  429322      0.3475
     33  O11       24.6140   26.4980   22.6920 O.2   322  429322     -0.2447
     34  O12       24.9990   26.9780   20.5380 O.3   322  429322     -0.4412
     35  C39       25.5920   25.6820   20.3250 C.3   322  429322      0.2560
     36  O13       21.8470   27.5910   22.7510 O.3   322  429322     -0.2862
     37  O2        35.7900   30.0380   19.6450 O.3   322  429322     -0.2833
@<TRIPOS>BOND
     1    19    10    1
     2    18    10    2
     3    10     9   am
     4    21    11    2
     5     9     8    1
     6    11    12   am
     7    11     8    1
     8    12    13    1
     9     8    22    1
    10    13    14    1
    11    14    16    1
    12    22     5    1
    13     6     5   ar
    14     6     1   ar
    15     5     4   ar
    16    16    15    1
    17    37     1    1
    18     1     2   ar
    19     4     3   ar
    20    15    17    1
    21    35    34    1
    22     2     3   ar
    23     2     7    1
    24    34    32    1
    25     7    20    1
    26    17    26    1
    27    26    27   ar
    28    26    31   ar
    29    32    31    1
    30    32    33    2
    31    27    28   ar
    32    31    30   ar
    33    28    29   ar
    34    20    23    1
    35    30    29   ar
    36    30    36    1
    37    25    23   ar
    38    23    24   ar
