@<TRIPOS>MOLECULE
1qxl_FR8_A_1.pdb
 35 38 0 0 0
SMALL
GASTEIGER

@<TRIPOS>ATOM
      1  C1        51.6200   54.4570   20.8610 C.3   1001  FR81001     0.1246
      2  N2        51.7420   55.4290   21.9490 N.3   1001  FR81001    -0.2455
      3  C3        51.7530   54.7620   23.0990 C.3   1001  FR81001     0.2010
      4  N4        51.7180   53.4410   22.8880 N.2   1001  FR81001    -0.2506
      5  C5        51.5590   53.2580   21.4380 C.2   1001  FR81001     0.1279
      6  C8        51.3510   51.9560   20.7490 C.2   1001  FR81001     0.2988
      7  O9        51.1170   51.9070   19.5500 O.2   1001  FR81001    -0.2653
      8  N10       51.4620   50.8560   21.4520 N.am  1001  FR81001    -0.0826
      9  C13       51.7290   56.8740   21.8040 C.3   1001  FR81001     0.0945
     10  C14       53.1720   57.4710   21.7480 C.3   1001  FR81001     0.1980
     11  O15       54.0170   56.8090   22.7800 O.3   1001  FR81001    -0.2189
     12  C18       50.8830   57.2580   20.5730 C.3   1001  FR81001     0.0432
     13  C19       49.3530   57.1200   20.8080 C.3   1001  FR81001     0.1075
     14  N22       48.6800   57.3870   19.5050 N.ar  1001  FR81001    -0.3260
     15  C27       48.0790   58.5510   19.1000 C.ar  1001  FR81001     0.0759
     16  C28       47.5980   58.3980   17.8000 C.ar  1001  FR81001     0.0201
     17  C29       47.9190   57.0630   17.3840 C.ar  1001  FR81001     0.0174
     18  C30       48.5830   56.4510   18.4910 C.ar  1001  FR81001     0.0612
     19  C31       47.7070   56.3650   16.2330 C.ar  1001  FR81001     0.0028
     20  C32       48.1520   55.0500   16.1290 C.ar  1001  FR81001     0.0167
     21  C33       48.8100   54.4380   17.2310 C.ar  1001  FR81001     0.0748
     22  C34       49.0050   55.1640   18.3980 C.ar  1001  FR81001     0.0338
     23  N1        49.3280   53.1940   17.2310 N.am  1001  FR81001    -0.1792
     24  C2        49.0430   52.2480   16.3380 C.2   1001  FR81001     0.2456
     25  O1        48.4270   52.3840   15.3020 O.2   1001  FR81001    -0.2730
     26  C4        49.5660   50.9080   16.7700 C.3   1001  FR81001     0.0872
     27  C6        48.4510   49.8730   16.8750 C.3   1001  FR81001     0.0100
     28  C7        46.3970   47.1670   16.2550 C.ar  1001  FR81001    -0.0043
     29  C11       46.8070   47.4600   17.5560 C.ar  1001  FR81001    -0.0222
     30  C9        45.8770   47.5770   18.5710 C.ar  1001  FR81001    -0.0043
     31  C12       44.5550   47.2890   18.2950 C.ar  1001  FR81001    -0.0003
     32  C10       44.1590   46.9370   17.0080 C.ar  1001  FR81001    -0.0000
     33  C15       45.0680   46.8990   15.9670 C.ar  1001  FR81001    -0.0003
     34  C16       48.6290   49.0290   18.1250 C.3   1001  FR81001     0.0052
     35  C17       48.2440   47.5900   17.8670 C.3   1001  FR81001     0.0264
@<TRIPOS>BOND
     1    25    24    2
     2    33    28   ar
     3    33    32   ar
     4    20    19   ar
     5    20    21   ar
     6    19    17   ar
     7    28    29   ar
     8    24    26    1
     9    24    23   am
    10    26    27    1
    11    27    34    1
    12    32    31   ar
    13    23    21    1
    14    21    22   ar
    15    17    16   ar
    16    17    18   ar
    17    29    35    1
    18    29    30   ar
    19    16    15   ar
    20    35    34    1
    21    31    30   ar
    22    22    18   ar
    23    18    14   ar
    24    15    14   ar
    25    14    13    1
    26     7     6    2
    27    12    13    1
    28    12     9    1
    29     6     5    1
    30     6     8   am
    31     1     5    1
    32     1     2    1
    33     5     4    2
    34    10     9    1
    35    10    11    1
    36     9     2    1
    37     2     3    1
    38     4     3    1
