@<TRIPOS>MOLECULE
1qxo_FMN_A_1.pdb
 31 33 0 0 0
SMALL
GASTEIGER

@<TRIPOS>ATOM
      1  N1       -14.0550   11.3130   18.5080 N.2   4001  FMN4001    -0.2887
      2  C2       -15.0430   11.7190   19.3650 C.1   4001  FMN4001     0.3669
      3  O2       -15.1450   12.8710   19.6910 O.2   4001  FMN4001    -0.1744
      4  N3       -15.9300   10.7460   19.8300 N.2   4001  FMN4001    -0.2300
      5  C4       -15.9560    9.4690   19.5770 C.1   4001  FMN4001     0.2513
      6  O4       -16.7720    8.6640   20.0310 O.2   4001  FMN4001    -0.2057
      7  C4A      -14.8940    9.0140   18.6560 C.2   4001  FMN4001     0.2706
      8  N5       -14.8680    7.8250   18.1590 N.2   4001  FMN4001    -0.3841
      9  C5A      -13.8260    7.4340   17.3300 C.2   4001  FMN4001     0.1452
     10  C6       -13.6490    6.0690   16.9970 C.2   4001  FMN4001     0.0252
     11  C7       -12.6260    5.6410   16.1680 C.2   4001  FMN4001    -0.0375
     12  C7M      -12.4360    4.1400   15.7990 C.3   4001  FMN4001     0.0268
     13  C8       -11.7370    6.5790   15.6200 C.3   4001  FMN4001     0.0417
     14  C8M      -10.6060    6.1090   14.7100 C.3   4001  FMN4001     0.0091
     15  C9       -11.8970    7.9420   15.9330 C.2   4001  FMN4001    -0.0049
     16  C9A      -12.9400    8.3600   16.8010 C.2   4001  FMN4001     0.0795
     17  N10      -13.0270    9.6520   17.2990 N.pl3 4001  FMN4001    -0.2545
     18  C10      -13.9850   10.0470   18.1690 C.2   4001  FMN4001     0.2449
     19  C1'      -12.1300   10.7380   16.8130 C.3   4001  FMN4001     0.1336
     20  C2'      -12.6660   11.7290   15.8350 C.3   4001  FMN4001     0.2048
     21  O2'      -13.2950   11.0380   14.7100 O.3   4001  FMN4001    -0.2185
     22  C3'      -11.6610   12.7500   15.1880 C.3   4001  FMN4001     0.2165
     23  O3'      -10.7590   13.4000   16.1650 O.3   4001  FMN4001    -0.2175
     24  C4'      -12.2670   13.9160   14.4570 C.3   4001  FMN4001     0.2147
     25  O4'      -13.0380   13.4720   13.3260 O.3   4001  FMN4001    -0.2176
     26  C5'      -11.3180   15.0200   13.9720 C.3   4001  FMN4001     0.1892
     27  O5'      -10.2640   14.4390   13.1040 O.3   4001  FMN4001    -0.2674
     28  P         -8.7540   14.4620   13.5840 P.3   4001  FMN4001     0.5327
     29  O1P       -8.6420   14.0750   15.0330 O.3   4001  FMN4001    -0.1145
     30  O2P       -8.2850   15.9030   13.3870 O.3   4001  FMN4001    -0.1145
     31  O3P       -8.1190   13.4440   12.6030 O.2   4001  FMN4001    -0.2224
@<TRIPOS>BOND
     1    31    28    2
     2    27    28    1
     3    27    26    1
     4    25    24    1
     5    30    28    1
     6    28    29    1
     7    26    24    1
     8    24    22    1
     9    21    20    1
    10    14    13    1
    11    22    20    1
    12    22    23    1
    13    13    15    1
    14    13    11    1
    15    12    11    1
    16    20    19    1
    17    15    16    2
    18    11    10    2
    19    16    17    1
    20    16     9    1
    21    19    17    1
    22    10     9    1
    23    17    18    1
    24     9     8    2
    25     8     7    2
    26    18     1    2
    27    18     7    1
    28     1     2    2
    29     7     5    1
    30     2     3    2
    31     2     4    2
    32     5     4    2
    33     5     6    2
