@<TRIPOS>MOLECULE
1qxo_EPS_A_1.pdb
 21 21 0 0 0
SMALL
GASTEIGER

@<TRIPOS>ATOM
      1  C1       -17.8770    9.5430   16.7900 C.2   5001  EPS5001     0.0582
      2  C2       -19.0460    9.7770   17.5780 C.2   5001  EPS5001     0.0084
      3  C3       -19.9000    8.7660   18.0700 C.3   5001  EPS5001     0.1808
      4  C4       -19.1420    7.5580   17.9430 C.3   5001  EPS5001     0.2108
      5  C5       -18.7730    7.3340   16.5770 C.3   5001  EPS5001     0.1534
      6  C6       -17.6930    8.2140   16.2710 C.3   5001  EPS5001     0.0651
      7  O3       -20.8670    8.6830   17.2340 O.3   5001  EPS5001    -0.2655
      8  P        -22.0820    9.1470   18.1690 P.3   5001  EPS5001     0.5329
      9  O1P      -21.7560   10.4070   19.0090 O.3   5001  EPS5001    -0.1145
     10  O2P      -23.4610    8.8690   17.4140 O.2   5001  EPS5001    -0.2224
     11  O3P      -22.1760    7.8870   19.2620 O.3   5001  EPS5001    -0.1145
     12  O4       -19.8550    6.6490   18.5370 O.3   5001  EPS5001    -0.2175
     13  O5       -18.3630    6.0250   16.4210 O.3   5001  EPS5001    -0.3445
     14  C7       -19.0880    5.1120   15.7100 C.3   5001  EPS5001     0.2178
     15  C8       -20.5020    5.2990   15.4930 C.3   5001  EPS5001     0.0444
     16  C9       -18.5690    3.9550   15.1470 C.2   5001  EPS5001     0.3913
     17  O91      -17.3300    3.6520   15.3050 O.co2 5001  EPS5001    -0.2430
     18  O92      -19.2610    3.1350   14.3930 O.co2 5001  EPS5001    -0.2430
     19  C10      -16.9380   10.4230   16.2110 C.2   5001  EPS5001     0.3837
     20  O11      -15.8550   10.0930   15.5180 O.co2 5001  EPS5001    -0.2409
     21  O12      -16.8880   11.7330   16.1960 O.co2 5001  EPS5001    -0.2409
@<TRIPOS>BOND
     1    18    16   ar
     2    16    17   ar
     3    16    14    1
     4    15    14    1
     5    20    19   ar
     6    14    13    1
     7    21    19   ar
     8    19     1    1
     9     6     5    1
    10     6     1    1
    11    13     5    1
    12     5     4    1
    13     1     2    2
    14     7     3    1
    15     7     8    1
    16    10     8    2
    17     2     3    1
    18     4     3    1
    19     4    12    1
    20     8     9    1
    21     8    11    1
