@<TRIPOS>MOLECULE
1qxr_PA5_A_1.pdb
 15 14 0 0 0
SMALL
GASTEIGER

@<TRIPOS>ATOM
      1  O1A        3.3690    1.7430   11.4700 O.co2 300  PA5300     -0.2427
      2  C1         4.1900    1.4820   10.5900 C.2   300  PA5300      0.3973
      3  O1         4.4950    2.2790    9.6950 O.co2 300  PA5300     -0.2427
      4  C2         4.8990    0.1610   10.6160 C.3   300  PA5300      0.2865
      5  O2         5.8650    0.2500    9.5740 O.3   300  PA5300     -0.2080
      6  C3         5.6130    0.0220   11.9520 C.3   300  PA5300      0.2259
      7  O3         6.4270    1.1730   12.1630 O.3   300  PA5300     -0.2169
      8  C4         6.5110   -1.2140   11.9220 C.3   300  PA5300      0.2152
      9  O4         5.6810   -2.3250   11.7190 O.3   300  PA5300     -0.2176
     10  C5         7.2650   -1.4220   13.2260 C.3   300  PA5300      0.1892
     11  O5         6.3460   -1.1900   14.2990 O.3   300  PA5300     -0.2674
     12  P          6.6990   -0.0590   15.4000 P.3   300  PA5300      0.5327
     13  O1P        7.9160   -0.5770   16.1410 O.3   300  PA5300     -0.1145
     14  O2P        6.9590    1.1960   14.6110 O.2   300  PA5300     -0.2224
     15  O3P        5.4400    0.0620   16.2330 O.3   300  PA5300     -0.1145
@<TRIPOS>BOND
     1     5     4    1
     2     3     2   ar
     3     2     4    1
     4     2     1   ar
     5     4     6    1
     6     9     8    1
     7     8     6    1
     8     8    10    1
     9     6     7    1
    10    10    11    1
    11    11    12    1
    12    14    12    2
    13    12    13    1
    14    12    15    1
