@<TRIPOS>MOLECULE
1qxs_S70_A_1.pdb
 15 14 0 0 0
SMALL
GASTEIGER

@<TRIPOS>ATOM
      1  C1        22.6470  -16.0560   19.4130 C.3   804  S70804      0.1941
      2  C2        21.9660  -17.3900   18.8500 C.3   804  S70804      0.2390
      3  C3        20.3690  -17.1780   18.5900 C.2   804  S70804      0.1906
      4  C4        19.7390  -17.2250   17.1940 C.3   804  S70804      0.1259
      5  O5        22.6630  -17.6380   17.6250 O.3   804  S70804     -0.2124
      6  O6        19.5710  -16.9480   19.5180 O.2   804  S70804     -0.2928
      7  O7        23.7460  -15.6610   18.5550 O.3   804  S70804     -0.2670
      8  P8        18.0490  -17.0220   17.3450 P.3   804  S70804      0.1247
      9  O9        17.5300  -17.1160   15.8320 O.2   804  S70804     -0.4597
     10  O10       17.3740  -18.2150   18.1860 O.3   804  S70804     -0.3568
     11  O11       17.6900  -15.5970   17.9570 O.3   804  S70804     -0.3568
     12  P12       24.7320  -14.3340   18.7170 P.3   804  S70804      0.5327
     13  O13       25.7830  -14.2960   17.5180 O.2   804  S70804     -0.2224
     14  O14       25.4220  -14.2450   20.1850 O.3   804  S70804     -0.1145
     15  O15       23.7640  -12.9950   18.5260 O.3   804  S70804     -0.1145
@<TRIPOS>BOND
     1     9     8    2
     2     4     8    1
     3     4     3    1
     4     8    11    1
     5     8    10    1
     6    13    12    2
     7     5     2    1
     8    15    12    1
     9     7    12    1
    10     7     1    1
    11     3     2    1
    12     3     6    2
    13    12    14    1
    14     2     1    1
