@<TRIPOS>MOLECULE
1qxs_NAD_A_1.pdb
 44 48 0 0 0
SMALL
GASTEIGER

@<TRIPOS>ATOM
      1  PA        30.3540  -11.1620   22.5030 P.3   862  NAD862      0.2189
      2  O1A       30.4980  -10.3230   21.3130 O.2   862  NAD862     -0.5170
      3  O2A       29.7440  -10.5490   23.6720 O.3   862  NAD862     -0.4371
      4  O5B       31.7150  -11.9150   22.9090 O.3   862  NAD862     -0.3112
      5  C5B       32.7210  -12.2700   21.8920 C.3   862  NAD862      0.1813
      6  C4B       34.0640  -11.6970   22.3960 C.3   862  NAD862      0.1821
      7  O4B       35.1490  -12.1590   21.5460 O.3   862  NAD862     -0.3135
      8  C3B       34.1380  -10.1590   22.3620 C.3   862  NAD862      0.2184
      9  O3B       34.0670   -9.6980   23.7200 O.3   862  NAD862     -0.2174
     10  C2B       35.4890   -9.8540   21.6890 C.3   862  NAD862      0.2570
     11  O2B       36.2970   -8.8950   22.3930 O.3   862  NAD862     -0.2130
     12  C1B       36.2470  -11.2090   21.6330 C.3   862  NAD862      0.3186
     13  N9A       37.0090  -11.4220   20.3860 N.pl3 862  NAD862     -0.1439
     14  C8A       36.7000  -11.1030   19.0880 C.3   862  NAD862      0.3377
     15  N7A       37.6430  -11.4540   18.2080 N.2   862  NAD862     -0.2095
     16  C5A       38.6120  -12.0350   18.9880 C.2   862  NAD862      0.2526
     17  C6A       39.8790  -12.6130   18.6630 C.2   862  NAD862      0.4393
     18  N6A       40.3630  -12.6950   17.4110 N.pl3 862  NAD862      0.2180
     19  N1A       40.6100  -13.1100   19.7080 N.2   862  NAD862      0.0021
     20  C2A       40.1370  -13.0390   21.0050 C.3   862  NAD862      0.5254
     21  N3A       38.9790  -12.5180   21.3830 N.2   862  NAD862     -0.0055
     22  C4A       38.2590  -12.0240   20.3290 C.2   862  NAD862      0.3518
     23  O3        29.4000  -12.3920   22.0510 O.3   862  NAD862     -0.2703
     24  PN        28.8870  -13.6200   22.9150 P.3   862  NAD862      0.2189
     25  O1N       29.8460  -13.9110   24.0070 O.3   862  NAD862     -0.4371
     26  O2N       27.5070  -13.3380   23.3870 O.2   862  NAD862     -0.5170
     27  O5D       28.8790  -14.8130   21.8370 O.3   862  NAD862     -0.3112
     28  C5D       30.1250  -15.4850   21.5130 C.3   862  NAD862      0.1813
     29  C4D       29.7400  -16.7000   20.6450 C.3   862  NAD862      0.1799
     30  O4D       28.8170  -17.5530   21.4150 O.3   862  NAD862     -0.3327
     31  C3D       28.9920  -16.3430   19.3450 C.3   862  NAD862      0.2158
     32  O3D       29.4730  -17.2320   18.3420 O.3   862  NAD862     -0.2175
     33  C2D       27.5200  -16.5790   19.7350 C.3   862  NAD862      0.2309
     34  O2D       26.7130  -16.8740   18.5970 O.3   862  NAD862     -0.2158
     35  C1D       27.5910  -17.7570   20.7120 C.3   862  NAD862      0.2263
     36  N1N       26.5210  -17.8110   21.7380 N.pl3 862  NAD862     -0.2787
     37  C2N       26.0800  -16.6180   22.3110 C.3   862  NAD862      0.1244
     38  C3N       25.0820  -16.6420   23.2650 C.2   862  NAD862      0.0544
     39  C7N       24.4590  -15.4040   24.0170 C.2   862  NAD862      0.2818
     40  O7N       25.2250  -14.6740   24.6660 O.2   862  NAD862     -0.2670
     41  N7N       23.1350  -15.1820   23.9150 N.am  862  NAD862     -0.0839
     42  C4N       24.4710  -17.8710   23.6990 C.2   862  NAD862      0.0033
     43  C5N       24.9810  -19.0280   23.0650 C.2   862  NAD862      0.0157
     44  C6N       25.9790  -19.0900   22.0980 C.2   862  NAD862      0.0633
@<TRIPOS>BOND
     1    18    17    1
     2    15    16    2
     3    15    14    1
     4    32    31    1
     5    34    33    1
     6    17    16    1
     7    17    19    2
     8    16    22    1
     9    14    13    1
    10    31    33    1
    11    31    29    1
    12    19    20    1
    13    33    35    1
    14    22    13    1
    15    22    21    2
    16    13    12    1
    17    29    30    1
    18    29    28    1
    19    35    30    1
    20    35    36    1
    21    20    21    1
    22     2     1    2
    23    28    27    1
    24     7    12    1
    25     7     6    1
    26    12    10    1
    27    10     8    1
    28    10    11    1
    29    36    44    1
    30    36    37    1
    31    27    24    1
    32     5     6    1
    33     5     4    1
    34    23     1    1
    35    23    24    1
    36    44    43    2
    37    37    38    1
    38     8     6    1
    39     8     9    1
    40     1     4    1
    41     1     3    1
    42    24    26    2
    43    24    25    1
    44    43    42    1
    45    38    42    2
    46    38    39    1
    47    41    39   am
    48    39    40    2
