@<TRIPOS>MOLECULE
1qxw_M1C_A_1.pdb
 14 14 0 0 0
SMALL
GASTEIGER

@<TRIPOS>ATOM
      1  C13        6.8160    3.3480   -6.8150 C.3   3001  M1C3001     0.0188
      2  C12        7.6850    4.3000   -6.0070 C.3   3001  M1C3001     0.0188
      3  C11        6.1690    4.4680   -6.0000 C.3   3001  M1C3001     0.0731
      4  N3         3.4100    2.9550   -1.2110 N.3   3001  M1C3001    -0.1248
      5  C2         3.7630    3.5080   -2.5160 C.3   3001  M1C3001     0.1770
      6  C1         5.0630    4.2870   -2.3390 C.3   3001  M1C3001     0.3829
      7  C9         5.6040    4.8850   -3.6380 C.3   3001  M1C3001     0.1818
      8  N10        5.6090    3.9610   -4.7540 N.3   3001  M1C3001    -0.2118
      9  O8         6.0480    3.4360   -1.7200 O.2   3001  M1C3001    -0.2723
     10  O14        4.8170    5.3880   -1.4750 O.2   3001  M1C3001    -0.2723
     11  C4         2.6310    4.3920   -3.0590 C.3   3001  M1C3001     0.0269
     12  C5         1.3670    3.6040   -3.3820 C.3   3001  M1C3001     0.0017
     13  C6         0.2930    4.4930   -4.0190 C.3   3001  M1C3001     0.0001
     14  C7        -0.8560    3.6760   -4.5710 C.3   3001  M1C3001     0.0000
@<TRIPOS>BOND
     1     1     2    1
     2     1     3    1
     3     2     3    1
     4     3     8    1
     5     8     7    1
     6    14    13    1
     7    13    12    1
     8     7     6    1
     9    12    11    1
    10    11     5    1
    11     5     6    1
    12     5     4    1
    13     6     9    1
    14     6    10    1
