@<TRIPOS>MOLECULE
1qxy_M2C_A_1.pdb
 15 15 0 0 0
SMALL
GASTEIGER

@<TRIPOS>ATOM
      1  OA         6.2870    3.1910   -1.6160 O.2   3001  M2C3001    -0.2672
      2  C7         5.4300    3.8770   -2.4800 C.3   3001  M2C3001     0.4015
      3  O8         5.4750    5.2400   -2.0250 O.2   3001  M2C3001    -0.2672
      4  C9         4.0230    3.2670   -2.3810 C.3   3001  M2C3001     0.1822
      5  C11        2.9090    4.1360   -2.9560 C.3   3001  M2C3001     0.0389
      6  C12        1.4980    3.5620   -2.7630 C.3   3001  M2C3001     0.0593
      7  S13        0.2040    4.5530   -3.5070 S.3   3001  M2C3001    -0.1393
      8  C14       -0.7150    5.1960   -2.1620 C.3   3001  M2C3001     0.0692
      9  N10        3.7660    2.7620   -1.0590 N.3   3001  M2C3001    -0.1244
     10  C1         5.9930    3.7210   -3.8500 C.ar  3001  M2C3001     0.1431
     11  C2         6.1290    2.4990   -4.4350 C.ar  3001  M2C3001     0.0222
     12  C3         6.6540    2.4000   -5.7010 C.ar  3001  M2C3001     0.0031
     13  C4         7.1350    3.5200   -6.2970 C.ar  3001  M2C3001     0.0207
     14  C5         7.0160    4.7260   -5.6480 C.ar  3001  M2C3001     0.0987
     15  N6         6.4530    4.8160   -4.4340 N.ar  3001  M2C3001    -0.2407
@<TRIPOS>BOND
     1    13    12   ar
     2    13    14   ar
     3    12    11   ar
     4    14    15   ar
     5    11    10   ar
     6    15    10   ar
     7    10     2    1
     8     7     6    1
     9     7     8    1
    10     5     6    1
    11     5     4    1
    12     2     4    1
    13     2     3    1
    14     2     1    1
    15     4     9    1
