@<TRIPOS>MOLECULE
1qxz_M3C_A_1.pdb
 14 14 0 0 0
SMALL
GASTEIGER

@<TRIPOS>ATOM
      1  N1        16.6960    2.9840    1.1790 N.3   2001  M3C2001    -0.1244
      2  C2        16.3050    3.2690    2.5540 C.3   2001  M3C2001     0.1828
      3  C10       17.4030    4.1880    3.0830 C.3   2001  M3C2001     0.0389
      4  C11       18.7680    3.5010    3.1040 C.3   2001  M3C2001     0.0593
      5  S12       20.1420    4.5880    3.6080 S.3   2001  M3C2001    -0.1393
      6  C13       20.0090    4.1010    5.2380 C.3   2001  M3C2001     0.0692
      7  C3        14.8820    3.8460    2.5570 C.3   2001  M3C2001     0.4069
      8  O4        14.0720    3.0510    1.6930 O.2   2001  M3C2001    -0.2667
      9  O15       14.8810    5.1820    2.0730 O.2   2001  M3C2001    -0.2667
     10  C5        14.2670    3.7530    3.9390 C.ar  2001  M3C2001     0.1727
     11  N6        13.6810    4.8220    4.4880 N.ar  2001  M3C2001    -0.2337
     12  C7        13.1830    4.4970    5.7200 C.ar  2001  M3C2001     0.1063
     13  C8        13.4010    3.1630    6.0040 C.ar  2001  M3C2001     0.0574
     14  S9        14.2010    2.2930    4.7930 S.2   2001  M3C2001    -0.0629
@<TRIPOS>BOND
     1     1     2    1
     2     8     7    1
     3     9     7    1
     4     2     7    1
     5     2     3    1
     6     7    10    1
     7     3     4    1
     8     4     5    1
     9     5     6    1
    10    10    11   ar
    11    10    14   ar
    12    11    12   ar
    13    14    13   ar
    14    12    13   ar
