@<TRIPOS>MOLECULE
1qy1_PRZ_A_1.pdb
 12 12 0 0 0
SMALL
GASTEIGER

@<TRIPOS>ATOM
      1  N1        50.2630   22.9610   42.7300 N.ar  300  PRZ300     -0.2418
      2  C2        50.2500   23.7750   41.6530 C.ar  300  PRZ300      0.1119
      3  C3        51.2160   23.5720   40.6630 C.ar  300  PRZ300      0.2389
      4  N4        52.1170   22.5790   40.8060 N.ar  300  PRZ300     -0.2075
      5  C5        52.1180   21.7900   41.8710 C.ar  300  PRZ300      0.1227
      6  C6        51.1600   21.9900   42.8650 C.ar  300  PRZ300      0.1193
      7  C21       49.1490   24.8530   41.5610 C.3   300  PRZ300      0.0506
      8  C22       48.2800   24.6440   40.3120 C.3   300  PRZ300      0.0061
      9  C23       47.2020   25.7290   40.2570 C.3   300  PRZ300      0.0004
     10  C24       47.6420   23.2490   40.3070 C.3   300  PRZ300      0.0004
     11  O31       51.2340   24.4430   39.6190 O.3   300  PRZ300     -0.4553
     12  C31       52.4030   24.3330   38.8150 C.3   300  PRZ300      0.2543
@<TRIPOS>BOND
     1    12    11    1
     2    11     3    1
     3     9     8    1
     4    10     8    1
     5     8     7    1
     6     3     4   ar
     7     3     2   ar
     8     4     5   ar
     9     7     2    1
    10     2     1   ar
    11     5     6   ar
    12     1     6   ar
