@<TRIPOS>MOLECULE
1qy2_IPZ_A_1.pdb
 11 11 0 0 0
SMALL
GASTEIGER

@<TRIPOS>ATOM
      1  C9        48.4750   25.6490   42.1400 C.3   300  IPZ300      0.0065
      2  C8        48.9590   24.8540   40.9240 C.3   300  IPZ300      0.0450
      3  C10       47.7690   24.2150   40.2100 C.3   300  IPZ300      0.0065
      4  C2        49.9660   23.7680   41.3250 C.ar  300  IPZ300      0.1116
      5  N1        49.8510   23.0680   42.4600 N.ar  300  IPZ300     -0.2419
      6  C6        50.7040   22.1120   42.7950 C.ar  300  IPZ300      0.1193
      7  C5        51.7570   21.8080   41.9370 C.ar  300  IPZ300      0.1227
      8  N4        51.8890   22.4850   40.8060 N.ar  300  IPZ300     -0.2075
      9  C3        51.0280   23.4590   40.4780 C.ar  300  IPZ300      0.2389
     10  O7        51.1460   24.1920   39.3370 O.3   300  IPZ300     -0.4553
     11  C11       52.4100   24.1120   38.6670 C.3   300  IPZ300      0.2543
@<TRIPOS>BOND
     1    11    10    1
     2    10     9    1
     3     3     2    1
     4     9     8   ar
     5     9     4   ar
     6     8     7   ar
     7     2     4    1
     8     2     1    1
     9     4     5   ar
    10     7     6   ar
    11     5     6   ar
