@<TRIPOS>MOLECULE
1qy4_6PG_A_1.pdb
 17 16 0 0 0
SMALL
GASTEIGER

@<TRIPOS>ATOM
      1  C1         4.6540    2.7870   10.3880 C.2   300  6PG300      0.3973
      2  C2         3.9600    1.4700   10.2760 C.3   300  6PG300      0.2865
      3  C3         4.9420    0.2900   10.2650 C.3   300  6PG300      0.2260
      4  C4         5.5630    0.0550   11.6650 C.3   300  6PG300      0.2179
      5  C5         6.4300   -1.2110   11.7560 C.3   300  6PG300      0.2147
      6  C6         7.2290   -1.3110   13.0540 C.3   300  6PG300      0.1892
      7  O1A        4.0760    3.7370   10.9360 O.co2 300  6PG300     -0.2427
      8  O1         5.8820    2.9270    9.9060 O.co2 300  6PG300     -0.2427
      9  O2         3.1910    1.3320   11.4380 O.3   300  6PG300     -0.2080
     10  O3         5.8630    0.5360    9.2110 O.3   300  6PG300     -0.2169
     11  O4         6.3450    1.1630   12.1110 O.3   300  6PG300     -0.2175
     12  O5         5.5960   -2.3320   11.5850 O.3   300  6PG300     -0.2176
     13  O6         6.4070   -1.3440   14.2230 O.3   300  6PG300     -0.2674
     14  P          6.6510   -0.2920   15.2970 P.3   300  6PG300      0.5327
     15  O1P        6.8610    1.0330   14.6370 O.2   300  6PG300     -0.2224
     16  O2P        7.8850   -0.6130   16.0920 O.3   300  6PG300     -0.1145
     17  O3P        5.4970   -0.2460   16.2480 O.3   300  6PG300     -0.1145
@<TRIPOS>BOND
     1    10     3    1
     2     8     1   ar
     3     3     2    1
     4     3     4    1
     5     2     1    1
     6     2     9    1
     7     1     7   ar
     8    12     5    1
     9     4     5    1
    10     4    11    1
    11     5     6    1
    12     6    13    1
    13    13    14    1
    14    15    14    2
    15    14    16    1
    16    14    17    1
