@<TRIPOS>MOLECULE
1qy5_NEC_A_1.pdb
 22 24 0 0 0
SMALL
GASTEIGER

@<TRIPOS>ATOM
      1  C5'       18.3120  -14.5960   53.5470 C.2   338  NEC338      0.2714
      2  O5'       17.1970  -15.1530   54.0070 O.2   338  NEC338     -0.2706
      3  N5'       18.4590  -13.1900   53.5570 N.am  338  NEC338     -0.2033
      4  C51       17.9140  -12.4510   52.4180 C.3   338  NEC338      0.1153
      5  C52       16.6960  -11.7340   52.9010 C.3   338  NEC338      0.0253
      6  C4'       19.4450  -15.4460   53.0990 C.3   338  NEC338      0.2293
      7  O4'       19.9620  -16.1300   54.1960 O.3   338  NEC338     -0.3067
      8  C3'       19.1680  -16.4990   52.0630 C.3   338  NEC338      0.2249
      9  O3'       19.2180  -15.9920   50.7250 O.3   338  NEC338     -0.2170
     10  C2'       20.2000  -17.6100   52.4460 C.3   338  NEC338      0.2574
     11  O2'       21.4730  -17.2920   51.7730 O.3   338  NEC338     -0.2130
     12  C1'       20.2770  -17.5060   54.0400 C.3   338  NEC338      0.3190
     13  N9        19.2790  -18.3900   54.6250 N.pl3 338  NEC338     -0.1438
     14  C8        18.0330  -18.1090   55.1470 C.3   338  NEC338      0.3377
     15  N7        17.4630  -19.1820   55.6220 N.2   338  NEC338     -0.2095
     16  C5        18.3810  -20.2020   55.4220 C.2   338  NEC338      0.2526
     17  C6        18.3820  -21.5730   55.7340 C.2   338  NEC338      0.4393
     18  N6        17.3490  -22.2080   56.3200 N.pl3 338  NEC338      0.2180
     19  N1        19.5000  -22.2910   55.4270 N.2   338  NEC338      0.0021
     20  C2        20.5340  -21.6780   54.8310 C.3   338  NEC338      0.5254
     21  N3        20.6450  -20.3820   54.4500 N.2   338  NEC338     -0.0055
     22  C4        19.5190  -19.7020   54.7930 C.2   338  NEC338      0.3518
@<TRIPOS>BOND
     1     9     8    1
     2    11    10    1
     3     8    10    1
     4     8     6    1
     5     4     5    1
     6     4     3    1
     7    10    12    1
     8     6     1    1
     9     6     7    1
    10     1     3   am
    11     1     2    2
    12    12     7    1
    13    12    13    1
    14    21    22    2
    15    21    20    1
    16    13    22    1
    17    13    14    1
    18    22    16    1
    19    20    19    1
    20    14    15    1
    21    16    15    2
    22    16    17    1
    23    19    17    2
    24    17    18    1
