@<TRIPOS>MOLECULE
1qy8_RDI_A_1.pdb
 25 27 0 0 0
SMALL
GASTEIGER

@<TRIPOS>ATOM
      1  C1        19.3100  -20.9500   54.7330 C.2   338  RDI338      0.3440
      2  C2        18.0650  -20.5320   55.4210 C.ar  338  RDI338      0.1119
      3  C3        17.1420  -21.6030   55.8220 C.ar  338  RDI338      0.2048
      4  C4        15.8860  -21.3240   56.4550 C.ar  338  RDI338      0.0851
      5  C5        15.5320  -19.9750   56.7250 C.ar  338  RDI338      0.2090
      6  C6        16.4390  -18.8920   56.3750 C.ar  338  RDI338      0.0933
      7  C7        17.7040  -19.1440   55.7190 C.ar  338  RDI338      0.0086
      8  C8        18.6370  -17.9510   55.3470 C.3   338  RDI338      0.0966
      9  C9        18.0750  -16.7530   54.5060 C.2   338  RDI338      0.1775
     10  C10       17.1990  -16.9740   53.3340 C.2   338  RDI338      0.0378
     11  C11       17.3270  -18.0010   52.5170 C.2   338  RDI338      0.0027
     12  C12       16.5090  -18.2920   51.3720 C.2   338  RDI338     -0.0020
     13  C13       16.6890  -19.3410   50.5640 C.2   338  RDI338      0.0053
     14  C14       17.6760  -20.5330   50.4640 C.3   338  RDI338      0.1643
     15  C15       19.1280  -20.4890   50.4150 C.3   338  RDI338      0.1504
     16  C16       19.9830  -21.2680   51.4160 C.3   338  RDI338      0.0760
     17  C17       20.5610  -20.6420   52.6560 C.3   338  RDI338      0.1718
     18  C18       21.3620  -19.3610   52.5500 C.3   338  RDI338      0.0474
     19  O1        19.4470  -20.3780   53.5520 O.3   338  RDI338     -0.4491
     20  O2        20.1050  -21.7560   55.1950 O.2   338  RDI338     -0.2448
     21  O3        17.4220  -22.9090   55.6110 O.3   338  RDI338     -0.2862
     22  O4        14.3290  -19.6480   57.3170 O.3   338  RDI338     -0.2856
     23 CL1        15.9610  -17.3020   56.7840 Cl    338  RDI338     -0.0792
     24  O5        18.2940  -15.6360   54.8590 O.2   338  RDI338     -0.2910
     25  O6        18.3500  -21.0180   49.3670 O.3   338  RDI338     -0.3489
@<TRIPOS>BOND
     1    25    15    1
     2    25    14    1
     3    15    14    1
     4    15    16    1
     5    14    13    1
     6    13    12    2
     7    12    11    1
     8    16    17    1
     9    11    10    2
    10    18    17    1
    11    17    19    1
    12    10     9    1
    13    19     1    1
    14     9    24    2
    15     9     8    1
    16     1    20    2
    17     1     2    1
    18     8     7    1
    19     2     7   ar
    20     2     3   ar
    21    21     3    1
    22     7     6   ar
    23     3     4   ar
    24     6     5   ar
    25     6    23    1
    26     4     5   ar
    27     5    22    1
