@<TRIPOS>MOLECULE
1qye_CDY_A_1.pdb
 18 20 0 0 0
SMALL
GASTEIGER

@<TRIPOS>ATOM
      1  O5'       16.3750  -13.8510   54.5640 O.3   338  CDY338     -0.2177
      2  C5'       17.6650  -13.4010   54.1850 C.3   338  CDY338      0.2114
      3  C4'       18.5420  -14.6000   53.8040 C.3   338  CDY338      0.1501
      4  O4'       18.8830  -15.4830   54.9160 O.3   338  CDY338     -0.3373
      5  C3'       17.9300  -15.5100   52.7720 C.3   338  CDY338      0.0367
      6  C2'       18.8250  -16.7090   52.8570 C.3   338  CDY338      0.0536
      7  C1'       19.1810  -16.8070   54.3520 C.3   338  CDY338      0.1954
      8  N9        18.3230  -17.8200   55.0090 N.pl3 338  CDY338     -0.2381
      9  C8        17.1490  -17.6100   55.6330 C.3   338  CDY338      0.2238
     10  N7        16.6770  -18.7830   56.0780 N.2   338  CDY338     -0.2401
     11  C5        17.5450  -19.7260   55.7390 C.2   338  CDY338      0.1706
     12  C4        18.5880  -19.1140   55.0660 C.2   338  CDY338      0.2210
     13  N3        19.6240  -19.8430   54.6100 N.2   338  CDY338     -0.3137
     14  C2        19.6640  -21.1780   54.8020 C.1   338  CDY338      0.2076
     15 CL         21.0650  -22.0960   54.2190 Cl    338  CDY338      0.0245
     16  N1        18.6550  -21.8050   55.4550 N.2   338  CDY338     -0.3106
     17  C6        17.5910  -21.1050   55.9260 C.2   338  CDY338      0.2532
     18  N6        16.5840  -21.7360   56.5340 N.pl3 338  CDY338     -0.0904
@<TRIPOS>BOND
     1     5     6    1
     2     5     3    1
     3     6     7    1
     4     3     2    1
     5     3     4    1
     6     2     1    1
     7    15    14    1
     8     7     4    1
     9     7     8    1
    10    13    14    2
    11    13    12    2
    12    14    16    2
    13     8    12    1
    14     8     9    1
    15    12    11    1
    16    16    17    2
    17     9    10    1
    18    11    17    1
    19    11    10    2
    20    17    18    1
