@<TRIPOS>MOLECULE
1qyg_BCG_H_1.pdb
 21 23 0 0 0
SMALL
GASTEIGER

@<TRIPOS>ATOM
      1  C1        22.4460   -1.2630   26.2590 C.3   401  BCG401      0.0718
      2  C2        23.8230   -1.8700   25.8480 C.3   401  BCG401      0.1578
      3  C3        23.7170   -2.3060   24.3540 C.3   401  BCG401      0.1824
      4  C4        22.5100   -3.0750   23.9880 C.3   401  BCG401      0.0602
      5  C5        21.2020   -2.3290   24.5660 C.3   401  BCG401      0.0612
      6  C6        21.1570   -0.8370   24.1760 C.3   401  BCG401      0.0175
      7  C7        22.0120   -0.0810   25.3480 C.3   401  BCG401      0.0180
      8  C8        26.1290   -2.5320   24.0090 C.2   401  BCG401      0.3411
      9  C9        27.1500   -3.5320   23.5930 C.ar  401  BCG401      0.0756
     10  C10       26.7740   -4.8540   23.1910 C.ar  401  BCG401      0.0064
     11  C11       27.8290   -5.7630   22.7520 C.ar  401  BCG401      0.0002
     12  C12       29.1740   -5.3220   22.7360 C.ar  401  BCG401      0.0000
     13  C13       29.5230   -3.9990   23.1720 C.ar  401  BCG401      0.0002
     14  C14       28.4870   -3.1350   23.5890 C.ar  401  BCG401      0.0064
     15  C15       24.2950   -3.0020   26.7720 C.2   401  BCG401      0.3692
     16  C16       20.1090   -2.0540   26.8750 C.3   401  BCG401      0.0896
     17  N1        21.3640   -2.3560   26.0570 N.3   401  BCG401     -0.2733
     18  O1        24.9230   -3.0250   23.9640 O.3   401  BCG401     -0.4485
     19  O2        26.4190   -1.3840   24.2890 O.2   401  BCG401     -0.2449
     20  O3        25.3480   -3.0990   27.3210 O.co2 401  BCG401     -0.2455
     21  O4        23.3700   -3.9040   26.8580 O.co2 401  BCG401     -0.2455
@<TRIPOS>BOND
     1    12    11   ar
     2    12    13   ar
     3    11    10   ar
     4    13    14   ar
     5    10     9   ar
     6    14     9   ar
     7     9     8    1
     8    18     8    1
     9    18     3    1
    10     4     3    1
    11     4     5    1
    12     8    19    2
    13     6     5    1
    14     6     7    1
    15     3     2    1
    16     5    17    1
    17     7     1    1
    18     2     1    1
    19     2    15    1
    20    17     1    1
    21    17    16    1
    22    15    21   ar
    23    15    20   ar
