@<TRIPOS>MOLECULE
1qyv_NAP_A_1.pdb
 48 52 0 0 0
SMALL
GASTEIGER

@<TRIPOS>ATOM
      1  PA        18.0170   -2.2860   -5.5840 P.3   361  NAP361      0.2189
      2  O1A       16.7910   -2.8050   -6.2000 O.2   361  NAP361     -0.5170
      3  O2A       19.3810   -2.6370   -6.0960 O.3   361  NAP361     -0.4371
      4  O5B       17.8540   -2.5900   -4.0200 O.3   361  NAP361     -0.3112
      5  C5B       16.8830   -3.4200   -3.5290 C.3   361  NAP361      0.1813
      6  C4B       17.5350   -4.4740   -2.6450 C.3   361  NAP361      0.1820
      7  O4B       16.4110   -5.1210   -2.1190 O.3   361  NAP361     -0.3136
      8  C3B       18.3520   -5.5290   -3.4220 C.3   361  NAP361      0.2157
      9  O3B       19.5010   -5.9270   -2.6390 O.3   361  NAP361     -0.2175
     10  C2B       17.3810   -6.6980   -3.4220 C.3   361  NAP361      0.2314
     11  O2B       18.1080   -7.9190   -3.5030 O.3   361  NAP361     -0.2630
     12  C1B       16.6530   -6.5220   -2.0840 C.3   361  NAP361      0.3158
     13  N9A       15.5320   -7.4150   -1.9620 N.pl3 361  NAP361     -0.1439
     14  C8A       14.5730   -7.7780   -2.8700 C.3   361  NAP361      0.3377
     15  N7A       13.7030   -8.7090   -2.3360 N.2   361  NAP361     -0.2095
     16  C5A       14.1690   -8.8970   -1.0790 C.2   361  NAP361      0.2526
     17  C6A       13.6950   -9.7360   -0.0950 C.2   361  NAP361      0.4393
     18  N6A       12.6240  -10.5380   -0.2810 N.pl3 361  NAP361      0.2180
     19  N1A       14.3720   -9.7740    1.1420 N.2   361  NAP361      0.0021
     20  C2A       15.4520   -9.0000    1.3500 C.3   361  NAP361      0.5254
     21  N3A       15.9410   -8.2020    0.3740 N.2   361  NAP361     -0.0055
     22  C4A       15.2980   -8.1090   -0.8550 C.2   361  NAP361      0.3518
     23  O3        17.8110   -0.6960   -5.6480 O.3   361  NAP361     -0.2703
     24  PN        18.3690    0.5280   -4.8500 P.3   361  NAP361      0.2189
     25  O1N       17.8290    1.7580   -5.3740 O.2   361  NAP361     -0.5170
     26  O2N       19.0550    0.5980   -3.5740 O.3   361  NAP361     -0.4371
     27  O5D       17.0650   -0.0340   -4.0490 O.3   361  NAP361     -0.3112
     28  C5D       16.9910   -0.0030   -2.6860 C.3   361  NAP361      0.1813
     29  C4D       15.7820    0.7150   -2.1590 C.3   361  NAP361      0.1799
     30  O4D       15.8300    2.0040   -2.7840 O.3   361  NAP361     -0.3327
     31  C3D       14.3850    0.1250   -2.6230 C.3   361  NAP361      0.2158
     32  O3D       13.4620    0.0340   -1.4980 O.3   361  NAP361     -0.2175
     33  C2D       13.9640    1.1070   -3.7440 C.3   361  NAP361      0.2309
     34  O2D       12.5290    1.1750   -3.9100 O.3   361  NAP361     -0.2158
     35  C1D       14.5290    2.3990   -3.2380 C.3   361  NAP361      0.2263
     36  N1N       14.4780    3.5020   -4.2260 N.pl3 361  NAP361     -0.2787
     37  C2N       15.2580    3.3190   -5.3810 C.3   361  NAP361      0.1244
     38  C3N       15.2670    4.2880   -6.3870 C.2   361  NAP361      0.0544
     39  C7N       16.1320    4.1210   -7.6300 C.2   361  NAP361      0.2818
     40  O7N       15.9670    4.7970   -8.6510 O.2   361  NAP361     -0.2670
     41  N7N       17.0580    3.1520   -7.5000 N.am  361  NAP361     -0.0839
     42  C4N       14.4640    5.4570   -6.2130 C.2   361  NAP361      0.0033
     43  C5N       13.6560    5.6710   -5.0550 C.2   361  NAP361      0.0157
     44  C6N       13.6660    4.6910   -4.0520 C.2   361  NAP361      0.0633
     45  P2B       17.7860   -9.1260   -4.5340 P.3   361  NAP361      0.5328
     46  O1X       17.5050   -8.4830   -5.8970 O.2   361  NAP361     -0.2224
     47  O2X       18.8890  -10.1240   -4.3750 O.3   361  NAP361     -0.1145
     48  O3X       16.4360   -9.6720   -3.9570 O.3   361  NAP361     -0.1145
@<TRIPOS>BOND
     1    40    39    2
     2    39    41   am
     3    39    38    1
     4    38    42    2
     5    38    37    1
     6    42    43    1
     7     2     1    2
     8     3     1    1
     9    46    45    2
    10    23     1    1
    11    23    24    1
    12     1     4    1
    13    37    36    1
    14    25    24    2
    15    43    44    2
    16    24    27    1
    17    24    26    1
    18    45    47    1
    19    45    48    1
    20    45    11    1
    21    36    44    1
    22    36    35    1
    23    27    28    1
    24     4     5    1
    25    34    33    1
    26    33    35    1
    27    33    31    1
    28     5     6    1
    29    11    10    1
    30    10     8    1
    31    10    12    1
    32     8     6    1
    33     8     9    1
    34    35    30    1
    35    14    15    1
    36    14    13    1
    37    30    29    1
    38    28    29    1
    39     6     7    1
    40    31    29    1
    41    31    32    1
    42    15    16    2
    43     7    12    1
    44    12    13    1
    45    13    22    1
    46    16    22    1
    47    16    17    1
    48    22    21    2
    49    18    17    1
    50    17    19    2
    51    21    20    1
    52    19    20    1
