@<TRIPOS>MOLECULE
1qyw_5SD_A_1.pdb
 21 24 0 0 0
SMALL
GASTEIGER

@<TRIPOS>ATOM
      1  C1        12.7190    6.2570  -12.9660 C.3   500  5SD500      0.0078
      2  C2        13.0360    4.9030  -12.3450 C.3   500  5SD500      0.0645
      3  C3        13.5480    5.1830  -10.9220 C.2   500  5SD500      0.1506
      4  O3        14.5380    4.5470  -10.5830 O.2   500  5SD500     -0.2961
      5  C4        12.8410    6.1580  -10.0690 C.3   500  5SD500      0.0645
      6  C5        12.4370    7.4540  -10.8000 C.3   500  5SD500      0.0073
      7  C6        11.5320    8.3350   -9.9070 C.3   500  5SD500      0.0004
      8  C7        11.1020    9.5900  -10.6590 C.3   500  5SD500      0.0000
      9  C8        10.3850    9.2540  -11.9940 C.3   500  5SD500      0.0004
     10  C9        11.3370    8.4230  -12.8630 C.3   500  5SD500      0.0000
     11  C10       11.7290    7.0950  -12.1420 C.3   500  5SD500      0.0008
     12  C11       10.6730    8.1810  -14.2440 C.3   500  5SD500      0.0004
     13  C12       10.2970    9.4500  -15.0070 C.3   500  5SD500      0.0069
     14  C13        9.3830   10.3390  -14.1120 C.3   500  5SD500      0.0515
     15  C14        9.9650   10.5740  -12.7650 C.3   500  5SD500      0.0070
     16  C15        8.9260   11.4920  -12.1020 C.3   500  5SD500      0.0082
     17  C16        8.8980   12.5730  -13.2070 C.3   500  5SD500      0.0645
     18  C17        9.0990   11.7820  -14.5130 C.2   500  5SD500      0.1498
     19  O17        9.0090   12.2570  -15.6270 O.2   500  5SD500     -0.2961
     20  C18        7.9680    9.6030  -14.0230 C.3   500  5SD500      0.0073
     21  C19       10.4250    6.2950  -11.8630 C.3   500  5SD500      0.0000
@<TRIPOS>BOND
     1    19    18    2
     2    13    12    1
     3    13    14    1
     4    18    14    1
     5    18    17    1
     6    12    10    1
     7    14    20    1
     8    14    15    1
     9    17    16    1
    10     1     2    1
    11     1    11    1
    12    10    11    1
    13    10     9    1
    14    15    16    1
    15    15     9    1
    16     2     3    1
    17    11    21    1
    18    11     6    1
    19     9     8    1
    20     3     4    2
    21     3     5    1
    22     6     5    1
    23     6     7    1
    24     8     7    1
