@<TRIPOS>MOLECULE
1qyw_NAP_A_1.pdb
 27 29 0 0 0
SMALL
GASTEIGER

@<TRIPOS>ATOM
      1  PA        17.8660   -2.2360   -5.4050 P.3   361  NAP361      0.5327
      2  O1A       16.5220   -2.4650   -5.9790 O.3   361  NAP361     -0.1145
      3  O2A       19.0170   -2.8850   -6.1010 O.2   361  NAP361     -0.2224
      4  O5B       17.7550   -2.6330   -3.8840 O.3   361  NAP361     -0.2675
      5  C5B       16.8100   -3.5310   -3.4600 C.3   361  NAP361      0.1860
      6  C4B       17.3580   -4.5740   -2.5150 C.3   361  NAP361      0.1822
      7  O4B       16.1760   -5.2120   -2.1040 O.3   361  NAP361     -0.3136
      8  C3B       18.2060   -5.6650   -3.2290 C.3   361  NAP361      0.2157
      9  O3B       19.3520   -5.9470   -2.4090 O.3   361  NAP361     -0.2175
     10  C2B       17.2430   -6.8250   -3.2590 C.3   361  NAP361      0.2314
     11  O2B       17.8540   -8.1150   -3.3400 O.3   361  NAP361     -0.2630
     12  C1B       16.4470   -6.5930   -1.9570 C.3   361  NAP361      0.3158
     13  N9A       15.3450   -7.4950   -1.8730 N.pl3 361  NAP361     -0.1439
     14  C8A       14.3920   -7.8100   -2.8210 C.3   361  NAP361      0.3377
     15  N7A       13.5700   -8.7790   -2.3450 N.2   361  NAP361     -0.2095
     16  C5A       14.0360   -9.0340   -1.1030 C.2   361  NAP361      0.2526
     17  C6A       13.5470   -9.9490   -0.1860 C.2   361  NAP361      0.4393
     18  N6A       12.4900  -10.7100   -0.4190 N.pl3 361  NAP361      0.2180
     19  N1A       14.1960  -10.0520    1.0560 N.2   361  NAP361      0.0021
     20  C2A       15.2700   -9.2820    1.3200 C.3   361  NAP361      0.5254
     21  N3A       15.7790   -8.3980    0.4190 N.2   361  NAP361     -0.0055
     22  C4A       15.1400   -8.2610   -0.8190 C.2   361  NAP361      0.3518
     23  O3        17.9310   -0.6480   -5.5590 O.3   361  NAP361     -0.1145
     24  P2B       17.5400   -9.2060   -4.5260 P.3   361  NAP361      0.5328
     25  O1X       17.3950   -8.3410   -5.7930 O.2   361  NAP361     -0.2224
     26  O2X       18.6940  -10.1560   -4.4950 O.3   361  NAP361     -0.1145
     27  O3X       16.1870   -9.8260   -4.1520 O.3   361  NAP361     -0.1145
@<TRIPOS>BOND
     1     3     1    2
     2     2     1    1
     3    25    24    2
     4    23     1    1
     5     1     4    1
     6    24    26    1
     7    24    27    1
     8    24    11    1
     9     4     5    1
    10     5     6    1
    11    11    10    1
    12    10     8    1
    13    10    12    1
    14     8     6    1
    15     8     9    1
    16    14    15    1
    17    14    13    1
    18     6     7    1
    19    15    16    2
    20     7    12    1
    21    12    13    1
    22    13    22    1
    23    16    22    1
    24    16    17    1
    25    22    21    2
    26    18    17    1
    27    17    19    2
    28    21    20    1
    29    19    20    1
