@<TRIPOS>MOLECULE
1qyx_ASD_A_1.pdb
 21 24 0 0 0
SMALL
GASTEIGER

@<TRIPOS>ATOM
      1  C1        12.6820    6.6370  -13.3280 C.3   500  ASD500      0.0118
      2  C10       11.6230    7.1250  -12.3090 C.3   500  ASD500      0.0157
      3  C11       10.7000    8.2540  -14.3120 C.3   500  ASD500      0.0007
      4  C12       10.0980    9.4980  -14.8940 C.3   500  ASD500      0.0069
      5  C13        9.2190   10.4120  -13.9310 C.3   500  ASD500      0.0515
      6  C14        9.9690   10.5700  -12.6380 C.3   500  ASD500      0.0070
      7  C15        9.0770   11.4870  -11.7710 C.3   500  ASD500      0.0082
      8  C16        8.9100   12.6080  -12.8390 C.3   500  ASD500      0.0645
      9  C17        8.9680   11.8890  -14.2240 C.2   500  ASD500      0.1498
     10  C18        7.7930    9.8230  -14.0300 C.3   500  ASD500      0.0073
     11  C19       10.4030    6.1690  -12.2020 C.3   500  ASD500      0.0041
     12  C2        13.4720    5.4360  -12.8760 C.3   500  ASD500      0.0694
     13  C3        13.9540    5.5870  -11.4550 C.2   500  ASD500      0.1725
     14  C4        13.3040    6.4950  -10.5100 C.2   500  ASD500      0.0289
     15  C5        12.2060    7.2280  -10.8950 C.2   500  ASD500     -0.0420
     16  C6        11.5190    8.1860   -9.9570 C.3   500  ASD500      0.0221
     17  C7        11.2860    9.5660  -10.6440 C.3   500  ASD500      0.0044
     18  C8        10.4020    9.3080  -11.9280 C.3   500  ASD500      0.0010
     19  C9        11.2420    8.5130  -12.8800 C.3   500  ASD500      0.0035
     20  O1        14.9130    4.9130  -11.1460 O.2   500  ASD500     -0.2914
     21  O2         8.8090   12.5650  -15.2250 O.2   500  ASD500     -0.2961
@<TRIPOS>BOND
     1    21     9    2
     2     4     3    1
     3     4     5    1
     4     3    19    1
     5     9     5    1
     6     9     8    1
     7    10     5    1
     8     5     6    1
     9     1    12    1
    10     1     2    1
    11    19     2    1
    12    19    18    1
    13    12    13    1
    14     8     7    1
    15     6    18    1
    16     6     7    1
    17     2    11    1
    18     2    15    1
    19    18    17    1
    20    13    20    2
    21    13    14    1
    22    15    14    2
    23    15    16    1
    24    17    16    1
