@<TRIPOS>MOLECULE
1qyx_NAP_A_1.pdb
 27 29 0 0 0
SMALL
GASTEIGER

@<TRIPOS>ATOM
      1  PA        18.0870   -2.1530   -5.4870 P.3   361  NAP361      0.5327
      2  O1A       17.0860   -2.8470   -6.3290 O.2   361  NAP361     -0.2224
      3  O2A       19.5250   -2.2580   -5.8780 O.3   361  NAP361     -0.1145
      4  O5B       17.7210   -2.5160   -3.9990 O.3   361  NAP361     -0.2675
      5  C5B       16.7800   -3.3920   -3.5460 C.3   361  NAP361      0.1860
      6  C4B       17.3580   -4.4140   -2.5820 C.3   361  NAP361      0.1822
      7  O4B       16.2460   -5.0890   -2.0570 O.3   361  NAP361     -0.3136
      8  C3B       18.2170   -5.4930   -3.2890 C.3   361  NAP361      0.2157
      9  O3B       19.3370   -5.7670   -2.4380 O.3   361  NAP361     -0.2175
     10  C2B       17.2750   -6.6770   -3.3010 C.3   361  NAP361      0.2314
     11  O2B       17.9630   -7.9290   -3.3820 O.3   361  NAP361     -0.2630
     12  C1B       16.4930   -6.4880   -1.9830 C.3   361  NAP361      0.3158
     13  N9A       15.4120   -7.4310   -1.8640 N.pl3 361  NAP361     -0.1439
     14  C8A       14.4470   -7.8360   -2.7600 C.3   361  NAP361      0.3377
     15  N7A       13.6260   -8.8120   -2.2220 N.2   361  NAP361     -0.2095
     16  C5A       14.1440   -9.0000   -0.9760 C.2   361  NAP361      0.2526
     17  C6A       13.7430   -9.9110   -0.0060 C.2   361  NAP361      0.4393
     18  N6A       12.7030  -10.7430   -0.2050 N.pl3 361  NAP361      0.2180
     19  N1A       14.4110   -9.9730    1.2540 N.2   361  NAP361      0.0021
     20  C2A       15.4530   -9.1310    1.4100 C.3   361  NAP361      0.5254
     21  N3A       15.8990   -8.2810    0.4450 N.2   361  NAP361     -0.0055
     22  C4A       15.2410   -8.1780   -0.7820 C.2   361  NAP361      0.3518
     23  O3        17.5330   -0.6450   -5.6620 O.3   361  NAP361     -0.1145
     24  P2B       18.0940   -8.8470   -4.7330 P.3   361  NAP361      0.5328
     25  O1X       18.4120   -7.8280   -5.8450 O.2   361  NAP361     -0.2224
     26  O2X       19.1560   -9.8510   -4.4230 O.3   361  NAP361     -0.1145
     27  O3X       16.6950   -9.4400   -4.9480 O.3   361  NAP361     -0.1145
@<TRIPOS>BOND
     1     2     1    2
     2     3     1    1
     3    25    24    2
     4    23     1    1
     5     1     4    1
     6    27    24    1
     7    24    26    1
     8    24    11    1
     9     4     5    1
    10     5     6    1
    11    11    10    1
    12    10     8    1
    13    10    12    1
    14     8     6    1
    15     8     9    1
    16    14    15    1
    17    14    13    1
    18     6     7    1
    19    15    16    2
    20     7    12    1
    21    12    13    1
    22    13    22    1
    23    16    22    1
    24    16    17    1
    25    22    21    2
    26    18    17    1
    27    17    19    2
    28    21    20    1
    29    19    20    1
