@<TRIPOS>MOLECULE
1qyz_HCO_A_1.pdb
 44 51 0 0 0
SMALL
GASTEIGER

@<TRIPOS>ATOM
      1 FE         24.9670   24.5540   27.8240 Fe    200  HCO200      0.0000
      2  CHA       21.5690   24.6930   27.4460 C.2   200  HCO200      0.0000
      3  CHB       25.2180   22.7270   24.9710 C.2   200  HCO200      0.0000
      4  CHC       28.3240   24.8840   27.9900 C.2   200  HCO200      0.0000
      5  CHD       24.6430   25.9310   30.9230 C.2   200  HCO200      0.0000
      6  NA        23.6650   23.8290   26.5030 N.ar  200  HCO200      0.0000
      7  NB        26.5100   23.8850   26.7330 N.2   200  HCO200      0.0000
      8  NC        26.2280   25.3630   29.1710 N.ar  200  HCO200      0.0000
      9  ND        23.3980   25.1850   28.9830 N.2   200  HCO200      0.0000
     10  C1A       22.2510   24.0220   26.4580 C.ar  200  HCO200      0.0000
     11  C2A       21.7430   23.4550   25.3140 C.ar  200  HCO200      0.0000
     12  C3A       22.7450   22.7820   24.6450 C.ar  200  HCO200      0.0000
     13  C4A       23.9060   23.1190   25.3490 C.ar  200  HCO200      0.0000
     14  CMA       22.6800   22.1170   23.2950 C.3   200  HCO200      0.0000
     15  CAA       20.2330   23.4330   24.8480 C.3   200  HCO200      0.0000
     16  CBA       19.3850   22.3930   25.5750 C.3   200  HCO200      0.0000
     17  CGA       17.8890   22.6170   25.2810 C.2   200  HCO200      0.0000
     18  O1A       17.1040   21.8140   25.7470 O.co2 200  HCO200      0.0000
     19  O2A       17.4780   23.6460   24.6850 O.co2 200  HCO200      0.0000
     20  C1B       26.4340   23.1520   25.5750 C.2   200  HCO200      0.0000
     21  C2B       27.7640   22.8530   25.0980 C.2   200  HCO200      0.0000
     22  C3B       28.6030   23.5890   25.8660 C.2   200  HCO200      0.0000
     23  C4B       27.8530   24.1410   26.8960 C.2   200  HCO200      0.0000
     24  CMB       28.0340   21.8900   23.8820 C.3   200  HCO200      0.0000
     25  CAB       30.1200   23.5530   25.7700 C.3   200  HCO200      0.0000
     26  CBB       30.7990   22.1920   26.1430 C.3   200  HCO200      0.0000
     27  OAB       30.5240   24.9820   25.8080 O.3   200  HCO200      0.0000
     28  C1C       27.6230   25.3650   29.0850 C.ar  200  HCO200      0.0000
     29  C2C       28.1540   25.9130   30.3110 C.ar  200  HCO200      0.0000
     30  C3C       27.1860   26.0090   31.1780 C.ar  200  HCO200      0.0000
     31  C4C       25.9970   25.7580   30.4970 C.ar  200  HCO200      0.0000
     32  CMC       29.6740   26.0930   30.4340 C.3   200  HCO200      0.0000
     33  CAC       27.1900   26.4290   32.6430 C.3   200  HCO200      0.0000
     34  CBC       27.8280   27.8440   32.8810 C.3   200  HCO200      0.0000
     35  C1D       23.4620   25.7020   30.2680 C.2   200  HCO200      0.0000
     36  C2D       22.1540   26.0220   30.7870 C.2   200  HCO200      0.0000
     37  C3D       21.3000   25.8000   29.7080 C.2   200  HCO200      0.0000
     38  C4D       22.0750   25.2570   28.6640 C.2   200  HCO200      0.0000
     39  CMD       21.9160   26.6830   32.1410 C.3   200  HCO200      0.0000
     40  CAD       19.7800   26.0360   29.7110 C.3   200  HCO200      0.0000
     41  CBD       19.4820   27.5730   29.6660 C.3   200  HCO200      0.0000
     42  CGD       18.1760   27.9810   30.2520 C.2   200  HCO200      0.0000
     43  O1D       17.4010   28.6830   29.4140 O.co2 200  HCO200      0.0000
     44  O2D       17.6900   27.3080   31.1660 O.co2 200  HCO200      0.0000
@<TRIPOS>BOND
     1    14    12    1
     2    24    21    1
     3    12    11   ar
     4    12    13   ar
     5    19    17   ar
     6    15    11    1
     7    15    16    1
     8     3    13    2
     9     3    20    1
    10    21    20    1
    11    21    22    2
    12    17    16    1
    13    17    18   ar
    14    11    10   ar
    15    13     6   ar
    16    20     7    2
    17    25    27    1
    18    25    22    1
    19    25    26    1
    20    22    23    1
    21    10     6   ar
    22    10     2    2
    23     6     1    1
    24     7    23    1
    25     7     1    1
    26    23     4    2
    27     2    38    1
    28     1     9    1
    29     1     8    1
    30     4    28    1
    31    38     9    2
    32    38    37    1
    33     9    35    1
    34    28     8   ar
    35    28    29   ar
    36     8    31   ar
    37    43    42   ar
    38    41    40    1
    39    41    42    1
    40    37    40    1
    41    37    36    2
    42    42    44   ar
    43    35    36    1
    44    35     5    2
    45    29    32    1
    46    29    30   ar
    47    31     5    1
    48    31    30   ar
    49    36    39    1
    50    30    33    1
    51    33    34    1
