@<TRIPOS>MOLECULE
1qz0_III_C_1.pdb
 44 44 0 0 0
SMALL
GASTEIGER

@<TRIPOS>ATOM
      1  N         15.4340   -3.1800   39.1360 N.3   503  ASP503     -0.1225
      2  CA        15.3610   -4.6330   39.4620 C.3   503  ASP503      0.1805
      3  C         14.8050   -4.8440   40.8700 C.2   503  ASP503      0.2598
      4  O         13.7200   -5.4000   41.0380 O.2   503  ASP503     -0.2718
      5  CB        16.7520   -5.2610   39.3480 C.3   503  ASP503      0.1424
      6  CG        16.7450   -6.7530   39.6250 C.2   503  ASP503      0.3668
      7  OD1       15.9450   -7.4730   38.9910 O.co2 503  ASP503     -0.2456
      8  OD2       17.5440   -7.2070   40.4710 O.co2 503  ASP503     -0.2456
      9  N         15.5520   -4.3990   41.8760 N.am  504  GLU504     -0.1965
     10  CA        15.1320   -4.5370   43.2680 C.3   504  GLU504      0.1733
     11  C         14.9330   -3.1680   43.9080 C.2   504  GLU504      0.2616
     12  O         15.6610   -2.2240   43.6070 O.2   504  GLU504     -0.2715
     13  CB        16.1710   -5.3400   44.0610 C.3   504  GLU504      0.0429
     14  CG        16.2400   -6.8110   43.6700 C.3   504  GLU504      0.1163
     15  CD        17.2570   -7.5930   44.4800 C.2   504  GLU504      0.3649
     16  OE1       17.3480   -8.8250   44.2850 O.co2 504  GLU504     -0.2457
     17  OE2       17.9700   -6.9790   45.3050 O.co2 504  GLU504     -0.2457
     18  N         13.9440   -3.0630   44.7900 N.am  505  TYR505     -0.1960
     19  CA        13.6460   -1.7970   45.4530 C.3   505  TYR505      0.1771
     20  C         14.2910   -1.7350   46.8360 C.2   505  TYR505      0.2619
     21  O         14.1810   -0.7310   47.5390 O.2   505  TYR505     -0.2715
     22  CB        12.1220   -1.6880   45.5960 C.3   505  TYR505      0.0574
     23  CG        11.5820   -0.4830   46.3450 C.ar  505  TYR505     -0.0200
     24  CD1       11.0630   -0.6160   47.6340 C.ar  505  TYR505     -0.0043
     25  CD2       11.5750    0.7800   45.7640 C.ar  505  TYR505     -0.0043
     26  CE1       10.5480    0.4820   48.3280 C.ar  505  TYR505      0.0011
     27  CE2       11.0630    1.8890   46.4460 C.ar  505  TYR505      0.0011
     28  CZ        10.5470    1.7410   47.7300 C.ar  505  TYR505      0.0444
     29  C1        10.0190    2.8520   48.4000 C.3   505  TYR505      0.3249
     30  F1        10.8290    3.9340   48.1040 F     505  TYR505     -0.1920
     31  F2        10.0100    2.5530   49.7530 F     505  TYR505     -0.1920
     32  P          8.1870    3.5400   48.0760 P.3   505  TYR505      0.1831
     33  O1P        8.1230    4.0150   46.6680 O.2   505  TYR505     -0.4543
     34  O2P        7.9180    4.6720   48.9920 O.3   505  TYR505     -0.3533
     35  O3P        7.1750    2.4540   48.2470 O.3   505  TYR505     -0.3533
     36  N         14.9160   -2.8330   47.2470 N.am  506  LEU506     -0.1963
     37  CA        15.5490   -2.8960   48.5590 C.3   506  LEU506      0.1744
     38  C         17.0150   -3.3010   48.4640 C.2   506  LEU506      0.2806
     39  O         17.5120   -3.6360   47.3880 O.2   506  LEU506     -0.2698
     40  CB        14.8020   -3.8950   49.4450 C.3   506  LEU506      0.0312
     41  CG        13.2860   -3.7090   49.5510 C.3   506  LEU506      0.0022
     42  CD1       12.6830   -4.8970   50.2810 C.3   506  LEU506      0.0001
     43  CD2       12.9660   -2.4110   50.2740 C.3   506  LEU506      0.0001
     44  N         17.7150   -3.2870   49.5930 N.am  507  NH2507     -0.0863
@<TRIPOS>BOND
     1     7     6   ar
     2     1     2    1
     3     5     2    1
     4     5     6    1
     5     2     3    1
     6     6     8   ar
     7     3     4    2
     8     3     9   am
     9     9    10    1
    10    10    11    1
    11    10    13    1
    12    12    11    2
    13    14    13    1
    14    14    15    1
    15    11    18   am
    16    16    15   ar
    17    15    17   ar
    18    18    19    1
    19    19    22    1
    20    19    20    1
    21    22    23    1
    22    25    23   ar
    23    25    27   ar
    24    23    24   ar
    25    27    28   ar
    26    33    32    2
    27    20    36   am
    28    20    21    2
    29    36    37    1
    30    39    38    2
    31    24    26   ar
    32    28    26   ar
    33    28    29    1
    34    32    35    1
    35    32    29    1
    36    32    34    1
    37    30    29    1
    38    29    31    1
    39    38    37    1
    40    38    44   am
    41    37    40    1
    42    40    41    1
    43    41    43    1
    44    41    42    1
