@<TRIPOS>MOLECULE
1qz2_III_G_1.pdb
 42 41 0 0 0
SMALL
GASTEIGER

@<TRIPOS>ATOM
      1  N         22.4090   26.8120   51.5700 N.3     1  MET1       -0.1230
      2  CA        20.9860   26.3660   51.4950 C.3     1  MET1        0.1702
      3  C         20.1250   27.2290   52.4030 C.2     1  MET1        0.2592
      4  O         20.6450   27.9530   53.2550 O.2     1  MET1       -0.2718
      5  CB        20.8520   24.8990   51.9300 C.3     1  MET1        0.0401
      6  CG        19.4300   24.3360   51.8050 C.3     1  MET1        0.0596
      7  SD        19.1780   22.6880   52.5400 S.3     1  MET1       -0.1393
      8  CE        18.0160   23.0700   53.8980 C.3     1  MET1        0.0692
      9  N         18.8100   27.1480   52.2170 N.am    2  GLU2       -0.1966
     10  CA        17.8690   27.9070   53.0330 C.3     2  GLU2        0.1733
     11  C         17.3120   26.9710   54.1160 C.2     2  GLU2        0.2616
     12  O         16.6800   25.9560   53.8070 O.2     2  GLU2       -0.2715
     13  CB        16.7420   28.4550   52.1480 C.3     2  GLU2        0.0429
     14  CG        16.4060   29.9240   52.4000 C.3     2  GLU2        0.1163
     15  CD        15.0260   30.1240   53.0160 C.2     2  GLU2        0.3649
     16  OE1       14.7790   29.5960   54.1250 O.co2   2  GLU2       -0.2457
     17  OE2       14.1880   30.8130   52.3880 O.co2   2  GLU2       -0.2457
     18  N         17.5590   27.3100   55.3820 N.am    3  GLU3       -0.1963
     19  CA        17.1100   26.4860   56.5120 C.3     3  GLU3        0.1733
     20  C         16.4220   27.3180   57.6070 C.2     3  GLU3        0.2616
     21  O         15.4090   27.9820   57.3640 O.2     3  GLU3       -0.2715
     22  CB        18.3120   25.7530   57.1300 C.3     3  GLU3        0.0429
     23  CG        19.3100   25.1890   56.1230 C.3     3  GLU3        0.1163
     24  CD        20.7330   25.6840   56.3620 C.2     3  GLU3        0.3649
     25  OE1       20.9390   26.5140   57.2780 O.co2   3  GLU3       -0.2457
     26  OE2       21.6480   25.2440   55.6280 O.co2   3  GLU3       -0.2457
     27  N         16.9920   27.2510   58.8130 N.am    4  VAL4       -0.1963
     28  CA        16.5240   27.9680   60.0060 C.3     4  VAL4        0.1727
     29  C         15.2990   27.3680   60.7180 C.2     4  VAL4        0.2617
     30  O         15.4180   26.8550   61.8370 O.2     4  VAL4       -0.2715
     31  CB        16.2390   29.4730   59.6980 C.3     4  VAL4        0.0290
     32  CG1       15.8960   30.2190   60.9930 C.3     4  VAL4        0.0023
     33  CG2       17.4590   30.1120   59.0250 C.3     4  VAL4        0.0023
     34  N         14.1370   27.4290   60.0690 N.am    5  ASP5       -0.1936
     35  CA        12.8800   26.9250   60.6380 C.3     5  ASP5        0.2090
     36  C         12.7030   25.4030   60.4950 C.2     5  ASP5        0.3848
     37  O         12.6030   24.7150   61.5380 O.co2   5  ASP5       -0.2437
     38  CB        11.7040   27.6480   59.9670 C.3     5  ASP5        0.1472
     39  CG        10.4930   27.7890   60.8800 C.2     5  ASP5        0.3672
     40  OD1        9.9380   26.7560   61.3170 O.co2   5  ASP5       -0.2456
     41  OD2       10.0910   28.9430   61.1570 O.co2   5  ASP5       -0.2456
     42  OXT       12.6580   24.9150   59.3430 O.co2   5  ASP5       -0.2437
@<TRIPOS>BOND
     1     2     1    1
     2     2     5    1
     3     2     3    1
     4     6     5    1
     5     6     7    1
     6    13    14    1
     7    13    10    1
     8     9     3   am
     9     9    10    1
    10    17    15   ar
    11    14    15    1
    12     3     4    2
    13     7     8    1
    14    15    16   ar
    15    10    11    1
    16    12    11    2
    17    11    18   am
    18    18    19    1
    19    26    24   ar
    20    23    24    1
    21    23    22    1
    22    24    25   ar
    23    19    22    1
    24    19    20    1
    25    21    20    2
    26    20    27   am
    27    27    28    1
    28    33    31    1
    29    42    36   ar
    30    31    28    1
    31    31    32    1
    32    38    35    1
    33    38    39    1
    34    28    29    1
    35    34    35    1
    36    34    29   am
    37    36    35    1
    38    36    37   ar
    39    29    30    2
    40    39    41   ar
    41    39    40   ar
