@<TRIPOS>MOLECULE
1qz3_HDS_A_1.pdb
 19 18 0 0 0
SMALL
GASTEIGER

@<TRIPOS>ATOM
      1  C1        74.9720   58.4970   33.9640 C.3   400  HDS400      0.1479
      2  C2        75.9290   59.4140   34.6450 C.3   400  HDS400      0.0250
      3  C3        77.2860   59.3330   34.0270 C.3   400  HDS400      0.0018
      4  C4        78.3110   59.3900   35.0710 C.3   400  HDS400      0.0001
      5  C5        79.6250   59.4040   34.4350 C.3   400  HDS400      0.0000
      6  C6        80.7180   59.4450   35.4400 C.3   400  HDS400      0.0000
      7  C7        81.9030   59.5450   34.5990 C.3   400  HDS400      0.0000
      8  C8        83.2580   59.6330   35.2090 C.3   400  HDS400      0.0000
      9  C9        83.9230   59.8040   33.9120 C.3   400  HDS400      0.0000
     10  C10       85.3660   59.9960   33.7570 C.3   400  HDS400      0.0000
     11  C11       85.3940   60.1510   32.2760 C.3   400  HDS400      0.0000
     12  C12       86.7040   60.4070   31.6330 C.3   400  HDS400      0.0000
     13  C13       86.4420   60.5350   30.1430 C.3   400  HDS400      0.0000
     14  C14       87.6990   60.8190   29.3590 C.3   400  HDS400      0.0000
     15  C15       88.6340   59.6340   29.3380 C.3   400  HDS400      0.0000
     16  C16       89.3190   59.6450   27.9890 C.3   400  HDS400      0.0000
     17  S1        73.3150   58.6550   34.6510 S.3   400  HDS400     -0.0184
     18  O1S       73.0960   57.5560   35.5250 O.3   400  HDS400     -0.0782
     19  O2S       73.1570   59.9670   35.2060 O.3   400  HDS400     -0.0782
@<TRIPOS>BOND
     1    16    15    1
     2    15    14    1
     3    14    13    1
     4    13    12    1
     5    12    11    1
     6    11    10    1
     7    10     9    1
     8     9     8    1
     9     1     2    1
    10     1    17    1
    11     3     2    1
    12     3     4    1
    13     5     4    1
    14     5     6    1
    15     7     8    1
    16     7     6    1
    17    17    19    1
    18    17    18    1
