@<TRIPOS>MOLECULE
1qz5_ATP_A_1.pdb
 31 33 0 0 0
SMALL
GASTEIGER

@<TRIPOS>ATOM
      1  PG        32.8720   69.1570   31.3200 P.3   380  ATP380      0.5373
      2  O1G       33.3770   69.9840   30.1930 O.2   380  ATP380     -0.2221
      3  O2G       31.7590   69.7830   32.1060 O.3   380  ATP380     -0.1143
      4  O3G       32.6410   67.7070   30.9300 O.3   380  ATP380     -0.1143
      5  PB        35.3220   68.1690   32.6780 P.3   380  ATP380      0.2277
      6  O1B       36.5050   68.9750   33.0300 O.3   380  ATP380     -0.4368
      7  O2B       35.4650   67.1190   31.6000 O.2   380  ATP380     -0.5168
      8  O3B       34.1010   69.1590   32.3910 O.3   380  ATP380     -0.2258
      9  PA        35.1830   66.0720   34.7010 P.3   380  ATP380      0.2189
     10  O1A       34.2930   65.0270   34.2530 O.2   380  ATP380     -0.5170
     11  O2A       36.6520   65.8710   34.5040 O.3   380  ATP380     -0.4371
     12  O3A       34.7810   67.4640   34.0190 O.3   380  ATP380     -0.2700
     13  O5'       34.7600   66.3820   36.2090 O.3   380  ATP380     -0.3112
     14  C5'       35.3490   67.4310   37.0030 C.3   380  ATP380      0.1813
     15  C4'       34.2940   67.9280   37.9780 C.3   380  ATP380      0.1821
     16  O4'       33.9180   66.8140   38.7610 O.3   380  ATP380     -0.3135
     17  C3'       34.7510   69.0590   38.9050 C.3   380  ATP380      0.2184
     18  O3'       33.7120   70.0350   39.0420 O.3   380  ATP380     -0.2174
     19  C2'       34.9710   68.3180   40.1880 C.3   380  ATP380      0.2570
     20  O2'       34.8650   69.1070   41.3710 O.3   380  ATP380     -0.2130
     21  C1'       33.8640   67.2810   40.0970 C.3   380  ATP380      0.3186
     22  N9        34.1220   66.1440   40.9750 N.pl3 380  ATP380     -0.1439
     23  C8        35.2390   65.3510   40.9270 C.3   380  ATP380      0.3377
     24  N7        35.1290   64.4220   41.9080 N.2   380  ATP380     -0.2095
     25  C5        33.9720   64.6170   42.5870 C.2   380  ATP380      0.2526
     26  C6        33.3560   63.9740   43.6640 C.2   380  ATP380      0.4393
     27  N6        33.8860   62.9210   44.3020 N.pl3 380  ATP380      0.2180
     28  N1        32.1470   64.4430   44.0790 N.2   380  ATP380      0.0021
     29  C2        31.5540   65.5130   43.4680 C.3   380  ATP380      0.5254
     30  N3        32.1380   66.1410   42.4060 N.2   380  ATP380     -0.0055
     31  C4        33.3310   65.6760   41.9730 C.2   380  ATP380      0.3518
@<TRIPOS>BOND
     1     2     1    2
     2     4     1    1
     3     1     3    1
     4     1     8    1
     5     7     5    2
     6     8     5    1
     7     5     6    1
     8     5    12    1
     9    12     9    1
    10    10     9    2
    11    11     9    1
    12     9    13    1
    13    13    14    1
    14    14    15    1
    15    15    16    1
    16    15    17    1
    17    16    21    1
    18    17    18    1
    19    17    19    1
    20    21    19    1
    21    21    22    1
    22    19    20    1
    23    23    22    1
    24    23    24    1
    25    22    31    1
    26    24    25    2
    27    31    30    2
    28    31    25    1
    29    30    29    1
    30    25    26    1
    31    29    28    1
    32    26    28    2
    33    26    27    1
