@<TRIPOS>MOLECULE
1qz6_ATP_A_1.pdb
 31 33 0 0 0
SMALL
GASTEIGER

@<TRIPOS>ATOM
      1  PG        13.6800   -0.5750   18.2670 P.3   400  ATP400      0.5373
      2  O1G       14.5050    0.5570   17.7460 O.2   400  ATP400     -0.2221
      3  O2G       14.3130   -1.3400   19.4090 O.3   400  ATP400     -0.1143
      4  O3G       12.2130   -0.2090   18.4450 O.3   400  ATP400     -0.1143
      5  PB        12.7440   -1.9450   15.7890 P.3   400  ATP400      0.2277
      6  O1B       13.5890   -2.2760   14.6600 O.2   400  ATP400     -0.5168
      7  O2B       11.6840   -0.8480   15.6810 O.3   400  ATP400     -0.4368
      8  O3B       13.7610   -1.6500   17.0310 O.3   400  ATP400     -0.2258
      9  PA        10.6670   -3.9940   15.8810 P.3   400  ATP400      0.2189
     10  O1A        9.6030   -3.5410   16.7720 O.3   400  ATP400     -0.4371
     11  O2A       10.4990   -3.8000   14.4040 O.2   400  ATP400     -0.5170
     12  O3A       12.0370   -3.2610   16.3680 O.3   400  ATP400     -0.2700
     13  O5'       11.0640   -5.4870   16.3020 O.3   400  ATP400     -0.3112
     14  C5'       12.0770   -6.2500   15.6940 C.3   400  ATP400      0.1813
     15  C4'       12.5540   -7.2120   16.7540 C.3   400  ATP400      0.1821
     16  O4'       11.4600   -8.0610   17.1130 O.3   400  ATP400     -0.3135
     17  C3'       13.6730   -8.1480   16.2990 C.3   400  ATP400      0.2184
     18  O3'       14.5930   -8.3150   17.3500 O.3   400  ATP400     -0.2174
     19  C2'       12.9580   -9.4580   16.0710 C.3   400  ATP400      0.2570
     20  O2'       13.7790  -10.6060   16.1900 O.3   400  ATP400     -0.2130
     21  C1'       11.8850   -9.4140   17.1180 C.3   400  ATP400      0.3186
     22  N9        10.7640  -10.3010   16.7780 N.pl3 400  ATP400     -0.1439
     23  C8         9.9750  -10.2150   15.6860 C.3   400  ATP400      0.3377
     24  N7         9.0350  -11.2050   15.7410 N.2   400  ATP400     -0.2095
     25  C5         9.2600  -11.8930   16.8690 C.2   400  ATP400      0.2526
     26  C6         8.6500  -13.0040   17.4450 C.2   400  ATP400      0.4393
     27  N6         7.6560  -13.6840   16.8690 N.pl3 400  ATP400      0.2180
     28  N1         9.1420  -13.4360   18.6300 N.2   400  ATP400      0.0021
     29  C2        10.1930  -12.8410   19.2620 C.3   400  ATP400      0.5254
     30  N3        10.8100  -11.7400   18.7310 N.2   400  ATP400     -0.0055
     31  C4        10.3470  -11.3070   17.5590 C.2   400  ATP400      0.3518
@<TRIPOS>BOND
     1    11     9    2
     2     6     5    2
     3     7     5    1
     4    23    24    1
     5    23    22    1
     6    14    13    1
     7    14    15    1
     8    24    25    2
     9     5    12    1
    10     5     8    1
    11     9    13    1
    12     9    12    1
    13     9    10    1
    14    19    20    1
    15    19    17    1
    16    19    21    1
    17    17    15    1
    18    17    18    1
    19    15    16    1
    20    22    21    1
    21    22    31    1
    22    25    26    1
    23    25    31    1
    24    27    26    1
    25     8     1    1
    26    16    21    1
    27    26    28    2
    28    31    30    2
    29     2     1    2
    30     1     4    1
    31     1     3    1
    32    28    29    1
    33    30    29    1
