@<TRIPOS>MOLECULE
1qz9_PLP_A_1.pdb
 20 20 0 0 0
SMALL
GASTEIGER

@<TRIPOS>ATOM
      1  N1        23.2000   49.2980   35.7740 N.2   1227  PLP1227    -0.4161
      2  C2        22.6150   48.3240   35.0710 C.2   1227  PLP1227     0.1341
      3  C2A       23.3900   47.1140   34.6080 C.3   1227  PLP1227    -0.0073
      4  C3        21.1890   48.4380   34.7060 C.2   1227  PLP1227     0.2121
      5  O3        20.5770   47.4340   34.0610 O.2   1227  PLP1227    -0.2849
      6  C4        20.4280   49.6020   35.1920 C.2   1227  PLP1227     0.0008
      7  C4A       18.9650   49.6930   34.9910 C.3   1227  PLP1227    -0.0004
      8  C5        21.1770   50.6030   35.9710 C.3   1227  PLP1227     0.0954
      9  C6        22.5440   50.4030   36.2200 C.2   1227  PLP1227     0.0703
     10  C5A       20.4510   51.8460   36.4710 C.3   1227  PLP1227     0.1642
     11  O4P       21.3550   52.6870   37.1710 O.3   1227  PLP1227    -0.2695
     12  P         20.7370   53.8860   38.0470 P.3   1227  PLP1227     0.5326
     13  O1P       21.9360   54.4240   38.7770 O.3   1227  PLP1227    -0.1145
     14  O2P       20.1130   54.7370   36.9800 O.2   1227  PLP1227    -0.2224
     15  O3P       19.6750   53.2220   38.9020 O.3   1227  PLP1227    -0.1145
     16 H2A1       23.0740   46.8340   33.6380 H     1227  PLP1227     0.0304
     17 H2A2       23.2150   46.3110   35.2750 H     1227  PLP1227     0.0304
     18 H2A3       24.4250   47.3390   34.5950 H     1227  PLP1227     0.0304
     19  H4A       18.4310   50.5180   35.4260 H     1227  PLP1227     0.0359
     20  H6        23.1060   51.1480   36.7640 H     1227  PLP1227     0.0932
@<TRIPOS>BOND
     1    16     3    1
     2     5     4    1
     3    18     3    1
     4     3     2    1
     5     3    17    1
     6     4     2    1
     7     4     6    2
     8     7     6    1
     9     7    19    1
    10     2     1    2
    11     6     8    1
    12     1     9    2
    13     8     9    1
    14     8    10    1
    15     9    20    1
    16    10    11    1
    17    14    12    2
    18    11    12    1
    19    12    13    1
    20    12    15    1
