@<TRIPOS>MOLECULE
1qzf_UMP_A_1.pdb
 20 21 0 0 0
SMALL
GASTEIGER

@<TRIPOS>ATOM
      1  N1       -87.9630  115.7890  128.5820 N.am  603  UMP603     -0.2018
      2  C2       -88.8120  114.6820  128.2070 C.1   603  UMP603      0.2802
      3  N3       -89.4920  114.6980  127.0420 N.2   603  UMP603     -0.2497
      4  C4       -89.5840  115.7790  126.2390 C.1   603  UMP603      0.1941
      5  C5       -88.9310  117.1260  126.6480 C.3   603  UMP603      0.1579
      6  C6       -87.7410  116.9280  127.6090 C.3   603  UMP603      0.1249
      7  O2       -88.8380  113.6600  128.9010 O.2   603  UMP603     -0.1922
      8  O4       -90.2140  115.6920  125.1760 O.2   603  UMP603     -0.2133
      9  C1'      -87.1340  115.7270  129.8540 C.3   603  UMP603      0.2048
     10  C2'      -86.3910  114.4020  130.0610 C.3   603  UMP603      0.0871
     11  C3'      -85.3920  114.7570  131.1520 C.3   603  UMP603      0.1857
     12  C4'      -85.0480  116.2480  130.9050 C.3   603  UMP603      0.1774
     13  O3'      -86.0020  114.5940  132.4520 O.3   603  UMP603     -0.2203
     14  O4'      -86.0610  116.7340  129.9170 O.3   603  UMP603     -0.3342
     15  C5'      -83.6030  116.3950  130.3370 C.3   603  UMP603      0.1858
     16  O5'      -82.6260  115.8690  131.2700 O.3   603  UMP603     -0.2675
     17  P        -81.0350  115.9160  130.9410 P.3   603  UMP603      0.5327
     18  OP1      -80.7690  117.4810  130.6830 O.3   603  UMP603     -0.1145
     19  OP2      -80.2780  115.5050  132.1440 O.3   603  UMP603     -0.1145
     20  OP3      -80.7710  115.2130  129.6660 O.2   603  UMP603     -0.2224
@<TRIPOS>BOND
     1     8     4    2
     2     4     5    1
     3     4     3    2
     4     5     6    1
     5     3     2    2
     6     6     1    1
     7     2     1   am
     8     2     7    2
     9     1     9    1
    10    20    17    2
    11     9    14    1
    12     9    10    1
    13    14    12    1
    14    10    11    1
    15    15    12    1
    16    15    16    1
    17    18    17    1
    18    12    11    1
    19    17    16    1
    20    17    19    1
    21    11    13    1
