@<TRIPOS>MOLECULE
1qzf_NDP_A_1.pdb
 48 52 0 0 0
SMALL
GASTEIGER

@<TRIPOS>ATOM
      1  PA      -134.2760   91.8860  132.3220 P.3   606  NDP606      0.2189
      2  O1A     -133.6540   91.2990  133.5150 O.3   606  NDP606     -0.4371
      3  O2A     -134.0100   91.4420  130.9280 O.2   606  NDP606     -0.5170
      4  O5B     -135.7230   91.1880  132.4860 O.3   606  NDP606     -0.3112
      5  C5B     -136.5170   91.3640  133.6620 C.3   606  NDP606      0.1813
      6  C4B     -137.6320   90.3130  133.7030 C.3   606  NDP606      0.1820
      7  O4B     -137.1170   88.9490  133.8760 O.3   606  NDP606     -0.3136
      8  C3B     -138.6440   90.4950  134.8210 C.3   606  NDP606      0.2157
      9  O3B     -139.6600   91.4210  134.4170 O.3   606  NDP606     -0.2175
     10  C2B     -139.2400   89.1290  134.9320 C.3   606  NDP606      0.2314
     11  O2B     -140.1660   88.9260  133.8730 O.3   606  NDP606     -0.2630
     12  C1B     -138.0490   88.1940  134.7500 C.3   606  NDP606      0.3158
     13  N9A     -137.4040   87.9960  136.0750 N.pl3 606  NDP606     -0.1439
     14  C8A     -136.3540   88.6770  136.5570 C.3   606  NDP606      0.3377
     15  N7A     -136.0700   88.2320  137.7830 N.2   606  NDP606     -0.2095
     16  C5A     -136.9350   87.2710  138.0780 C.2   606  NDP606      0.2526
     17  C6A     -137.1200   86.4550  139.1920 C.2   606  NDP606      0.4393
     18  N6A     -136.3280   86.5860  140.2520 N.pl3 606  NDP606      0.2180
     19  N1A     -138.1170   85.5310  139.1850 N.2   606  NDP606      0.0021
     20  C2A     -138.9240   85.3970  138.1210 C.3   606  NDP606      0.5254
     21  N3A     -138.7630   86.1780  137.0400 N.2   606  NDP606     -0.0055
     22  C4A     -137.7800   87.1150  136.9990 C.2   606  NDP606      0.3518
     23  O3      -134.8890   93.4060  132.4290 O.3   606  NDP606     -0.2703
     24  PN      -133.9130   94.6970  132.7180 P.3   606  NDP606      0.2189
     25  O1N     -133.3550   94.2190  134.0060 O.3   606  NDP606     -0.4371
     26  O2N     -134.9260   95.7640  132.5870 O.2   606  NDP606     -0.5170
     27  O5D     -132.9880   94.3650  131.4110 O.3   606  NDP606     -0.3112
     28  C5D     -133.3730   94.7810  130.0810 C.3   606  NDP606      0.1813
     29  C4D     -132.6340   96.0780  129.7010 C.3   606  NDP606      0.1799
     30  O4D     -131.1890   95.7740  129.7630 O.3   606  NDP606     -0.3327
     31  C3D     -132.8780   96.4570  128.2400 C.3   606  NDP606      0.2158
     32  O3D     -132.7430   97.8710  128.0700 O.3   606  NDP606     -0.2175
     33  C2D     -131.7920   95.7580  127.4790 C.3   606  NDP606      0.2309
     34  O2D     -131.4800   96.4590  126.2760 O.3   606  NDP606     -0.2158
     35  C1D     -130.6160   95.8550  128.4180 C.3   606  NDP606      0.2263
     36  N1N     -129.5690   94.8500  128.1770 N.pl3 606  NDP606     -0.2787
     37  C2N     -128.2450   95.2770  127.9360 C.3   606  NDP606      0.1244
     38  C3N     -127.2260   94.3270  127.8100 C.2   606  NDP606      0.0544
     39  C7N     -125.7740   94.7660  127.5790 C.2   606  NDP606      0.2818
     40  O7N     -124.8700   93.9380  127.5050 O.2   606  NDP606     -0.2670
     41  N7N     -125.5830   96.0770  127.4780 N.am  606  NDP606     -0.0839
     42  C4N     -127.5380   92.9650  127.9190 C.2   606  NDP606      0.0033
     43  C5N     -128.8510   92.5280  128.1490 C.2   606  NDP606      0.0157
     44  C6N     -129.8730   93.4680  128.2780 C.2   606  NDP606      0.0633
     45  P2B     -141.7050   88.6340  134.2230 P.3   606  NDP606      0.5328
     46  O1X     -142.3830   88.3770  132.7710 O.2   606  NDP606     -0.2224
     47  O2X     -141.9930   87.7100  135.3000 O.3   606  NDP606     -0.1145
     48  O3X     -142.1730   90.0040  134.5060 O.3   606  NDP606     -0.1145
@<TRIPOS>BOND
     1    34    33    1
     2    41    39   am
     3    33    31    1
     4    33    35    1
     5    40    39    2
     6    39    38    1
     7    38    42    2
     8    38    37    1
     9    42    43    1
    10    37    36    1
    11    32    31    1
    12    43    44    2
    13    36    44    1
    14    36    35    1
    15    31    29    1
    16    35    30    1
    17    29    30    1
    18    29    28    1
    19    28    27    1
    20     3     1    2
    21    27    24    1
    22     1    23    1
    23     1     4    1
    24     1     2    1
    25    23    24    1
    26     4     5    1
    27    26    24    2
    28    24    25    1
    29    46    45    2
    30     5     6    1
    31     6     7    1
    32     6     8    1
    33    11    45    1
    34    11    10    1
    35     7    12    1
    36    45    48    1
    37    45    47    1
    38     9     8    1
    39    12    10    1
    40    12    13    1
    41     8    10    1
    42    13    14    1
    43    13    22    1
    44    14    15    1
    45    22    21    2
    46    22    16    1
    47    21    20    1
    48    15    16    2
    49    16    17    1
    50    20    19    1
    51    19    17    2
    52    17    18    1
