@<TRIPOS>MOLECULE
1qzg_TMP_A_1.pdb
 10 10 0 0 0
SMALL
GASTEIGER

@<TRIPOS>ATOM
      1  C1'       49.1830  -11.1210   16.6670 C.3   280  TMP280      0.1317
      2  N1        48.7200  -11.2890   15.2870 N.am  280  TMP280     -0.2019
      3  C2        47.6550  -10.5460   14.8360 C.1   280  TMP280      0.2826
      4  O2        47.0600   -9.7410   15.5320 O.2   280  TMP280     -0.1919
      5  N3        47.3090  -10.7840   13.5280 N.2   280  TMP280     -0.2456
      6  C4        47.9090  -11.6680   12.6490 C.1   280  TMP280      0.2134
      7  O4        47.4720  -11.7890   11.5070 O.2   280  TMP280     -0.2088
      8  C5        49.0300  -12.4030   13.1880 C.2   280  TMP280      0.0890
      9  C5M       49.7590  -13.3690   12.3070 C.3   280  TMP280      0.0462
     10  C6        49.3690  -12.1790   14.4620 C.2   280  TMP280      0.0853
@<TRIPOS>BOND
     1     7     6    2
     2     9     8    1
     3     6     8    1
     4     6     5    2
     5     8    10    2
     6     5     3    2
     7    10     2    1
     8     3     2   am
     9     3     4    2
    10     2     1    1
