@<TRIPOS>MOLECULE
1qzr_CDX_B_1.pdb
 19 20 0 0 0
SMALL
GASTEIGER

@<TRIPOS>ATOM
      1  OAO       27.4120   29.8590   28.8810 O.2   901  CDX901     -0.2120
      2  CAP       27.9330   29.9490   29.9780 C.1   901  CDX901      0.2076
      3  NAI       29.1050   29.3730   30.2920 N.2   901  CDX901     -0.2632
      4  CAC       29.6890   29.4600   31.5010 C.1   901  CDX901      0.2076
      5  OAB       30.7550   28.9260   31.7470 O.2   901  CDX901     -0.2120
      6  CAD       28.9870   30.2720   32.5730 C.3   901  CDX901      0.2109
      7  CAQ       27.2420   30.7390   31.0550 C.3   901  CDX901      0.2109
      8  NAJ       28.2870   31.3510   31.8730 N.3   901  CDX901     -0.2414
      9  CAK       27.7070   32.3490   32.7740 C.3   901  CDX901      0.0901
     10  CAL       27.1680   33.5100   31.9270 C.3   901  CDX901      0.0756
     11  CAE       28.0150   33.7400   30.6750 C.3   901  CDX901      0.0189
     12  NAM       27.1470   34.7690   32.6670 N.3   901  CDX901     -0.2427
     13  CAR       25.8990   35.4910   32.4170 C.3   901  CDX901      0.2108
     14  CAS       26.1060   36.8820   32.9600 C.1   901  CDX901      0.2076
     15  OAT       25.5770   37.8230   32.4070 O.2   901  CDX901     -0.2120
     16  NAN       26.8930   37.0190   34.0380 N.2   901  CDX901     -0.2632
     17  CAG       27.4930   35.9960   34.6690 C.1   901  CDX901      0.2076
     18  CAF       27.2760   34.6090   34.1160 C.3   901  CDX901      0.2108
     19  OAH       28.2020   36.1480   35.6440 O.2   901  CDX901     -0.2120
@<TRIPOS>BOND
     1     1     2    2
     2     2     3    2
     3     2     7    1
     4     3     4    2
     5    11    10    1
     6     7     8    1
     7     4     5    2
     8     4     6    1
     9     8     6    1
    10     8     9    1
    11    10    12    1
    12    10     9    1
    13    15    14    2
    14    13    12    1
    15    13    14    1
    16    12    18    1
    17    14    16    2
    18    16    17    2
    19    18    17    1
    20    17    19    2
