@<TRIPOS>MOLECULE
1qzr_ANP_A_1.pdb
 31 33 0 0 0
SMALL
GASTEIGER

@<TRIPOS>ATOM
      1  PG        25.9840   43.4980   36.9050 P.3   902  ANP902      0.4884
      2  O1G       26.0180   42.0260   37.1850 O.3   902  ANP902     -0.1240
      3  O2G       26.8750   44.2090   37.8660 O.3   902  ANP902     -0.1240
      4  O3G       26.4340   43.7470   35.4960 O.2   902  ANP902     -0.2331
      5  PB        23.8370   44.8220   38.4290 P.3   902  ANP902      0.4669
      6  O1B       24.6770   45.9510   38.9160 O.3   902  ANP902     -0.1253
      7  O2B       22.4730   45.3230   38.0830 O.2   902  ANP902     -0.2351
      8  N3B       24.4320   44.1000   37.0470 N.3   902  ANP902     -0.0163
      9  PA        24.4110   43.6710   40.8580 P.3   902  ANP902      0.2220
     10  O1A       25.8060   44.1820   40.8600 O.2   902  ANP902     -0.5170
     11  O2A       24.3980   42.2490   41.3440 O.3   902  ANP902     -0.4370
     12  O3A       23.7630   43.7050   39.4770 O.3   902  ANP902     -0.2360
     13  O5'       23.5520   44.5030   41.7980 O.3   902  ANP902     -0.3111
     14  C5'       22.1970   44.1090   41.9950 C.3   902  ANP902      0.1813
     15  C4'       21.2740   45.3150   42.0970 C.3   902  ANP902      0.1821
     16  O4'       21.4570   45.9210   43.3610 O.3   902  ANP902     -0.3135
     17  C3'       21.6100   46.4440   41.1230 C.3   902  ANP902      0.2184
     18  O3'       20.8540   46.3300   39.9380 O.3   902  ANP902     -0.2174
     19  C2'       21.2570   47.7180   41.8730 C.3   902  ANP902      0.2570
     20  O2'       19.8730   47.9720   41.6710 O.3   902  ANP902     -0.2130
     21  C1'       21.3950   47.3330   43.3320 C.3   902  ANP902      0.3186
     22  N9        22.5920   47.9030   43.9790 N.pl3 902  ANP902     -0.1439
     23  C8        23.7830   47.2860   44.1610 C.3   902  ANP902      0.3377
     24  N7        24.6310   48.0940   44.8390 N.2   902  ANP902     -0.2095
     25  C5        23.9830   49.2410   45.0800 C.2   902  ANP902      0.2526
     26  C6        24.3000   50.5140   45.7600 C.2   902  ANP902      0.4393
     27  N6        25.5670   50.7210   46.3050 N.pl3 902  ANP902      0.2180
     28  N1        23.3350   51.4620   45.8250 N.2   902  ANP902      0.0021
     29  C2        22.1190   51.2730   45.2780 C.3   902  ANP902      0.5254
     30  N3        21.7630   50.1280   44.6460 N.2   902  ANP902     -0.0055
     31  C4        22.6370   49.1060   44.5320 C.2   902  ANP902      0.3518
@<TRIPOS>BOND
     1     4     1    2
     2     1     8    1
     3     1     2    1
     4     1     3    1
     5     8     5    1
     6     7     5    2
     7     5     6    1
     8     5    12    1
     9    12     9    1
    10    18    17    1
    11     9    10    2
    12     9    11    1
    13     9    13    1
    14    17    19    1
    15    17    15    1
    16    20    19    1
    17    13    14    1
    18    19    21    1
    19    14    15    1
    20    15    16    1
    21    21    16    1
    22    21    22    1
    23    22    23    1
    24    22    31    1
    25    23    24    1
    26    31    30    2
    27    31    25    1
    28    30    29    1
    29    24    25    2
    30    25    26    1
    31    29    28    1
    32    26    28    2
    33    26    27    1
