@<TRIPOS>MOLECULE
1qzu_FMN_A_1.pdb
 31 33 0 0 0
SMALL
GASTEIGER

@<TRIPOS>ATOM
      1  N1        67.9780   22.6360    1.4740 N.2   801  FMN801     -0.2890
      2  C2        68.8210   22.4710    0.3890 C.1   801  FMN801      0.3669
      3  O2        68.7980   23.2570   -0.5660 O.2   801  FMN801     -0.1744
      4  N3        69.7140   21.3580    0.4260 N.2   801  FMN801     -0.2300
      5  C4        69.7720   20.4440    1.4930 C.1   801  FMN801      0.2513
      6  O4        70.5380   19.4790    1.5420 O.2   801  FMN801     -0.2057
      7  C4A       68.8310   20.6870    2.6410 C.2   801  FMN801      0.2700
      8  N5        68.8350   19.8640    3.6930 N.2   801  FMN801     -0.3878
      9  C5A       68.0240   20.0290    4.7550 C.2   801  FMN801      0.1320
     10  C6        68.0960   19.1120    5.8460 C.2   801  FMN801      0.0250
     11  C7        67.3040   19.2700    6.9100 C.2   801  FMN801     -0.0238
     12  C7M       67.3990   18.2890    8.0680 C.3   801  FMN801      0.0308
     13  C8        66.3200   20.3980    6.9970 C.2   801  FMN801     -0.0280
     14  C8M       65.4460   20.5580    8.2300 C.3   801  FMN801      0.0304
     15  C9        66.2140   21.2990    5.9640 C.2   801  FMN801     -0.0041
     16  C9A       67.0810   21.1430    4.7850 C.3   801  FMN801      0.1497
     17  N10       67.0860   22.0300    3.6340 N.pl3 801  FMN801     -0.2691
     18  C10       67.9380   21.8260    2.5650 C.2   801  FMN801      0.2416
     19  C1'       66.0950   23.1980    3.6980 C.3   801  FMN801      0.1294
     20  C2'       66.8710   24.4530    4.2110 C.3   801  FMN801      0.2044
     21  O2'       67.4700   24.3090    5.4620 O.3   801  FMN801     -0.2185
     22  C3'       65.9210   25.6840    4.2930 C.3   801  FMN801      0.2164
     23  O3'       65.7290   26.0050    2.8740 O.3   801  FMN801     -0.2175
     24  C4'       66.5970   26.9520    4.8390 C.3   801  FMN801      0.2147
     25  O4'       65.6370   28.0090    4.8550 O.3   801  FMN801     -0.2176
     26  C5'       67.7970   27.4280    4.0670 C.3   801  FMN801      0.1892
     27  O5'       68.1460   28.5890    4.8930 O.3   801  FMN801     -0.2674
     28  P         69.3630   29.4640    4.5480 P.3   801  FMN801      0.5327
     29  O1P       69.3150   29.8690    3.2100 O.2   801  FMN801     -0.2224
     30  O2P       70.4890   28.6720    5.0010 O.3   801  FMN801     -0.1145
     31  O3P       69.2910   30.6960    5.6090 O.3   801  FMN801     -0.1145
@<TRIPOS>BOND
     1     3     2    2
     2     2     4    2
     3     2     1    2
     4     4     5    2
     5     1    18    2
     6     5     6    2
     7     5     7    1
     8    18     7    1
     9    18    17    1
    10     7     8    2
    11    23    22    1
    12    29    28    2
    13    17    19    1
    14    17    16    1
    15     8     9    2
    16    19    20    1
    17    26    24    1
    18    26    27    1
    19    20    22    1
    20    20    21    1
    21    22    24    1
    22    28    27    1
    23    28    30    1
    24    28    31    1
    25     9    16    1
    26     9    10    1
    27    16    15    1
    28    24    25    1
    29    10    11    2
    30    15    13    2
    31    11    13    1
    32    11    12    1
    33    13    14    1
