@<TRIPOS>MOLECULE
1qzy_TDE_A_1.pdb
 27 27 0 0 0
SMALL
GASTEIGER

@<TRIPOS>ATOM
      1  C2        14.1910   28.9640   21.6390 C.1   500  TDE500      0.1458
      2  O8        14.8640   28.3480   22.4550 O.2   500  TDE500     -0.2253
      3  C3        14.5510   28.8140   20.1430 C.3   500  TDE500      0.2002
      4  C4        13.4360   28.1150   19.3250 C.3   500  TDE500      0.0414
      5  C5        12.2480   29.1000   18.9510 C.3   500  TDE500      0.0379
      6  C6        11.3900   29.6520   20.1600 C.3   500  TDE500      0.1771
      7  C7        12.2500   30.5610   21.1470 C.3   500  TDE500      0.1703
      8  N1        13.1380   29.7660   22.0600 N.2   500  TDE500     -0.2022
      9  O7        10.8790   28.5330   20.9380 O.3   500  TDE500     -0.2210
     10  N9        15.7690   28.0420   19.9240 N.am  500  TDE500     -0.1881
     11  C10       16.9900   28.6720   19.8680 C.2   500  TDE500      0.2722
     12  C12       18.2380   27.8420   19.6400 C.3   500  TDE500      0.2256
     13  O21       19.2700   28.1970   20.6130 O.3   500  TDE500     -0.3419
     14  C25       18.9090   27.7930   21.9950 C.3   500  TDE500      0.1748
     15  C13       18.7580   28.2920   18.2250 C.3   500  TDE500      0.2208
     16  O22       17.8450   27.8890   17.2140 O.3   500  TDE500     -0.2171
     17  C14       20.1670   27.7810   17.8520 C.3   500  TDE500      0.2193
     18  O23       20.1010   26.3280   17.7320 O.3   500  TDE500     -0.2172
     19  C15       20.6370   28.3620   16.4910 C.3   500  TDE500      0.2065
     20  O24       21.8500   27.7070   16.0620 O.3   500  TDE500     -0.2155
     21  C16       20.9120   29.8590   16.6410 C.2   500  TDE500      0.0042
     22  C17       20.1280   30.8200   16.1080 C.2   500  TDE500     -0.0288
     23  C18       20.2870   32.3380   16.1850 C.3   500  TDE500      0.0184
     24  C21       18.8720   32.9310   15.9660 C.3   500  TDE500      0.0043
     25  C20       21.2530   32.7930   15.0490 C.3   500  TDE500      0.0043
     26  C19       20.8320   32.9170   17.5250 C.3   500  TDE500      0.0043
     27  O11       17.1300   29.8960   19.9990 O.2   500  TDE500     -0.2706
@<TRIPOS>BOND
     1    25    23    1
     2    24    23    1
     3    20    19    1
     4    22    23    1
     5    22    21    2
     6    23    26    1
     7    19    21    1
     8    19    17    1
     9    16    15    1
    10    18    17    1
    11    17    15    1
    12    15    12    1
    13     5     4    1
    14     5     6    1
    15     4     3    1
    16    12    11    1
    17    12    13    1
    18    11    10   am
    19    11    27    2
    20    10     3    1
    21     3     1    1
    22     6     9    1
    23     6     7    1
    24    13    14    1
    25     7     8    1
    26     1     8    2
    27     1     2    2
