@<TRIPOS>MOLECULE
1qzz_SAM_A_1.pdb
 27 29 0 0 0
SMALL
GASTEIGER

@<TRIPOS>ATOM
      1  N         25.2000   30.7610   44.3430 N.3   635  SAM635     -0.1208
      2  CA        24.7130   31.3090   43.0530 C.3   635  SAM635      0.1952
      3  C         25.0750   32.7840   42.9150 C.2   635  SAM635      0.3819
      4  O         25.9510   33.2940   43.6440 O.co2 635  SAM635     -0.2441
      5  OXT       24.4190   33.4310   42.0430 O.co2 635  SAM635     -0.2441
      6  CB        23.1950   31.1150   42.9060 C.3   635  SAM635      0.0414
      7  CG        22.8050   30.7300   41.5140 C.3   635  SAM635      0.0503
      8  SD        20.9890   30.7260   41.2770 S.3   635  SAM635     -0.1761
      9  CE        20.3710   32.2390   42.0190 C.3   635  SAM635      0.0590
     10  C5'       20.4750   29.4520   42.4090 C.3   635  SAM635      0.0806
     11  C4'       21.1760   28.1060   42.3040 C.3   635  SAM635      0.1622
     12  O4'       20.5640   27.1030   43.1750 O.3   635  SAM635     -0.3153
     13  C3'       21.0970   27.5960   40.8450 C.3   635  SAM635      0.2168
     14  O3'       22.4210   27.4470   40.2910 O.3   635  SAM635     -0.2175
     15  C2'       20.4610   26.2080   40.9730 C.3   635  SAM635      0.2569
     16  O2'       21.0420   25.1990   40.1410 O.3   635  SAM635     -0.2130
     17  C1'       20.7360   25.9260   42.4460 C.3   635  SAM635      0.3185
     18  N9        19.8570   24.8970   42.9330 N.pl3 635  SAM635     -0.1439
     19  C8        18.4940   24.8620   42.8510 C.3   635  SAM635      0.3377
     20  N7        18.0660   23.7620   43.4190 N.2   635  SAM635     -0.2095
     21  C5        19.1490   23.0380   43.8930 C.2   635  SAM635      0.2526
     22  C6        19.2970   21.8100   44.5840 C.2   635  SAM635      0.4393
     23  N6        18.2430   21.0400   44.9160 N.pl3 635  SAM635      0.2180
     24  N1        20.5440   21.4000   44.8740 N.2   635  SAM635      0.0021
     25  C2        21.5510   22.1850   44.5200 C.3   635  SAM635      0.5254
     26  N3        21.5030   23.3640   43.8910 N.2   635  SAM635     -0.0055
     27  C4        20.2570   23.7590   43.5710 C.2   635  SAM635      0.3518
@<TRIPOS>BOND
     1    16    15    1
     2    14    13    1
     3    13    15    1
     4    13    11    1
     5    15    17    1
     6     8     7    1
     7     8     9    1
     8     8    10    1
     9     7     6    1
    10     5     3   ar
    11    11    10    1
    12    11    12    1
    13    17    18    1
    14    17    12    1
    15    19    18    1
    16    19    20    1
    17     6     2    1
    18     3     2    1
    19     3     4   ar
    20    18    27    1
    21     2     1    1
    22    20    21    2
    23    27    26    2
    24    27    21    1
    25    26    25    1
    26    21    22    1
    27    25    24    1
    28    22    24    2
    29    22    23    1
