@<TRIPOS>MOLECULE
1r00_SAH_A_1.pdb
 26 28 0 0 0
SMALL
GASTEIGER

@<TRIPOS>ATOM
      1  N         25.2980   30.8770   44.3560 N.3   635  SAH635     -0.1208
      2  CA        24.8950   31.2790   43.0200 C.3   635  SAH635      0.1952
      3  CB        23.3930   31.0680   42.8980 C.3   635  SAH635      0.0422
      4  CG        22.9180   30.6260   41.5340 C.3   635  SAH635      0.0597
      5  SD        21.1150   30.7420   41.4740 S.3   635  SAH635     -0.1375
      6  C         25.1900   32.7620   42.7640 C.2   635  SAH635      0.3819
      7  O         26.0140   33.3880   43.4520 O.co2 635  SAH635     -0.2441
      8  OXT       24.5700   33.3530   41.8810 O.co2 635  SAH635     -0.2441
      9  C5'       20.6140   29.3260   42.4940 C.3   635  SAH635      0.0899
     10  C4'       21.2860   27.9720   42.2340 C.3   635  SAH635      0.1630
     11  O4'       20.6400   27.0000   43.0410 O.3   635  SAH635     -0.3153
     12  C3'       21.2090   27.4390   40.8080 C.3   635  SAH635      0.2168
     13  O3'       22.4870   27.3140   40.2390 O.3   635  SAH635     -0.2175
     14  C2'       20.5720   26.0650   40.9430 C.3   635  SAH635      0.2569
     15  O2'       21.1740   25.1080   40.1200 O.3   635  SAH635     -0.2130
     16  C1'       20.7430   25.7350   42.4150 C.3   635  SAH635      0.3185
     17  N9        19.7990   24.7150   42.9370 N.pl3 635  SAH635     -0.1439
     18  C8        18.4400   24.6770   42.8500 C.3   635  SAH635      0.3377
     19  N7        18.0060   23.5550   43.4770 N.2   635  SAH635     -0.2095
     20  C5        19.0700   22.8720   43.9630 C.2   635  SAH635      0.2526
     21  C6        19.2170   21.6690   44.6910 C.2   635  SAH635      0.4393
     22  N6        18.1920   20.8850   45.0430 N.pl3 635  SAH635      0.2180
     23  N1        20.4850   21.2550   45.0340 N.2   635  SAH635      0.0021
     24  C2        21.6000   22.0020   44.6850 C.3   635  SAH635      0.5254
     25  N3        21.4360   23.1750   43.9830 N.2   635  SAH635     -0.0055
     26  C4        20.1970   23.6000   43.6190 C.2   635  SAH635      0.3518
@<TRIPOS>BOND
     1    15    14    1
     2    13    12    1
     3    12    14    1
     4    12    10    1
     5    14    16    1
     6     5     4    1
     7     5     9    1
     8     4     3    1
     9     8     6   ar
    10    10     9    1
    11    10    11    1
    12    16    17    1
    13    16    11    1
    14     6     2    1
    15     6     7   ar
    16    18    17    1
    17    18    19    1
    18     3     2    1
    19    17    26    1
    20     2     1    1
    21    19    20    2
    22    26    20    1
    23    26    25    2
    24    20    21    1
    25    25    24    1
    26    24    23    1
    27    21    23    2
    28    21    22    1
