@<TRIPOS>MOLECULE
1r08_W42_1_1.pdb
 31 33 0 0 0
SMALL
GASTEIGER

@<TRIPOS>ATOM
      1  O1D       36.5700    9.8420  128.6920 O.3   900  W42900     -0.2176
      2  C2D       37.2680   10.1850  127.4420 C.3   900  W42900      0.2141
      3  C3D       36.5610    9.8330  126.1210 C.3   900  W42900      0.1804
      4  O4D       35.5290    8.8290  126.1640 O.3   900  W42900     -0.3239
      5  C5D       35.4530    7.8570  125.1310 C.3   900  W42900      0.2944
      6  O6D       36.0110    6.5560  125.2970 O.3   900  W42900     -0.3201
      7  O1        38.5240    3.0490  125.9740 O.2   900  W42900     -0.3580
      8  N2        37.6230    4.0720  126.3560 N.ar  900  W42900     -0.0792
      9  C3        38.0110    5.1320  125.7350 C.ar  900  W42900      0.1302
     10  C31       37.2690    6.4030  125.9310 C.3   900  W42900      0.1937
     11  C4        39.1320    4.8820  124.9420 C.ar  900  W42900      0.0561
     12  C5        39.4180    3.5880  125.1140 C.ar  900  W42900      0.1541
     13  C1C       40.4340    2.6310  124.5980 C.3   900  W42900      0.0673
     14  C2C       39.8000    1.2400  124.4480 C.3   900  W42900      0.0082
     15  C3C       40.8460    0.1280  124.4070 C.3   900  W42900      0.0043
     16  C4C       41.7930    0.2950  123.2500 C.3   900  W42900      0.0474
     17  C5C       42.0130   -0.9870  122.4580 C.3   900  W42900      0.2055
     18  O1B       42.7800   -1.7950  123.2940 O.3   900  W42900     -0.4738
     19  C1B       43.9920   -2.3210  123.0180 C.ar  900  W42900      0.1594
     20  C2B       45.1160   -1.7790  123.5940 C.ar  900  W42900      0.0925
     21  C3B       46.3480   -2.3430  123.3440 C.ar  900  W42900      0.0192
     22  C4B       46.4650   -3.4500  122.5010 C.ar  900  W42900      0.0555
     23  C5B       45.3130   -3.9960  121.9230 C.ar  900  W42900      0.0192
     24  C6B       44.0910   -3.4250  122.1810 C.ar  900  W42900      0.0925
     25 CL1        42.6750   -4.0600  121.4700 Cl    900  W42900     -0.0791
     26 CL2        45.0230   -0.4170  124.6160 Cl    900  W42900     -0.0791
     27  C2A       47.7580   -4.0840  122.2760 C.ar  900  W42900      0.2299
     28  N3A       48.0000   -5.2590  121.5000 N.ar  900  W42900     -0.2065
     29  C4A       49.3040   -5.6430  121.5130 C.ar  900  W42900      0.1427
     30  C5A       49.8500   -4.5820  122.4450 C.ar  900  W42900      0.2021
     31  O1A       48.8670   -3.7090  122.8760 O.2   900  W42900     -0.4314
@<TRIPOS>BOND
     1    25    24    1
     2    28    29   ar
     3    28    27   ar
     4    29    30   ar
     5    23    24   ar
     6    23    22   ar
     7    24    19   ar
     8    27    22    1
     9    27    31   ar
    10    30    31   ar
    11    17    16    1
    12    17    18    1
    13    22    21   ar
    14    19    18    1
    15    19    20   ar
    16    16    15    1
    17    21    20   ar
    18    20    26    1
    19    15    14    1
    20    14    13    1
    21    13    12    1
    22    11    12   ar
    23    11     9   ar
    24    12     7   ar
    25     5     6    1
    26     5     4    1
    27     6    10    1
    28     9    10    1
    29     9     8   ar
    30     7     8   ar
    31     3     4    1
    32     3     2    1
    33     2     1    1
