@<TRIPOS>MOLECULE
1r09_JEN_1_1.pdb
 21 23 0 0 0
SMALL
GASTEIGER

@<TRIPOS>ATOM
      1  C1        35.9440    8.1590  126.5760 C.3   1000  JEN1000     0.2543
      2  O2        36.2170    7.8010  125.2290 O.3   1000  JEN1000    -0.4552
      3  C3        37.0560    6.7790  125.0070 C.ar  1000  JEN1000     0.2440
      4  N4        37.3490    5.9510  125.9720 N.ar  1000  JEN1000    -0.1091
      5  N5        38.1940    4.9120  125.7110 N.ar  1000  JEN1000    -0.1300
      6  C6        38.6980    4.7340  124.4950 C.ar  1000  JEN1000     0.1538
      7  C7        38.4060    5.6520  123.4370 C.ar  1000  JEN1000     0.0410
      8  C8        37.5740    6.6690  123.6990 C.ar  1000  JEN1000     0.0622
      9  N9        39.4410    3.6010  124.2430 N.pl3 1000  JEN1000    -0.2883
     10  C10       40.2270    3.0450  125.3350 C.3   1000  JEN1000     0.1136
     11  C11       40.6620    1.6450  125.0270 C.3   1000  JEN1000     0.1123
     12  N12       41.4170    1.5600  123.7790 N.pl3 1000  JEN1000    -0.3041
     13  C13       40.6930    2.2130  122.6740 C.3   1000  JEN1000     0.1123
     14  C14       40.2630    3.5970  123.0260 C.3   1000  JEN1000     0.1136
     15  C15       42.0680    0.3560  123.4920 C.ar  1000  JEN1000     0.0476
     16  C16       43.3930    0.1100  123.8460 C.ar  1000  JEN1000     0.0103
     17  C17       44.0580   -1.0570  123.5050 C.ar  1000  JEN1000    -0.0206
     18  C18       43.3910   -2.0070  122.7690 C.ar  1000  JEN1000    -0.0042
     19  C19       42.0840   -1.7990  122.4070 C.ar  1000  JEN1000     0.0009
     20  C20       41.4230   -0.6600  122.7700 C.ar  1000  JEN1000     0.0145
     21  C21       45.4900   -1.2660  123.9390 C.3   1000  JEN1000     0.0311
@<TRIPOS>BOND
     1    19    18   ar
     2    19    20   ar
     3    13    14    1
     4    13    12    1
     5    18    17   ar
     6    20    15   ar
     7    14     9    1
     8     7     8   ar
     9     7     6   ar
    10    15    12    1
    11    15    16   ar
    12    17    16   ar
    13    17    21    1
    14     8     3   ar
    15    12    11    1
    16     9     6    1
    17     9    10    1
    18     6     5   ar
    19     3     2    1
    20     3     4   ar
    21    11    10    1
    22     2     1    1
    23     5     4   ar
