@<TRIPOS>MOLECULE
1r0a_GLC_H_1.pdb
 12 12 0 0 0
SMALL
GASTEIGER

@<TRIPOS>ATOM
      1  C1        -1.2690  122.5200   42.2780 C.3   1725  GLC1725     0.3024
      2  C2        -0.0190  123.0190   41.4980 C.3   1725  GLC1725     0.2434
      3  C3        -0.3740  124.0380   40.4160 C.3   1725  GLC1725     0.2199
      4  C4        -1.5250  123.5230   39.5520 C.3   1725  GLC1725     0.2144
      5  C5        -2.7180  123.2240   40.4550 C.3   1725  GLC1725     0.1836
      6  C6        -3.9310  122.7470   39.6620 C.3   1725  GLC1725     0.2142
      7  O1        -1.7200  123.4580   43.2030 O.3   1725  GLC1725    -0.1869
      8  O2         0.9420  123.5920   42.3780 O.3   1725  GLC1725    -0.2148
      9  O3         0.7620  124.2320   39.6010 O.3   1725  GLC1725    -0.2174
     10  O4        -1.8700  124.4650   38.5380 O.3   1725  GLC1725    -0.2176
     11  O5        -2.3580  122.1700   41.3900 O.3   1725  GLC1725    -0.3236
     12  O6        -3.7650  121.4030   39.2150 O.3   1725  GLC1725    -0.2176
@<TRIPOS>BOND
     1    10     4    1
     2    12     6    1
     3     4     3    1
     4     4     5    1
     5     9     3    1
     6     6     5    1
     7     3     2    1
     8     5    11    1
     9    11     1    1
    10     2     1    1
    11     2     8    1
    12     1     7    1
