@<TRIPOS>MOLECULE
1r0b_FLC_A_1.pdb
 13 12 0 0 0
SMALL
GASTEIGER

@<TRIPOS>ATOM
      1  CAC       22.9080   19.2310   -6.0760 C.2   2001  FLC2001     0.3680
      2  CA        21.8310   20.3830   -6.0900 C.3   2001  FLC2001     0.1560
      3  CB        21.3390   21.0570   -4.6840 C.3   2001  FLC2001     0.2402
      4  CBC       19.7100   21.0640   -4.5960 C.2   2001  FLC2001     0.3927
      5  CG        22.0760   22.5010   -4.5450 C.3   2001  FLC2001     0.1560
      6  CGC       21.3900   23.5480   -3.6330 C.2   2001  FLC2001     0.3680
      7  OA1       23.2900   18.6780   -5.0310 O.co2 2001  FLC2001    -0.2455
      8  OA2       23.3430   18.9190   -7.2020 O.co2 2001  FLC2001    -0.2455
      9  OB1       19.0690   22.1380   -4.7020 O.co2 2001  FLC2001    -0.2429
     10  OB2       19.1580   19.9300   -4.4310 O.co2 2001  FLC2001    -0.2429
     11  OG1       21.1910   23.2630   -2.5060 O.co2 2001  FLC2001    -0.2455
     12  OG2       21.0340   24.6000   -4.1290 O.co2 2001  FLC2001    -0.2455
     13  OHB       21.7930   20.2870   -3.5390 O.3   2001  FLC2001    -0.2129
@<TRIPOS>BOND
     1     8     1   ar
     2     2     1    1
     3     2     3    1
     4     1     7   ar
     5     9     4   ar
     6     3     4    1
     7     3     5    1
     8     3    13    1
     9     4    10   ar
    10     5     6    1
    11    12     6   ar
    12     6    11   ar
