@<TRIPOS>MOLECULE
1r0c_NCD_A_1.pdb
 12 11 0 0 0
SMALL
GASTEIGER

@<TRIPOS>ATOM
      1  C6        -3.7430   59.5040    2.9440 C.3   2001  NCD2001     0.2106
      2  C61       -2.9780   59.7200    1.6070 C.2   2001  NCD2001     0.3848
      3  O61       -1.7970   60.1790    1.6200 O.co2 2001  NCD2001    -0.2437
      4  O62       -3.5080   59.4450    0.4990 O.co2 2001  NCD2001    -0.2437
      5  N1        -5.1620   59.2990    2.6550 N.am  2001  NCD2001    -0.1754
      6  C2        -6.2040   59.8530    3.3300 C.2   2001  NCD2001     0.3594
      7  O2        -7.3880   59.5930    2.9810 O.2   2001  NCD2001    -0.2474
      8  N3        -6.0370   60.6750    4.3640 N.am  2001  NCD2001    -0.0679
      9  C5        -3.1100   58.3080    3.6060 C.3   2001  NCD2001     0.1473
     10  C4        -2.9740   58.4030    5.1060 C.2   2001  NCD2001     0.3672
     11  O4        -1.8210   58.5540    5.6460 O.co2 2001  NCD2001    -0.2456
     12  O5        -4.0390   58.3310    5.8210 O.co2 2001  NCD2001    -0.2456
@<TRIPOS>BOND
     1     4     2   ar
     2     2     3   ar
     3     2     1    1
     4     5     1    1
     5     5     6   am
     6     1     9    1
     7     7     6    2
     8     6     8   am
     9     9    10    1
    10    10    11   ar
    11    10    12   ar
