@<TRIPOS>MOLECULE
1r0e_DFN_A_1.pdb
 30 33 0 0 0
SMALL
GASTEIGER

@<TRIPOS>ATOM
      1  C28       43.2650   44.8340   35.9830 C.3   702  DFN702      0.1305
      2  N22       43.4840   43.4190   35.7130 N.ar  702  DFN702     -0.3240
      3  C48       43.7090   42.4730   36.6760 C.ar  702  DFN702      0.0767
      4  C21       43.5150   42.8330   34.4700 C.ar  702  DFN702      0.0601
      5  C24       43.3320   43.4090   33.1990 C.ar  702  DFN702      0.0195
      6  C31       43.4070   42.5680   32.0810 C.ar  702  DFN702      0.0311
      7  C29       43.6530   41.2110   32.2650 C.ar  702  DFN702      0.1402
      8  F39       43.7030   40.4150   31.1960 F     702  DFN702     -0.2042
      9  C20       43.7630   41.4570   34.6680 C.ar  702  DFN702      0.0202
     10  C23       43.8360   40.6390   33.5280 C.ar  702  DFN702      0.0311
     11  C19       43.8700   41.2340   36.0830 C.ar  702  DFN702      0.0314
     12  C01       44.1560   40.0600   36.8620 C.2   702  DFN702      0.1088
     13  C02       44.9450   38.9780   36.6270 C.2   702  DFN702      0.1074
     14  C03       44.9080   38.1270   37.8410 C.1   702  DFN702      0.2158
     15  O06       45.5060   37.0540   37.9970 O.2   702  DFN702     -0.2086
     16  N04       44.1160   38.7510   38.7370 N.2   702  DFN702     -0.2576
     17  C05       43.6330   39.9050   38.2470 C.1   702  DFN702      0.2158
     18  O07       42.8860   40.6750   38.8370 O.2   702  DFN702     -0.2086
     19  C08       45.7630   38.6060   35.4650 C.ar  702  DFN702      0.0140
     20  C09       46.6000   39.5600   34.8560 C.ar  702  DFN702      0.0169
     21  C10       47.4120   39.2410   33.7450 C.ar  702  DFN702      0.0654
     22  C11       47.4090   37.9310   33.2650 C.ar  702  DFN702      0.0161
     23  C12       46.6200   36.9560   33.8780 C.ar  702  DFN702      0.0013
     24  C13       45.8100   37.2900   34.9740 C.ar  702  DFN702      0.0009
     25  N15       48.2070   40.1460   33.1030 N.pl3 702  DFN702     -0.2348
     26  C26       48.3390   41.5510   33.4870 C.3   702  DFN702      0.1477
     27  C34       47.0870   42.2790   32.9820 C.3   702  DFN702      0.2062
     28  O41       47.1550   42.4000   31.5530 O.3   702  DFN702     -0.2184
     29  C40       46.9880   43.6550   33.6340 C.3   702  DFN702      0.2166
     30  O45       48.0570   44.4860   33.1900 O.3   702  DFN702     -0.2175
@<TRIPOS>BOND
     1     8     7    1
     2    28    27    1
     3     6     7   ar
     4     6     5   ar
     5     7    10   ar
     6    27    26    1
     7    27    29    1
     8    25    26    1
     9    25    21    1
    10    30    29    1
    11     5     4   ar
    12    22    21   ar
    13    22    23   ar
    14    10     9   ar
    15    21    20   ar
    16    23    24   ar
    17     4     9   ar
    18     4     2   ar
    19     9    11   ar
    20    20    19   ar
    21    24    19   ar
    22    19    13    1
    23     2     1    1
    24     2     3   ar
    25    11     3   ar
    26    11    12    1
    27    13    12    2
    28    13    14    1
    29    12    17    1
    30    14    15    2
    31    14    16    2
    32    17    16    2
    33    17    18    2
