@<TRIPOS>MOLECULE
1r0l_NDP_A_1.pdb
 27 29 0 0 0
SMALL
GASTEIGER

@<TRIPOS>ATOM
      1  PA        92.4060   73.2610   15.2170 P.3   400  NDP400      0.5327
      2  O1A       91.3870   74.1480   14.8240 O.3   400  NDP400     -0.1145
      3  O2A       93.9070   73.6230   15.1900 O.3   400  NDP400     -0.1145
      4  O5B       92.2250   72.8870   16.7840 O.3   400  NDP400     -0.2675
      5  C5B       93.1990   71.9680   17.0840 C.3   400  NDP400      0.1860
      6  C4B       93.0180   71.8920   18.5140 C.3   400  NDP400      0.1822
      7  O4B       93.9580   70.8450   18.7360 O.3   400  NDP400     -0.3136
      8  C3B       93.5140   73.0910   19.4190 C.3   400  NDP400      0.2157
      9  O3B       92.9350   72.9840   20.8350 O.3   400  NDP400     -0.2175
     10  C2B       95.0030   72.8280   19.3870 C.3   400  NDP400      0.2314
     11  O2B       95.8770   73.6340   20.1600 O.3   400  NDP400     -0.2630
     12  C1B       94.9770   71.3240   19.6360 C.3   400  NDP400      0.3158
     13  N9A       96.2020   70.6580   19.2000 N.pl3 400  NDP400     -0.1439
     14  C8A       96.8270   70.9220   17.9730 C.3   400  NDP400      0.3377
     15  N7A       97.8810   70.1880   17.8040 N.2   400  NDP400     -0.2095
     16  C5A       97.9710   69.3830   18.9250 C.2   400  NDP400      0.2526
     17  C6A       98.8790   68.3580   19.3450 C.2   400  NDP400      0.4393
     18  N6A       99.8940   67.9410   18.5610 N.pl3 400  NDP400      0.2180
     19  N1A       98.6590   67.7640   20.5460 N.2   400  NDP400      0.0021
     20  C2A       97.6370   68.1490   21.3390 C.3   400  NDP400      0.5254
     21  N3A       96.7400   69.1120   20.9980 N.2   400  NDP400     -0.0055
     22  C4A       96.9640   69.6930   19.8100 C.2   400  NDP400      0.3518
     23  O3        92.2630   71.9080   14.4550 O.2   400  NDP400     -0.2224
     24  P2B       95.9290   75.1350   19.9050 P.3   400  NDP400      0.5328
     25  O1X       95.1800   75.6360   18.7480 O.2   400  NDP400     -0.2224
     26  O2X       97.0610   75.8630   20.5460 O.3   400  NDP400     -0.1145
     27  O3X       96.9070   74.7290   18.8030 O.3   400  NDP400     -0.1145
@<TRIPOS>BOND
     1    23     1    2
     2     2     1    1
     3     3     1    1
     4     1     4    1
     5     4     5    1
     6     5     6    1
     7    15    14    1
     8    15    16    2
     9    14    13    1
    10     6     7    1
    11     6     8    1
    12    18    17    1
    13     7    12    1
    14    25    24    2
    15    27    24    1
    16    16    17    1
    17    16    22    1
    18    13    12    1
    19    13    22    1
    20    17    19    2
    21    10     8    1
    22    10    12    1
    23    10    11    1
    24     8     9    1
    25    22    21    2
    26    24    11    1
    27    24    26    1
    28    19    20    1
    29    21    20    1
