@<TRIPOS>MOLECULE
1r0p_KSA_A_1.pdb
 35 42 0 0 0
SMALL
GASTEIGER

@<TRIPOS>ATOM
      1  O3        11.4830   11.0410  136.5340 O.2     0  KSA0       -0.2472
      2  C22       12.2770   10.5770  137.3590 C.2     0  KSA0        0.3492
      3  O5        11.9180    9.2780  137.8980 O.3     0  KSA0       -0.4426
      4  C26       10.6860    8.6060  137.6060 C.3     0  KSA0        0.2557
      5  C1        13.6050   11.2330  137.7850 C.3     0  KSA0        0.2594
      6  O4        13.5280   12.6180  137.5130 O.3     0  KSA0       -0.2096
      7  C2        14.5590   10.5400  136.9320 C.3     0  KSA0        0.2010
      8  O1        15.0190    9.3260  137.5600 O.3     0  KSA0       -0.3180
      9  C25       14.1800   10.0260  135.5320 C.3     0  KSA0        0.0572
     10  N1        15.8860   11.2470  136.8080 N.ar    0  KSA0       -0.3050
     11  C3        16.9230   10.9960  137.6190 C.ar    0  KSA0        0.0774
     12  C4        17.1280   10.1870  138.8360 C.ar    0  KSA0        0.0783
     13  N2        16.1460    9.4550  139.4700 N.ar    0  KSA0       -0.3039
     14  C24       14.7800    9.3610  138.9420 C.3     0  KSA0        0.2096
     15  C27       13.9250   10.6420  139.1580 C.3     0  KSA0        0.0997
     16  C17       16.7760    8.8440  140.5560 C.ar    0  KSA0        0.0618
     17  C18       16.2430    7.9780  141.5060 C.ar    0  KSA0        0.0172
     18  C19       17.0850    7.5240  142.5250 C.ar    0  KSA0        0.0015
     19  C20       18.4310    7.9270  142.5650 C.ar    0  KSA0        0.0001
     20  C21       18.9590    8.7840  141.5960 C.ar    0  KSA0        0.0015
     21  C16       18.1040    9.2380  140.5920 C.ar    0  KSA0        0.0180
     22  C5        18.3310   10.0620  139.4950 C.ar    0  KSA0        0.0293
     23  C6        19.4670   10.8350  138.9530 C.ar    0  KSA0        0.0822
     24  C15       20.8680   10.9600  139.3900 C.1     0  KSA0        0.1501
     25  O2        21.3820   10.3180  140.3070 O.2     0  KSA0       -0.2222
     26  C7        19.3080   11.6350  137.8360 C.ar    0  KSA0        0.0154
     27  C23       20.5930   12.3300  137.4840 C.3     0  KSA0        0.1650
     28  N3        21.4430   11.7970  138.5460 N.2     0  KSA0       -0.1976
     29  C8        18.0000   11.7230  137.1610 C.ar    0  KSA0        0.0173
     30  C9        17.5810   12.4000  136.0310 C.ar    0  KSA0        0.0171
     31  C10       16.2450   12.1060  135.8350 C.ar    0  KSA0        0.0617
     32  C11       15.5870   12.7330  134.7230 C.ar    0  KSA0        0.0172
     33  C14       18.3200   13.3000  135.1860 C.ar    0  KSA0        0.0015
     34  C13       17.6490   13.8610  134.1010 C.ar    0  KSA0        0.0001
     35  C12       16.2930   13.5830  133.8930 C.ar    0  KSA0        0.0015
@<TRIPOS>BOND
     1    35    34   ar
     2    35    32   ar
     3    34    33   ar
     4    32    31   ar
     5    33    30   ar
     6     9     7    1
     7    31    30   ar
     8    31    10   ar
     9    30    29   ar
    10     1     2    2
    11    10     7    1
    12    10    11   ar
    13     7     8    1
    14     7     5    1
    15    29    11   ar
    16    29    26   ar
    17     2     5    1
    18     2     3    1
    19    27    26    1
    20    27    28    1
    21     6     5    1
    22     8    14    1
    23     4     3    1
    24    11    12   ar
    25     5    15    1
    26    26    23   ar
    27    28    24    2
    28    12    13   ar
    29    12    22   ar
    30    14    15    1
    31    14    13    1
    32    23    24    1
    33    23    22   ar
    34    24    25    2
    35    13    16   ar
    36    22    21   ar
    37    16    21   ar
    38    16    17   ar
    39    21    20   ar
    40    17    18   ar
    41    20    19   ar
    42    18    19   ar
