@<TRIPOS>MOLECULE
1r0q_HFM_A_1.pdb
 43 50 0 0 0
SMALL
GASTEIGER

@<TRIPOS>ATOM
      1 FE         24.7810   24.3630    0.1650 Fe    200  HFM200      0.0000
      2  CHA       21.3990   24.5140   -0.2030 C.2   200  HFM200      0.0000
      3  CHB       25.0170   22.5240   -2.6390 C.2   200  HFM200      0.0000
      4  CHC       28.1160   24.6670    0.3280 C.2   200  HFM200      0.0000
      5  CHD       24.4590   25.7400    3.2140 C.2   200  HFM200      0.0000
      6  NA        23.4180   23.6120   -1.2180 N.ar  200  HFM200      0.0000
      7  NB        26.3240   23.6620   -0.9460 N.2   200  HFM200      0.0000
      8  NC        26.0560   25.1050    1.5520 N.ar  200  HFM200      0.0000
      9  ND        23.2080   25.0730    1.2820 N.2   200  HFM200      0.0000
     10  C1A       22.0960   23.7970   -1.2120 C.ar  200  HFM200      0.0000
     11  C2A       21.5150   23.1260   -2.2960 C.ar  200  HFM200      0.0000
     12  C3A       22.5460   22.5950   -3.0430 C.ar  200  HFM200      0.0000
     13  C4A       23.7310   22.9550   -2.3130 C.ar  200  HFM200      0.0000
     14  CMA       22.5310   21.7970   -4.2990 C.3   200  HFM200      0.0000
     15  CAA       20.0400   23.2990   -2.7440 C.3   200  HFM200      0.0000
     16  CBA       19.2290   22.1450   -2.0560 C.3   200  HFM200      0.0000
     17  CGA       17.7190   22.4720   -2.2380 C.2   200  HFM200      0.0000
     18  O1A       16.9050   21.5790   -1.9050 O.co2 200  HFM200      0.0000
     19  O2A       17.3540   23.4420   -2.8980 O.co2 200  HFM200      0.0000
     20  C1B       26.2410   22.7890   -1.9570 C.2   200  HFM200      0.0000
     21  C2B       27.5070   22.5370   -2.5010 C.2   200  HFM200      0.0000
     22  C3B       28.3680   23.3040   -1.7660 C.2   200  HFM200      0.0000
     23  C4B       27.6390   23.8770   -0.7500 C.2   200  HFM200      0.0000
     24  CMB       27.8360   21.5460   -3.6110 C.3   200  HFM200      0.0000
     25  CAB       29.8360   23.2740   -1.8640 C.2   200  HFM200      0.0000
     26  OAB       30.3490   22.4700   -2.6650 O.2   200  HFM200      0.0000
     27  C1C       27.4000   25.0430    1.4980 C.ar  200  HFM200      0.0000
     28  C2C       27.9830   25.7770    2.5960 C.ar  200  HFM200      0.0000
     29  C3C       26.9640   25.7560    3.5460 C.ar  200  HFM200      0.0000
     30  C4C       25.7570   25.5750    2.7980 C.ar  200  HFM200      0.0000
     31  CMC       29.5410   25.7960    2.7830 C.3   200  HFM200      0.0000
     32  CAC       27.0040   26.3580    5.0630 C.3   200  HFM200      0.0000
     33  CBC       27.8030   27.6810    5.2400 C.3   200  HFM200      0.0000
     34  C1D       23.2710   25.5120    2.5730 C.2   200  HFM200      0.0000
     35  C2D       22.0110   25.7770    3.0640 C.2   200  HFM200      0.0000
     36  C3D       21.0990   25.4430    2.0770 C.2   200  HFM200      0.0000
     37  C4D       21.9230   25.0630    0.9600 C.2   200  HFM200      0.0000
     38  CMD       21.6810   26.3760    4.4570 C.3   200  HFM200      0.0000
     39  CAD       19.6060   25.7670    2.0600 C.3   200  HFM200      0.0000
     40  CBD       19.3140   27.3100    2.0160 C.3   200  HFM200      0.0000
     41  CGD       17.9040   27.6950    2.4650 C.2   200  HFM200      0.0000
     42  O1D       17.1880   28.4130    1.7630 O.co2 200  HFM200      0.0000
     43  O2D       17.4570   27.1270    3.4300 O.co2 200  HFM200      0.0000
@<TRIPOS>BOND
     1    14    12    1
     2    24    21    1
     3    12    13   ar
     4    12    11   ar
     5    19    17   ar
     6    15    11    1
     7    15    16    1
     8    26    25    2
     9     3    13    2
    10     3    20    1
    11    21    20    1
    12    21    22    2
    13    13     6   ar
    14    11    10   ar
    15    17    16    1
    16    17    18   ar
    17    20     7    2
    18    25    22    1
    19    22    23    1
    20     6    10   ar
    21     6     1    1
    22    10     2    2
    23     7    23    1
    24     7     1    1
    25    23     4    2
    26     2    37    1
    27     1     9    1
    28     1     8    1
    29     4    27    1
    30    37     9    2
    31    37    36    1
    32     9    34    1
    33    27     8   ar
    34    27    28   ar
    35     8    30   ar
    36    42    41   ar
    37    40    39    1
    38    40    41    1
    39    39    36    1
    40    36    35    2
    41    41    43   ar
    42    34    35    1
    43    34     5    2
    44    28    31    1
    45    28    29   ar
    46    30     5    1
    47    30    29   ar
    48    35    38    1
    49    29    32    1
    50    32    33    1
