@<TRIPOS>MOLECULE
1r0x_ATP_A_1.pdb
 31 33 0 0 0
SMALL
GASTEIGER

@<TRIPOS>ATOM
      1  PG       161.7650    6.7740   29.7860 P.3     1  ATP1        0.5373
      2  O1G      162.1430    6.7740   28.3670 O.2     1  ATP1       -0.2221
      3  O2G      160.4590    5.9990   30.1110 O.3     1  ATP1       -0.1143
      4  O3G      162.8420    6.0200   30.5770 O.3     1  ATP1       -0.1143
      5  PB       160.3860    9.2660   30.0000 P.3     1  ATP1        0.2277
      6  O1B      160.2940    9.7630   28.6200 O.2     1  ATP1       -0.5168
      7  O2B      159.1270    8.6060   30.5450 O.3     1  ATP1       -0.4368
      8  O3B      161.6610    8.3190   30.2170 O.3     1  ATP1       -0.2258
      9  PA       160.3120   10.8880   32.3570 P.3     1  ATP1        0.2189
     10  O1A      160.3390    9.7030   33.2570 O.3     1  ATP1       -0.4371
     11  O2A      158.9490   11.6380   32.4040 O.2     1  ATP1       -0.5170
     12  O3A      160.7090   10.6280   30.8110 O.3     1  ATP1       -0.2700
     13  O5'      161.5640   11.7980   32.8780 O.3     1  ATP1       -0.3112
     14  C5'      161.7530   13.1600   32.5720 C.3     1  ATP1        0.1813
     15  C4'      162.8880   13.6440   33.4700 C.3     1  ATP1        0.1821
     16  O4'      162.7390   13.1070   34.7710 O.3     1  ATP1       -0.3135
     17  C3'      164.2620   13.1980   33.0110 C.3     1  ATP1        0.2184
     18  O3'      164.8270   14.2300   32.2480 O.3     1  ATP1       -0.2174
     19  C2'      165.0220   12.9720   34.3040 C.3     1  ATP1        0.2570
     20  O2'      165.5840   14.1780   34.7890 O.3     1  ATP1       -0.2130
     21  C1'      163.9680   12.6820   35.3410 C.3     1  ATP1        0.3186
     22  N9       163.9310   11.2850   35.8240 N.pl3   1  ATP1       -0.1439
     23  C8       162.8660   10.4290   35.6920 C.3     1  ATP1        0.3377
     24  N7       163.1560    9.2450   36.2650 N.2     1  ATP1       -0.2095
     25  C5       164.4090    9.3190   36.7760 C.2     1  ATP1        0.2526
     26  C6       165.1770    8.3790   37.4780 C.2     1  ATP1        0.4393
     27  N6       164.6650    7.1720   37.7200 N.pl3   1  ATP1        0.2180
     28  N1       166.4510    8.7330   37.8840 N.2     1  ATP1        0.0021
     29  C2       166.9360   10.0020   37.6110 C.3     1  ATP1        0.5254
     30  N3       166.1670   10.9300   36.9290 N.2     1  ATP1       -0.0055
     31  C4       164.9130   10.5990   36.5110 C.2     1  ATP1        0.3518
@<TRIPOS>BOND
     1     2     1    2
     2     6     5    2
     3     1     3    1
     4     1     8    1
     5     1     4    1
     6     5     8    1
     7     5     7    1
     8     5    12    1
     9    12     9    1
    10    18    17    1
    11     9    11    2
    12     9    13    1
    13     9    10    1
    14    14    13    1
    15    14    15    1
    16    17    15    1
    17    17    19    1
    18    15    16    1
    19    19    20    1
    20    19    21    1
    21    16    21    1
    22    21    22    1
    23    23    22    1
    24    23    24    1
    25    22    31    1
    26    24    25    2
    27    31    25    1
    28    31    30    2
    29    25    26    1
    30    30    29    1
    31    26    27    1
    32    26    28    2
    33    29    28    1
