@<TRIPOS>MOLECULE
1r0y_ADP_A_1.pdb
 27 29 0 0 0
SMALL
GASTEIGER

@<TRIPOS>ATOM
      1  PB       159.4340    9.4990   29.3090 P.3     7  ADP7        0.5373
      2  O1B      159.1970   10.0310   27.9410 O.2     7  ADP7       -0.2221
      3  O2B      158.1170    8.9780   29.8720 O.3     7  ADP7       -0.1143
      4  O3B      160.5020    8.3640   29.2470 O.3     7  ADP7       -0.1143
      5  PA       159.4390   11.1240   31.7090 P.3     7  ADP7        0.2231
      6  O1A      159.4270    9.8640   32.5040 O.3     7  ADP7       -0.4370
      7  O2A      158.1220   11.9830   31.7570 O.2     7  ADP7       -0.5169
      8  O3A      159.8180   10.8040   30.1580 O.3     7  ADP7       -0.2261
      9  O5'      160.7090   11.9530   32.3030 O.3     7  ADP7       -0.3111
     10  C5'      160.7040   13.3630   32.3770 C.3     7  ADP7        0.1813
     11  C4'      162.0790   13.8470   32.8590 C.3     7  ADP7        0.1821
     12  O4'      162.4800   13.3320   34.1320 O.3     7  ADP7       -0.3135
     13  C3'      163.1680   13.4800   31.8910 C.3     7  ADP7        0.2184
     14  O3'      163.8950   14.6610   31.7930 O.3     7  ADP7       -0.2174
     15  C2'      163.9300   12.3500   32.5880 C.3     7  ADP7        0.2570
     16  O2'      165.3140   12.2270   32.2650 O.3     7  ADP7       -0.2130
     17  C1'      163.6470   12.5250   34.0810 C.3     7  ADP7        0.3186
     18  N9       163.4120   11.2030   34.7340 N.pl3   7  ADP7       -0.1439
     19  C8       162.4360   10.3030   34.3840 C.3     7  ADP7        0.3377
     20  N7       162.5240    9.2150   35.1800 N.2     7  ADP7       -0.2095
     21  C5       163.5530    9.3930   36.0440 C.2     7  ADP7        0.2526
     22  C6       164.0800    8.5880   37.0690 C.2     7  ADP7        0.4393
     23  N6       163.5330    7.4030   37.3360 N.pl3   7  ADP7        0.2180
     24  N1       165.1670    9.0310   37.8080 N.2     7  ADP7        0.0021
     25  C2       165.7200   10.2690   37.5340 C.3     7  ADP7        0.5254
     26  N3       165.1950   11.0560   36.5220 N.2     7  ADP7       -0.0055
     27  C4       164.1260   10.6360   35.7750 C.2     7  ADP7        0.3518
@<TRIPOS>BOND
     1     2     1    2
     2     4     1    1
     3     1     3    1
     4     1     8    1
     5     8     5    1
     6     5     7    2
     7     5     9    1
     8     5     6    1
     9    14    13    1
    10    13    15    1
    11    13    11    1
    12    16    15    1
    13     9    10    1
    14    10    11    1
    15    15    17    1
    16    11    12    1
    17    17    12    1
    18    17    18    1
    19    19    18    1
    20    19    20    1
    21    18    27    1
    22    20    21    2
    23    27    21    1
    24    27    26    2
    25    21    22    1
    26    26    25    1
    27    22    23    1
    28    22    24    2
    29    25    24    1
