@<TRIPOS>MOLECULE
1r0z_ATP_A_1.pdb
 31 33 0 0 0
SMALL
GASTEIGER

@<TRIPOS>ATOM
      1  PG       160.0870    6.8010   29.6190 P.3   675  ATP675      0.5373
      2  O1G      160.8710    6.2390   28.4990 O.2   675  ATP675     -0.2221
      3  O2G      158.7880    6.1430   29.7720 O.3   675  ATP675     -0.1143
      4  O3G      160.8630    6.7940   30.9040 O.3   675  ATP675     -0.1143
      5  PB       158.4900    9.2580   29.5960 P.3   675  ATP675      0.2277
      6  O1B      158.4280   10.4060   28.7830 O.2   675  ATP675     -0.5168
      7  O2B      157.3560    8.8060   30.3820 O.3   675  ATP675     -0.4368
      8  O3B      159.7080    8.3340   29.3050 O.3   675  ATP675     -0.2258
      9  PA       158.5400   10.8910   32.0430 P.3   675  ATP675      0.2189
     10  O1A      158.8210   10.2360   33.3190 O.3   675  ATP675     -0.4371
     11  O2A      157.5740   12.0020   31.9720 O.2   675  ATP675     -0.5170
     12  O3A      159.1750   10.2520   30.7500 O.3   675  ATP675     -0.2700
     13  O5'      159.7320   11.6450   32.4470 O.3   675  ATP675     -0.3112
     14  C5'      160.6630   12.4870   32.4170 C.3   675  ATP675      0.1813
     15  C4'      161.4350   13.7180   32.8540 C.3   675  ATP675      0.1821
     16  O4'      161.8890   13.3650   34.1990 O.3   675  ATP675     -0.3135
     17  C3'      162.5530   13.5480   31.8930 C.3   675  ATP675      0.2184
     18  O3'      163.2750   14.7420   31.6390 O.3   675  ATP675     -0.2174
     19  C2'      163.3740   12.3820   32.5400 C.3   675  ATP675      0.2570
     20  O2'      164.7460   12.3670   32.1590 O.3   675  ATP675     -0.2130
     21  C1'      163.1330   12.5330   34.0840 C.3   675  ATP675      0.3186
     22  N9       162.8420   11.2510   34.8240 N.pl3 675  ATP675     -0.1439
     23  C8       161.7460   10.3420   34.7030 C.3   675  ATP675      0.3377
     24  N7       161.7800    9.3250   35.5010 N.2   675  ATP675     -0.2095
     25  C5       162.9750    9.5490   36.2060 C.2   675  ATP675      0.2526
     26  C6       163.6450    8.8160   37.2680 C.2   675  ATP675      0.4393
     27  N6       163.1530    7.6840   37.7560 N.pl3 675  ATP675      0.2180
     28  N1       164.8570    9.3270   37.7640 N.2   675  ATP675      0.0021
     29  C2       165.3880   10.4720   37.2840 C.3   675  ATP675      0.5254
     30  N3       164.8540   11.2400   36.3030 N.2   675  ATP675     -0.0055
     31  C4       163.6190   10.7150   35.8040 C.2   675  ATP675      0.3518
@<TRIPOS>BOND
     1     2     1    2
     2     6     5    2
     3     8     5    1
     4     8     1    1
     5     5     7    1
     6     5    12    1
     7     1     3    1
     8     1     4    1
     9    12     9    1
    10    18    17    1
    11    17    19    1
    12    17    15    1
    13    11     9    2
    14     9    13    1
    15     9    10    1
    16    20    19    1
    17    14    13    1
    18    14    15    1
    19    19    21    1
    20    15    16    1
    21    21    16    1
    22    21    22    1
    23    23    22    1
    24    23    24    1
    25    22    31    1
    26    24    25    2
    27    31    25    1
    28    31    30    2
    29    25    26    1
    30    30    29    1
    31    26    27    1
    32    26    28    2
    33    29    28    1
