@<TRIPOS>MOLECULE
1r10_ATP_A_1.pdb
 31 33 0 0 0
SMALL
GASTEIGER

@<TRIPOS>ATOM
      1  PG       148.2720   11.7150  254.1630 P.3     1  ATP1        0.5373
      2  O1G      147.4340   11.4430  252.9290 O.2     1  ATP1       -0.2221
      3  O2G      147.8030   12.8890  254.9960 O.3     1  ATP1       -0.1143
      4  O3G      148.4420   10.4760  255.0150 O.3     1  ATP1       -0.1143
      5  PB       150.6180   13.4950  253.8420 P.3     1  ATP1        0.2277
      6  O1B      151.7490   13.6620  252.9740 O.2     1  ATP1       -0.5168
      7  O2B      150.0910   14.6250  254.6270 O.3     1  ATP1       -0.4368
      8  O3B      149.7660   12.1490  253.6700 O.3     1  ATP1       -0.2258
      9  PA       152.3330   13.4140  256.2480 P.3     1  ATP1        0.2189
     10  O1A      151.6780   13.2810  257.5650 O.3     1  ATP1       -0.4371
     11  O2A      153.5320   14.2780  256.0090 O.2     1  ATP1       -0.5170
     12  O3A      151.6280   12.7280  254.9860 O.3     1  ATP1       -0.2700
     13  O5'      153.0320   12.1880  256.7130 O.3     1  ATP1       -0.3112
     14  C5'      153.8030   11.1840  256.7450 C.3     1  ATP1        0.1813
     15  C4'      155.0050   10.4950  257.2230 C.3     1  ATP1        0.1821
     16  O4'      154.6410   10.4270  258.6430 O.3     1  ATP1       -0.3135
     17  C3'      154.7180    9.2560  256.4900 C.3     1  ATP1        0.2184
     18  O3'      155.8270    8.6650  255.8340 O.3     1  ATP1       -0.2174
     19  C2'      154.0320    8.3220  257.5560 C.3     1  ATP1        0.2570
     20  O2'      154.8430    7.1720  257.6850 O.3     1  ATP1       -0.2130
     21  C1'      154.0380    9.0980  258.9300 C.3     1  ATP1        0.3186
     22  N9       152.6720    9.3110  259.5890 N.pl3   1  ATP1       -0.1439
     23  C8       151.7410   10.3930  259.4780 C.3     1  ATP1        0.3377
     24  N7       150.6520   10.2730  260.1910 N.2     1  ATP1       -0.2095
     25  C5       150.8440    9.0270  260.8330 C.2     1  ATP1        0.2526
     26  C6       150.0290    8.2610  261.7890 C.2     1  ATP1        0.4393
     27  N6       148.8340    8.7250  262.2230 N.pl3   1  ATP1        0.2180
     28  N1       150.5270    7.0140  262.2510 N.2     1  ATP1        0.0021
     29  C2       151.7410    6.5420  261.8080 C.3     1  ATP1        0.5254
     30  N3       152.6000    7.1610  260.9190 N.2     1  ATP1       -0.0055
     31  C4       152.0670    8.4310  260.4680 C.2     1  ATP1        0.3518
@<TRIPOS>BOND
     1     2     1    2
     2     6     5    2
     3     8     5    1
     4     8     1    1
     5     5     7    1
     6     5    12    1
     7     1     3    1
     8     1     4    1
     9    12     9    1
    10    18    17    1
    11    11     9    2
    12     9    13    1
    13     9    10    1
    14    17    15    1
    15    17    19    1
    16    13    14    1
    17    14    15    1
    18    15    16    1
    19    19    20    1
    20    19    21    1
    21    16    21    1
    22    21    22    1
    23    23    22    1
    24    23    24    1
    25    22    31    1
    26    24    25    2
    27    31    25    1
    28    31    30    2
    29    25    26    1
    30    30    29    1
    31    26    27    1
    32    26    28    2
    33    29    28    1
