@<TRIPOS>MOLECULE
1r15_N_A_1.pdb
 13 13 0 0 0
SMALL
GASTEIGER

@<TRIPOS>ATOM
      1  OP3      -12.7600   -0.5720   15.2160 O.2   1179  N1179      -0.2224
      2  P        -12.5530    0.1900   16.5470 P.3   1179  N1179       0.5327
      3  OP1      -12.4170   -0.7270   17.7950 O.3   1179  N1179      -0.1145
      4  OP2      -13.5740    1.3480   16.5620 O.3   1179  N1179      -0.1145
      5  O5'      -11.1230    1.2310   16.2510 O.3   1179  N1179      -0.2675
      6  C5'      -11.0570    2.2620   15.1140 C.3   1179  N1179       0.1858
      7  C4'      -10.2520    3.5350   15.2730 C.3   1179  N1179       0.1782
      8  O4'       -8.7910    3.0230   15.3340 O.3   1179  N1179      -0.3482
      9  C3'      -10.1810    4.6690   14.1600 C.3   1179  N1179       0.2140
     10  O3'      -11.3300    4.7200   13.2820 O.3   1179  N1179      -0.2176
     11  C2'       -8.9260    4.1600   13.3120 C.3   1179  N1179       0.2140
     12  O2'       -8.3810    5.1010   12.3520 O.3   1179  N1179      -0.2176
     13  C1'       -7.8510    3.6610   14.4340 C.3   1179  N1179       0.1777
@<TRIPOS>BOND
     1    12    11    1
     2    10     9    1
     3    11     9    1
     4    11    13    1
     5     9     7    1
     6    13     8    1
     7     6     7    1
     8     6     5    1
     9     1     2    2
    10     7     8    1
    11     5     2    1
    12     2     4    1
    13     2     3    1
