@<TRIPOS>MOLECULE
1r16_N_A_1.pdb
 13 13 0 0 0
SMALL
GASTEIGER

@<TRIPOS>ATOM
      1  OP3       45.4210    1.4030   14.1300 O.2   1179  N1179      -0.2224
      2  P         46.2450    1.7840   15.4000 P.3   1179  N1179       0.5327
      3  OP1       47.1170    3.0430   15.2010 O.3   1179  N1179      -0.1145
      4  OP2       46.8740    0.4630   15.9680 O.3   1179  N1179      -0.1145
      5  O5'       45.0110    1.9620   16.6630 O.3   1179  N1179      -0.2675
      6  C5'       44.1270    0.8220   17.1340 C.3   1179  N1179       0.1858
      7  C4'       44.0710    0.5960   18.6320 C.3   1179  N1179       0.1782
      8  O4'       43.2530    1.8420   19.0510 O.3   1179  N1179      -0.3482
      9  C3'       43.2710   -0.5700   19.3690 C.3   1179  N1179       0.2140
     10  O3'       43.1170   -1.7920   18.6130 O.3   1179  N1179      -0.2176
     11  C2'       41.8250    0.0760   19.4500 C.3   1179  N1179       0.2140
     12  O2'       40.9090   -0.6160   20.3110 O.3   1179  N1179      -0.2176
     13  C1'       42.0880    1.6230   19.8890 C.3   1179  N1179       0.1777
@<TRIPOS>BOND
     1     1     2    2
     2     3     2    1
     3     2     4    1
     4     2     5    1
     5     5     6    1
     6     6     7    1
     7    10     9    1
     8     7     8    1
     9     7     9    1
    10     8    13    1
    11     9    11    1
    12    11    13    1
    13    11    12    1
