@<TRIPOS>MOLECULE
1r18_SAH_A_1.pdb
 26 28 0 0 0
SMALL
GASTEIGER

@<TRIPOS>ATOM
      1  N         20.0130   -2.3000   16.5710 N.3   300  SAH300     -0.1208
      2  CA        19.3310   -3.6410   16.8830 C.3   300  SAH300      0.1952
      3  CB        20.4330   -4.7280   16.9360 C.3   300  SAH300      0.0422
      4  CG        21.2220   -5.0660   15.7200 C.3   300  SAH300      0.0597
      5  SD        22.2180   -6.5670   16.0600 S.3   300  SAH300     -0.1375
      6  C         18.7790   -3.5890   18.3250 C.2   300  SAH300      0.3819
      7  O         18.9920   -2.5970   19.0520 O.co2 300  SAH300     -0.2441
      8  OXT       18.1400   -4.6450   18.6700 O.co2 300  SAH300     -0.2441
      9  C5'       22.8840   -6.7290   14.4700 C.3   300  SAH300      0.0899
     10  C4'       21.7040   -7.0210   13.4300 C.3   300  SAH300      0.1630
     11  O4'       22.4130   -7.0950   12.2060 O.3   300  SAH300     -0.3153
     12  C3'       21.0380   -8.3720   13.5600 C.3   300  SAH300      0.2168
     13  O3'       19.6300   -8.2450   13.7290 O.3   300  SAH300     -0.2175
     14  C2'       21.4890   -9.1000   12.2280 C.3   300  SAH300      0.2569
     15  O2'       20.5820  -10.1170   11.8130 O.3   300  SAH300     -0.2130
     16  C1'       21.6340   -7.9090   11.2810 C.3   300  SAH300      0.3185
     17  N9        22.3640   -8.0690   10.1710 N.pl3 300  SAH300     -0.1439
     18  C8        23.6230   -8.5870    9.9340 C.3   300  SAH300      0.3377
     19  N7        24.0110   -8.5610    8.7000 N.2   300  SAH300     -0.2095
     20  C5        22.9250   -7.9650    8.0030 C.2   300  SAH300      0.2526
     21  C6        22.7450   -7.6520    6.6030 C.2   300  SAH300      0.4393
     22  N6        23.6580   -7.9000    5.6510 N.pl3 300  SAH300      0.2180
     23  N1        21.5370   -7.0670    6.2970 N.2   300  SAH300      0.0021
     24  C2        20.5780   -6.7900    7.2260 C.3   300  SAH300      0.5254
     25  N3        20.7130   -7.0700    8.5700 N.2   300  SAH300     -0.0055
     26  C4        21.9120   -7.6470    8.8860 C.2   300  SAH300      0.3518
@<TRIPOS>BOND
     1    22    21    1
     2    23    21    2
     3    23    24    1
     4    21    20    1
     5    24    25    1
     6    20    19    2
     7    20    26    1
     8    25    26    2
     9    19    18    1
    10    26    17    1
    11    18    17    1
    12    17    16    1
    13    16    11    1
    14    16    14    1
    15    15    14    1
    16    11    10    1
    17    14    12    1
    18    10    12    1
    19    10     9    1
    20    12    13    1
    21     9     5    1
    22     4     5    1
    23     4     3    1
    24     1     2    1
    25     2     3    1
    26     2     6    1
    27     6     8   ar
    28     6     7   ar
