@<TRIPOS>MOLECULE
1r1c_REP_B_1.pdb
 21 24 0 0 0
SMALL
GASTEIGER

@<TRIPOS>ATOM
      1 RE         42.9560   37.6270   42.6640 Re    802  REP802      0.0000
      2  N1        45.0390   38.1190   43.0210 N.pl3 802  REP802      0.0000
      3  N2        44.0300   35.8300   42.0890 N.pl3 802  REP802      0.0000
      4  O1        42.8630   38.8150   39.7990 O.3   802  REP802      0.0000
      5  O2        40.1010   36.4870   42.2510 O.3   802  REP802      0.0000
      6  O3        41.6180   40.3400   43.4360 O.3   802  REP802      0.0000
      7  C1        42.9240   38.3140   40.8390 C.3   802  REP802      0.0000
      8  C2        41.1610   36.9100   42.4040 C.3   802  REP802      0.0000
      9  C3        42.1440   39.3210   43.1910 C.3   802  REP802      0.0000
     10  C7        45.5410   39.2850   43.4190 C.2   802  REP802      0.0000
     11  C8        46.8780   39.4400   43.7980 C.2   802  REP802      0.0000
     12  C9        47.7060   38.3920   43.7460 C.2   802  REP802      0.0000
     13  C10       47.2620   37.1570   43.2320 C.ar  802  REP802      0.0000
     14  C11       45.9040   37.0710   42.8770 C.ar  802  REP802      0.0000
     15  C12       45.3750   35.8550   42.3490 C.ar  802  REP802      0.0000
     16  C13       46.1890   34.7270   42.2270 C.ar  802  REP802      0.0000
     17  C14       45.5780   33.5340   41.8760 C.2   802  REP802      0.0000
     18  C15       44.2580   33.4970   41.5690 C.2   802  REP802      0.0000
     19  C16       43.5260   34.6850   41.6370 C.2   802  REP802      0.0000
     20  C17       48.0730   35.9810   43.0810 C.ar  802  REP802      0.0000
     21  C18       47.5740   34.8440   42.5740 C.ar  802  REP802      0.0000
@<TRIPOS>BOND
     1     4     7    1
     2     7     1    1
     3    18    19    2
     4    18    17    1
     5    19     3    1
     6    17    16    2
     7     3    15    1
     8     3     1    1
     9    16    15   ar
    10    16    21   ar
    11     5     8    1
    12    15    14   ar
    13     8     1    1
    14    21    20   ar
    15     1     2    1
    16     1     9    1
    17    14     2    1
    18    14    13   ar
    19     2    10    1
    20    20    13   ar
    21     9     6    1
    22    13    12    2
    23    10    11    2
    24    12    11    1
