@<TRIPOS>MOLECULE
1r1h_BIR_A_1.pdb
 29 30 0 0 0
SMALL
GASTEIGER

@<TRIPOS>ATOM
      1  C3        27.8590   41.3560   29.9450 C.3   2001  BIR2001     0.0311
      2  C2        27.7080   42.3620   31.0920 C.3   2001  BIR2001     0.1712
      3  N1        26.4000   42.9990   31.0150 N.3   2001  BIR2001    -0.1224
      4  P4        29.0160   43.5020   31.0260 P.3   2001  BIR2001     0.2708
      5  O6        30.2300   42.6500   31.2230 O.3   2001  BIR2001    -0.1664
      6  O5        28.9360   44.3150   29.7670 O.2   2001  BIR2001    -0.2855
      7  C7        28.8610   44.5560   32.3940 C.3   2001  BIR2001     0.1002
      8  C8        30.1480   44.7420   33.2110 C.3   2001  BIR2001     0.0923
      9  C10       30.3750   43.5780   34.1410 C.2   2001  BIR2001     0.2422
     10  O23       31.5010   43.1770   34.3910 O.2   2001  BIR2001    -0.2733
     11  N24       29.3100   42.9860   34.6650 N.am  2001  BIR2001    -0.1956
     12  C25       29.5280   41.9220   35.6310 C.3   2001  BIR2001     0.1978
     13  C26       29.4470   42.4720   37.0530 C.3   2001  BIR2001     0.0356
     14  C27       28.5250   40.8350   35.4610 C.2   2001  BIR2001     0.3842
     15  O28       27.6000   40.9770   34.6580 O.co2 2001  BIR2001    -0.2437
     16  O29       28.6470   39.8160   36.1230 O.co2 2001  BIR2001    -0.2437
     17  C9        30.0520   46.0510   34.0090 C.3   2001  BIR2001     0.0360
     18  C11       31.3280   46.3400   34.7470 C.ar  2001  BIR2001    -0.0217
     19  C12       31.3180   46.4890   36.1320 C.ar  2001  BIR2001    -0.0043
     20  C13       32.5010   46.7400   36.8190 C.ar  2001  BIR2001    -0.0003
     21  C14       33.7170   46.8410   36.1310 C.ar  2001  BIR2001    -0.0000
     22  C15       33.7170   46.6950   34.7390 C.ar  2001  BIR2001    -0.0003
     23  C16       32.5330   46.4480   34.0540 C.ar  2001  BIR2001    -0.0043
     24  C17       34.9700   47.0860   36.8550 C.ar  2001  BIR2001    -0.0000
     25  C18       36.1210   46.3480   36.5520 C.ar  2001  BIR2001    -0.0000
     26  C19       37.3100   46.5740   37.2400 C.ar  2001  BIR2001     0.0000
     27  C20       37.3650   47.5440   38.2380 C.ar  2001  BIR2001     0.0000
     28  C21       36.2260   48.2850   38.5470 C.ar  2001  BIR2001     0.0000
     29  C22       35.0370   48.0560   37.8620 C.ar  2001  BIR2001    -0.0000
@<TRIPOS>BOND
     1     6     4    2
     2     1     2    1
     3     3     2    1
     4     4     2    1
     5     4     5    1
     6     4     7    1
     7     7     8    1
     8     8    17    1
     9     8     9    1
    10    17    18    1
    11    23    22   ar
    12    23    18   ar
    13     9    10    2
    14     9    11   am
    15    15    14   ar
    16    11    12    1
    17    22    21   ar
    18    18    19   ar
    19    14    12    1
    20    14    16   ar
    21    12    13    1
    22    21    20   ar
    23    21    24    1
    24    19    20   ar
    25    25    24   ar
    26    25    26   ar
    27    24    29   ar
    28    26    27   ar
    29    29    28   ar
    30    27    28   ar
