@<TRIPOS>MOLECULE
1r1i_TI1_A_1.pdb
 26 26 0 0 0
SMALL
GASTEIGER

@<TRIPOS>ATOM
      1  SG        24.6370   50.5380   28.8190 S.3   2001  TI12001    -0.0732
      2  CA1       25.2310   51.3070   30.3380 C.3   2001  TI12001     0.1356
      3  CB1       26.7050   50.9320   30.5450 C.3   2001  TI12001     0.0209
      4  CG1       27.5970   52.1730   30.6430 C.3   2001  TI12001     0.0014
      5  CD1       27.2820   52.9790   31.9070 C.3   2001  TI12001     0.0000
      6  CE1       28.2230   54.1810   32.0450 C.3   2001  TI12001     0.0000
      7  CF1       27.9920   55.1980   30.9210 C.3   2001  TI12001     0.0000
      8  C1        24.3950   50.7590   31.4460 C.2   2001  TI12001     0.2523
      9  O1        23.2000   50.9830   31.5400 O.2   2001  TI12001    -0.2724
     10  N2        25.0040   49.9480   32.2840 N.am  2001  TI12001    -0.1967
     11  CA2       24.1530   49.4150   33.3220 C.3   2001  TI12001     0.1771
     12  CB2       24.7250   48.1020   33.8160 C.3   2001  TI12001     0.0574
     13  CG2       23.6370   47.5030   34.6660 C.ar  2001  TI12001    -0.0200
     14  CD3       23.7520   47.4760   36.0440 C.ar  2001  TI12001    -0.0042
     15  CD4       22.4960   47.0260   34.0670 C.ar  2001  TI12001    -0.0042
     16  CE3       22.7350   46.9340   36.8160 C.ar  2001  TI12001    -0.0003
     17  CE4       21.4770   46.5000   34.8290 C.ar  2001  TI12001    -0.0003
     18  CZ2       21.5900   46.4370   36.1980 C.ar  2001  TI12001    -0.0000
     19  C2        24.0060   50.3990   34.4340 C.2   2001  TI12001     0.2620
     20  O2        22.9050   50.6510   34.8230 O.2   2001  TI12001    -0.2715
     21  N3        25.0830   50.9940   34.9350 N.am  2001  TI12001    -0.1941
     22  CA3       24.9070   51.9530   36.0020 C.3   2001  TI12001     0.1979
     23  CB3       25.2390   51.3080   37.3420 C.3   2001  TI12001     0.0356
     24  C3        25.8060   53.0910   35.7870 C.2   2001  TI12001     0.3842
     25  O3        26.7660   52.8840   35.1070 O.co2 2001  TI12001    -0.2437
     26  OXT       25.5940   54.2910   36.3130 O.co2 2001  TI12001    -0.2437
@<TRIPOS>BOND
     1     1     2    1
     2     2     3    1
     3     2     8    1
     4     3     4    1
     5     4     5    1
     6     7     6    1
     7     8     9    2
     8     8    10   am
     9     5     6    1
    10    10    11    1
    11    11    12    1
    12    11    19    1
    13    12    13    1
    14    15    13   ar
    15    15    17   ar
    16    19    20    2
    17    19    21   am
    18    13    14   ar
    19    17    18   ar
    20    21    22    1
    21    25    24   ar
    22    24    22    1
    23    24    26   ar
    24    22    23    1
    25    14    16   ar
    26    18    16   ar
