@<TRIPOS>MOLECULE
1r1j_OIR_A_1.pdb
 28 29 0 0 0
SMALL
GASTEIGER

@<TRIPOS>ATOM
      1  O19       30.8520   42.7220   31.3250 O.2   2001  OIR2001    -0.2724
      2  C18       29.6840   43.0690   31.2770 C.2   2001  OIR2001     0.2526
      3  C20       28.8210   42.5200   30.1900 C.3   2001  OIR2001     0.1400
      4  C21       27.3490   42.5030   30.5750 C.3   2001  OIR2001     0.0473
      5  C23       26.9810   41.0750   30.9050 C.ar  2001  OIR2001    -0.0208
      6  C24       25.7650   40.7800   31.5070 C.ar  2001  OIR2001    -0.0042
      7  C25       25.4430   39.4640   31.8130 C.ar  2001  OIR2001    -0.0003
      8  C26       26.3360   38.4400   31.5150 C.ar  2001  OIR2001    -0.0000
      9  C27       27.5500   38.7350   30.9110 C.ar  2001  OIR2001    -0.0003
     10  C28       27.8730   40.0530   30.6080 C.ar  2001  OIR2001    -0.0042
     11  S26       29.1040   43.5790   28.7620 S.3   2001  OIR2001    -0.0729
     12  N9        29.1750   43.9410   32.1370 N.am  2001  OIR2001    -0.1967
     13  C2        30.1140   44.3860   33.1580 C.3   2001  OIR2001     0.1771
     14  C11       30.3430   43.3050   34.1830 C.2   2001  OIR2001     0.2620
     15  O12       31.4780   43.0150   34.4980 O.2   2001  OIR2001    -0.2715
     16  N13       29.2790   42.6990   34.6910 N.am  2001  OIR2001    -0.1941
     17  C14       29.3920   41.7930   35.8250 C.3   2001  OIR2001     0.1979
     18  C15       28.4640   40.6230   35.6670 C.2   2001  OIR2001     0.3842
     19  O16       27.5030   40.7320   34.9240 O.co2 2001  OIR2001    -0.2437
     20  O17       28.6620   39.5700   36.2620 O.co2 2001  OIR2001    -0.2437
     21  C19       29.0570   42.5400   37.1140 C.3   2001  OIR2001     0.0356
     22  C1        29.6130   45.6730   33.8110 C.3   2001  OIR2001     0.0574
     23  C3        30.7880   46.2130   34.5970 C.ar  2001  OIR2001    -0.0200
     24  C4        30.7100   46.3790   35.9770 C.ar  2001  OIR2001    -0.0042
     25  C5        31.8030   46.8660   36.6870 C.ar  2001  OIR2001    -0.0003
     26  C6        32.9820   47.1770   36.0200 C.ar  2001  OIR2001    -0.0000
     27  C7        33.0620   47.0070   34.6470 C.ar  2001  OIR2001    -0.0003
     28  C8        31.9700   46.5270   33.9360 C.ar  2001  OIR2001    -0.0042
@<TRIPOS>BOND
     1    11     3    1
     2     3     4    1
     3     3     2    1
     4     4     5    1
     5    10     5   ar
     6    10     9   ar
     7     5     6   ar
     8     9     8   ar
     9     2     1    2
    10     2    12   am
    11     6     7   ar
    12     8     7   ar
    13    12    13    1
    14    13    22    1
    15    13    14    1
    16    22    23    1
    17    28    23   ar
    18    28    27   ar
    19    14    15    2
    20    14    16   am
    21    23    24   ar
    22    27    26   ar
    23    16    17    1
    24    19    18   ar
    25    18    17    1
    26    18    20   ar
    27    17    21    1
    28    24    25   ar
    29    26    25   ar
