@<TRIPOS>MOLECULE
1r1k_EPH_A_1.pdb
 49 48 0 0 0
SMALL
GASTEIGER

@<TRIPOS>ATOM
      1  C1        22.3850   16.6920  293.8710 C.3   4000  EPH4000     0.2543
      2  C2        22.4770   15.5670  292.8150 C.3   4000  EPH4000     0.2420
      3  C4        20.6160   17.3670  295.4980 C.2   4000  EPH4000     0.3171
      4  O2        21.0690   16.5940  294.4930 O.3   4000  EPH4000    -0.4444
      5  O4        21.2270   18.2500  296.0460 O.2   4000  EPH4000    -0.2501
      6  C18       19.1620   16.9620  295.8750 C.3   4000  EPH4000     0.1096
      7  C19       18.1720   18.1410  295.8370 C.3   4000  EPH4000     0.0116
      8  C20       17.7390   18.4810  294.4140 C.3   4000  EPH4000     0.0006
      9  C21       16.8020   19.6460  294.4230 C.3   4000  EPH4000     0.0000
     10  C22       16.1810   19.9260  293.0610 C.3   4000  EPH4000     0.0000
     11  C23       14.6400   19.8100  293.0580 C.3   4000  EPH4000     0.0000
     12  C24       14.1160   18.3570  292.9650 C.3   4000  EPH4000     0.0000
     13  C25       12.7150   18.2430  292.2920 C.3   4000  EPH4000     0.0000
     14  C26       11.9940   16.8730  292.4500 C.3   4000  EPH4000     0.0000
     15  C27       10.4860   16.9660  292.1360 C.3   4000  EPH4000     0.0000
     16  C28        9.6070   17.0670  293.3940 C.3   4000  EPH4000     0.0003
     17  C29        9.3650   18.5020  293.9150 C.3   4000  EPH4000     0.0047
     18  C30        8.3210   19.3720  293.1470 C.3   4000  EPH4000     0.0257
     19  C31        7.1230   18.6700  292.4480 C.2   4000  EPH4000    -0.0307
     20  C32        6.8030   19.1780  290.9990 C.2   4000  EPH4000    -0.0307
     21  C33        7.6830   20.3050  290.4240 C.3   4000  EPH4000     0.0257
     22  C34        7.1470   20.8390  289.0850 C.3   4000  EPH4000     0.0050
     23  C37       23.8510   15.5550  292.1160 C.3   4000  EPH4000     0.1964
     24  O5        23.9020   14.4220  291.2120 O.3   4000  EPH4000    -0.3100
     25  C3        20.4710   14.8480  291.6720 C.2   4000  EPH4000     0.3171
     26  O1        21.4050   15.7880  291.8750 O.3   4000  EPH4000    -0.4457
     27  O3        20.4290   13.7760  292.2230 O.2   4000  EPH4000    -0.2501
     28  C5        19.4280   15.2690  290.6280 C.3   4000  EPH4000     0.1096
     29  C6        18.0210   14.8190  291.0040 C.3   4000  EPH4000     0.0116
     30  C7        16.9610   15.1810  289.9870 C.3   4000  EPH4000     0.0006
     31  C8        15.8610   16.0370  290.5650 C.3   4000  EPH4000     0.0000
     32  C9        14.7830   16.3720  289.5440 C.3   4000  EPH4000     0.0000
     33  C10       15.0850   17.6350  288.7580 C.3   4000  EPH4000     0.0000
     34  C11       13.8480   18.2200  288.0940 C.3   4000  EPH4000     0.0000
     35  C12       13.3160   19.3980  288.8780 C.3   4000  EPH4000     0.0000
     36  C13       12.7750   20.4910  287.9740 C.3   4000  EPH4000     0.0000
     37  C14       11.3340   20.8710  288.3500 C.3   4000  EPH4000     0.0000
     38  C15       11.1300   22.2980  288.9420 C.3   4000  EPH4000     0.0000
     39  C16       10.8740   22.3750  290.4720 C.3   4000  EPH4000     0.0000
     40  C17       12.1390   22.2470  291.2970 C.3   4000  EPH4000     0.0000
     41  C35       13.0220   23.4500  291.0560 C.3   4000  EPH4000     0.0000
     42  C36       14.2240   23.3750  291.9750 C.3   4000  EPH4000     0.0000
     43  P1        24.0430   14.7860  289.7240 P.3   4000  EPH4000     0.2141
     44  O6        23.7390   13.6190  288.9450 O.2   4000  EPH4000    -0.5172
     45  O7        25.4300   14.4170  289.7620 O.3   4000  EPH4000    -0.4373
     46  O8        24.4010   16.0730  289.1830 O.3   4000  EPH4000    -0.3125
     47  C38       23.1640   16.7100  288.5220 C.3   4000  EPH4000     0.1696
     48  C39       23.3920   16.8650  287.0210 C.3   4000  EPH4000     0.1417
     49  N1        24.4430   17.8650  286.8020 N.3   4000  EPH4000    -0.1286
@<TRIPOS>BOND
     1    49    48    1
     2    48    47    1
     3    36    37    1
     4    36    35    1
     5    34    33    1
     6    34    35    1
     7    37    38    1
     8    47    46    1
     9    33    32    1
    10    38    39    1
    11    44    43    2
    12    22    21    1
    13    46    43    1
    14    32    31    1
    15    43    45    1
    16    43    24    1
    17    30    31    1
    18    30    29    1
    19    21    20    1
    20    39    40    1
    21    28    29    1
    22    28    25    1
    23    20    19    2
    24    41    40    1
    25    41    42    1
    26    24    23    1
    27    25    26    1
    28    25    27    2
    29    26     2    1
    30    23     2    1
    31    15    14    1
    32    15    16    1
    33    13    14    1
    34    13    12    1
    35    19    18    1
    36     2     1    1
    37    12    11    1
    38    11    10    1
    39    10     9    1
    40    18    17    1
    41    16    17    1
    42     1     4    1
    43     8     9    1
    44     8     7    1
    45     4     3    1
    46     3     6    1
    47     3     5    2
    48     7     6    1
