@<TRIPOS>MOLECULE
1r1k_P1A_D_1.pdb
 33 36 0 0 0
SMALL
GASTEIGER

@<TRIPOS>ATOM
      1  C5         4.8230   28.6080  253.7420 C.3   3000  P1A3000     0.0649
      2  C10        4.2440   28.5520  255.2160 C.3   3000  P1A3000     0.0130
      3  C1         3.8410   30.0700  255.7030 C.3   3000  P1A3000     0.0363
      4  C2         5.0520   31.0190  255.4720 C.3   3000  P1A3000     0.1821
      5  C3         5.5940   30.9950  253.9700 C.3   3000  P1A3000     0.1825
      6  C4         5.9500   29.6010  253.4800 C.3   3000  P1A3000     0.0432
      7  C9         5.3520   27.9190  256.2450 C.3   3000  P1A3000     0.0212
      8  C19        2.8460   27.7380  255.0890 C.3   3000  P1A3000     0.0008
      9  C11        4.7390   27.7780  257.7070 C.3   3000  P1A3000     0.0042
     10  C8         5.9860   26.5450  255.5810 C.2   3000  P1A3000    -0.0146
     11  C12        5.5090   26.7840  258.5410 C.3   3000  P1A3000     0.0031
     12  C14        6.5820   25.5760  256.5970 C.3   3000  P1A3000     0.1417
     13  C13        5.6610   25.3260  257.8580 C.3   3000  P1A3000     0.0316
     14  C18        4.2490   24.6870  257.5360 C.3   3000  P1A3000     0.0028
     15  C17        6.5410   24.2840  258.6310 C.3   3000  P1A3000     0.0332
     16  O14        7.8110   26.2620  256.8540 O.3   3000  P1A3000    -0.2215
     17  C15        7.0740   24.1540  256.1650 C.3   3000  P1A3000     0.0344
     18  C20        6.1620   23.5450  259.9460 C.3   3000  P1A3000     0.1545
     19  C16        7.0270   23.3270  257.4660 C.3   3000  P1A3000     0.0055
     20  C22        7.4140   22.5100  260.3720 C.3   3000  P1A3000     0.1796
     21  O20        5.0470   22.7930  259.6320 O.3   3000  P1A3000    -0.2231
     22  C21        5.7020   24.5870  261.1150 C.3   3000  P1A3000     0.0356
     23  C6         5.3150   27.1790  253.2630 C.2   3000  P1A3000     0.1722
     24  C7         5.9180   26.2210  254.2640 C.2   3000  P1A3000     0.0313
     25  O3         4.6540   31.4200  253.1800 O.3   3000  P1A3000    -0.2204
     26  O2         4.7490   32.3350  255.8550 O.3   3000  P1A3000    -0.2204
     27  O22        7.0740   21.7270  261.5190 O.3   3000  P1A3000    -0.2205
     28  C23        8.7930   23.2250  260.7490 C.3   3000  P1A3000     0.0355
     29  C24        9.8030   22.1020  261.0360 C.3   3000  P1A3000     0.0027
     30  C25       11.2740   22.3830  260.9790 C.3   3000  P1A3000     0.0001
     31  C26       11.7520   22.1690  259.5830 C.3   3000  P1A3000     0.0000
     32  C27       11.9330   21.4340  261.9720 C.3   3000  P1A3000     0.0000
     33  O6         5.2780   26.8120  252.1390 O.2   3000  P1A3000    -0.2914
@<TRIPOS>BOND
     1    33    23    2
     2    25     5    1
     3    23     1    1
     4    23    24    1
     5     6     1    1
     6     6     5    1
     7     1     2    1
     8     5     4    1
     9    24    10    2
    10     8     2    1
    11     2     3    1
    12     2     7    1
    13     4     3    1
    14     4    26    1
    15    10     7    1
    16    10    12    1
    17    17    12    1
    18    17    19    1
    19     7     9    1
    20    12    16    1
    21    12    13    1
    22    19    15    1
    23    14    13    1
    24     9    11    1
    25    13    11    1
    26    13    15    1
    27    15    18    1
    28    31    30    1
    29    21    18    1
    30    18    20    1
    31    18    22    1
    32    20    28    1
    33    20    27    1
    34    28    29    1
    35    30    29    1
    36    30    32    1
