@<TRIPOS>MOLECULE
1r1l_III_C_1.pdb
 40 39 0 0 0
SMALL
GASTEIGER

@<TRIPOS>ATOM
      1  C         15.3550    0.3030   -2.8660 C.2     1  ACE1        0.2423
      2  O         14.8160   -0.2180   -1.8750 O.2     1  ACE1       -0.2733
      3  CH3       14.7190    0.1940   -4.2500 C.3     1  ACE1        0.0964
      4  N         16.5470    0.8950   -2.8150 N.am    2  SER2       -0.1950
      5  CA        17.3820    0.8190   -1.6260 C.3     2  SER2        0.2054
      6  C         18.1110    2.1200   -1.3970 C.2     2  SER2        0.2643
      7  O         18.6810    2.7000   -2.3270 O.2     2  SER2       -0.2714
      8  CB        18.4190   -0.2940   -1.7540 C.3     2  SER2        0.2130
      9  OG        17.8080   -1.5650   -1.8340 O.3     2  SER2       -0.2179
     10  N         18.0870    2.5830   -0.1540 N.am    3  GLU3       -0.1963
     11  CA        18.7870    3.8000    0.2130 C.3     3  GLU3        0.1733
     12  C         19.6750    3.4700    1.4200 C.2     3  GLU3        0.2616
     13  O         19.1990    2.9730    2.4440 O.2     3  GLU3       -0.2715
     14  CB        17.7870    4.9080    0.5500 C.3     3  GLU3        0.0429
     15  CG        18.4280    6.2150    0.9770 C.3     3  GLU3        0.1163
     16  CD        17.4050    7.2870    1.3120 C.2     3  GLU3        0.3649
     17  OE1       16.2850    6.9320    1.7350 O.co2   3  GLU3       -0.2457
     18  OE2       17.7190    8.4860    1.1720 O.co2   3  GLU3       -0.2457
     19  N         20.9720    3.7220    1.2820 N.am    4  ALA4       -0.1963
     20  CA        21.9150    3.4510    2.3610 C.3     4  ALA4        0.1728
     21  C         22.9370    4.5770    2.5320 C.2     4  ALA4        0.2616
     22  O         23.3800    5.1990    1.5610 O.2     4  ALA4       -0.2715
     23  CB        22.6360    2.1080    2.1110 C.3     4  ALA4        0.0334
     24  N         23.3010    4.8300    3.7830 N.am    5  ALA5       -0.1963
     25  CA        24.2710    5.8680    4.1030 C.3     5  ALA5        0.1728
     26  C         25.0880    5.4300    5.3090 C.2     5  ALA5        0.2616
     27  O         24.6140    4.6470    6.1360 O.2     5  ALA5       -0.2715
     28  CB        23.5480    7.1890    4.4070 C.3     5  ALA5        0.0334
     29  N         26.3120    5.9320    5.4150 N.am    6  ALA6       -0.1963
     30  CA        27.1700    5.5870    6.5440 C.3     6  ALA6        0.1728
     31  C         28.1880    6.6660    6.8290 C.2     6  ALA6        0.2617
     32  O         28.6070    7.3960    5.9360 O.2     6  ALA6       -0.2715
     33  CB        27.8940    4.2760    6.2820 C.3     6  ALA6        0.0334
     34  N         28.5820    6.7670    8.0880 N.am    7  SER7       -0.1914
     35  CA        29.5900    7.7350    8.4770 C.3     7  SER7        0.2304
     36  C         30.3450    7.2430    9.7010 C.2     7  SER7        0.3869
     37  O         29.8690    6.2850   10.3530 O.co2   7  SER7       -0.2437
     38  CB        28.9600    9.0960    8.7750 C.3     7  SER7        0.2152
     39  OG        29.9700   10.0360    9.0860 O.3     7  SER7       -0.2179
     40  OXT       31.4010    7.8400    9.9930 O.co2   7  SER7       -0.2437
@<TRIPOS>BOND
     1     3     1    1
     2     1     4   am
     3     1     2    2
     4     4     5    1
     5     7     6    2
     6     9     8    1
     7     8     5    1
     8     5     6    1
     9     6    10   am
    10    10    11    1
    11    11    14    1
    12    11    12    1
    13    14    15    1
    14    15    16    1
    15    18    16   ar
    16    19    12   am
    17    19    20    1
    18    16    17   ar
    19    12    13    2
    20    22    21    2
    21    23    20    1
    22    20    21    1
    23    21    24   am
    24    24    25    1
    25    25    28    1
    26    25    26    1
    27    26    29   am
    28    26    27    2
    29    29    30    1
    30    32    31    2
    31    33    30    1
    32    30    31    1
    33    31    34   am
    34    34    35    1
    35    35    38    1
    36    35    36    1
    37    38    39    1
    38    36    40   ar
    39    36    37   ar
