@<TRIPOS>MOLECULE
1r1n_CNF_F_1.pdb
 15 16 0 0 0
SMALL
GASTEIGER

@<TRIPOS>ATOM
      1 FE1       -22.7600   27.2860   12.9740 Fe    400  CNF400      0.0000
      2 FE2       -24.9280   29.1980   14.3400 Fe    400  CNF400      0.0000
      3 FE3       -25.4690   25.9820   14.0640 Fe    400  CNF400      0.0000
      4  OU       -24.7220   27.5920   13.1490 O.3   400  CNF400      0.0000
      5  O3A      -26.1590   24.8320   15.6780 O.3   400  CNF400      0.0000
      6  O3B      -25.8510   24.2170   12.9800 O.3   400  CNF400      0.0000
      7  O3U      -27.3940   26.6290   13.5350 O.3   400  CNF400      0.0000
      8  O23      -25.5940   27.5470   15.4550 O.3   400  CNF400      0.0000
      9  O13      -23.4060   25.5960   14.0390 O.3   400  CNF400      0.0000
     10  O12      -22.8630   28.7760   14.4350 O.3   400  CNF400      0.0000
     11  O1A      -21.5320   27.3050   14.2390 O.3   400  CNF400      0.0000
     12  O1B      -21.6330   28.9650   11.9680 O.3   400  CNF400      0.0000
     13  O1U      -22.8340   26.3400   11.0720 O.3   400  CNF400      0.0000
     14  O2A      -24.0400   30.1330   15.8090 O.3   400  CNF400      0.0000
     15  O2B      -26.6150   29.1780   13.0000 O.3   400  CNF400      0.0000
@<TRIPOS>BOND
     1    13     1    1
     2    12     1    1
     3     1     4    1
     4     1     9    1
     5     1    11    1
     6     1    10    1
     7     6     3    1
     8    15     2    1
     9     4     3    1
    10     7     3    1
    11     9     3    1
    12     3     8    1
    13     3     5    1
    14     2    10    1
    15     2     8    1
    16     2    14    1
