@<TRIPOS>MOLECULE
1r1n_CN1_C_1.pdb
 15 15 0 0 0
SMALL
GASTEIGER

@<TRIPOS>ATOM
      1 FE1        16.2610  -33.1380  -13.0280 Fe    400  CN1400      0.0000
      2 FE2        14.8640  -35.0940  -15.4140 Fe    400  CN1400      0.0000
      3 FE3        13.2760  -33.2130  -13.3110 Fe    400  CN1400      0.0000
      4  O3A       12.2640  -31.4180  -13.7190 O.3   400  CN1400      0.0000
      5  O3B       12.2600  -33.3010  -11.4730 O.3   400  CN1400      0.0000
      6  O3U       11.6950  -34.3290  -14.1300 O.3   400  CN1400      0.0000
      7  O23       13.2840  -33.7130  -15.3510 O.3   400  CN1400      0.0000
      8  O13       14.7360  -31.7100  -13.2120 O.3   400  CN1400      0.0000
      9  O12       16.4010  -33.7120  -15.0430 O.3   400  CN1400      0.0000
     10  O1A       17.3810  -31.3910  -13.3510 O.3   400  CN1400      0.0000
     11  O1B       17.9260  -33.2520  -11.7540 O.3   400  CN1400      0.0000
     12  O1U       15.1210  -32.2590  -11.4970 O.3   400  CN1400      0.0000
     13  O2A       14.6960  -34.5620  -17.4390 O.3   400  CN1400      0.0000
     14  O2B       13.0260  -36.1060  -15.5160 O.3   400  CN1400      0.0000
     15  O2U       15.7190  -36.8610  -16.2940 O.3   400  CN1400      0.0000
@<TRIPOS>BOND
     1    13     2    1
     2    15     2    1
     3    14     2    1
     4     2     7    1
     5     2     9    1
     6     7     3    1
     7     9     1    1
     8     6     3    1
     9     4     3    1
    10    10     1    1
    11     3     8    1
    12     3     5    1
    13     8     1    1
    14     1    11    1
    15     1    12    1
