@<TRIPOS>MOLECULE
1r1n_CNB_A_1.pdb
 14 14 0 0 0
SMALL
GASTEIGER

@<TRIPOS>ATOM
      1 FE1        13.2840   51.1430  -14.6690 Fe    400  CNB400      0.0000
      2 FE2        10.3410   51.4550  -12.9730 Fe    400  CNB400      0.0000
      3 FE3        13.0590   53.5570  -12.6540 Fe    400  CNB400      0.0000
      4  O3A       12.5820   55.5910  -12.4370 O.3   400  CNB400      0.0000
      5  O3B       15.0210   54.2220  -12.9930 O.3   400  CNB400      0.0000
      6  O3U       13.4680   53.3510  -10.6030 O.3   400  CNB400      0.0000
      7  O23       10.9730   53.3950  -12.4720 O.3   400  CNB400      0.0000
      8  O13       13.1070   53.2360  -14.7280 O.3   400  CNB400      0.0000
      9  O12       11.1950   51.1170  -14.8650 O.3   400  CNB400      0.0000
     10  O1A       13.8290   51.1490  -16.6980 O.3   400  CNB400      0.0000
     11  O1B       12.7420   49.2680  -15.4490 O.3   400  CNB400      0.0000
     12  O2A        8.6510   52.3830  -13.8080 O.3   400  CNB400      0.0000
     13  O2B        9.0360   50.9590  -11.4040 O.3   400  CNB400      0.0000
     14  O2U        9.7610   49.6400  -13.8650 O.3   400  CNB400      0.0000
@<TRIPOS>BOND
     1    10     1    1
     2    11     1    1
     3     9     1    1
     4     9     2    1
     5     8     1    1
     6     8     3    1
     7    14     2    1
     8    12     2    1
     9     5     3    1
    10     2     7    1
    11     2    13    1
    12     3     7    1
    13     3     4    1
    14     3     6    1
