@<TRIPOS>MOLECULE
1r1o_SDC_A_1.pdb
 13 12 0 0 0
SMALL
GASTEIGER

@<TRIPOS>ATOM
      1  O01        2.8040   50.7000   -3.2340 O.co2 1000  SDC1000    -0.2440
      2  NP2        6.1780   50.1760   -2.0890 N.3   1000  SDC1000    -0.1199
      3  C03        5.0470   49.6780   -2.9350 C.3   1000  SDC1000     0.2050
      4  C04        4.0040   50.7900   -3.2370 C.2   1000  SDC1000     0.3827
      5  O05        4.6620   51.9340   -3.5320 O.co2 1000  SDC1000    -0.2440
      6  C06        4.4660   48.5030   -2.1530 C.3   1000  SDC1000     0.0882
      7  S07        3.7370   47.3650   -3.3530 S.3   1000  SDC1000    -0.1362
      8  C08        2.5430   46.5170   -2.2440 C.3   1000  SDC1000     0.0847
      9  C09        2.6830   45.0230   -2.5660 C.3   1000  SDC1000     0.1837
     10  S10        1.2440   44.0910   -2.0310 S.O2  1000  SDC1000     0.0748
     11  O11        0.7560   43.2130   -3.0060 O.2   1000  SDC1000    -0.1548
     12  N12        1.7990   43.1630   -0.8040 N.3   1000  SDC1000     0.0346
     13  O13        0.2890   44.8490   -1.2640 O.2   1000  SDC1000    -0.1548
@<TRIPOS>BOND
     1     5     4   ar
     2     7     8    1
     3     7     6    1
     4     4     1   ar
     5     4     3    1
     6    11    10    2
     7     3     6    1
     8     3     2    1
     9     9     8    1
    10     9    10    1
    11    10    13    2
    12    10    12    1
