@<TRIPOS>MOLECULE
1r1r_III_P_1.pdb
 27 27 0 0 0
SMALL
GASTEIGER

@<TRIPOS>ATOM
      1  N         -4.4840   66.0070   30.9540 N.3     1  TYR1       -0.1227
      2  CA        -3.9700   64.9250   30.0670 C.3     1  TYR1        0.1736
      3  C         -3.5750   65.4770   28.7040 C.2     1  TYR1        0.2595
      4  O         -4.0750   66.5220   28.2900 O.2     1  TYR1       -0.2718
      5  CB        -4.9750   63.7960   29.9010 C.3     1  TYR1        0.0548
      6  CG        -6.3870   64.1570   29.5530 C.ar    1  TYR1       -0.0200
      7  CD1       -7.2630   64.6360   30.5200 C.ar    1  TYR1       -0.0009
      8  CD2       -6.8560   64.0000   28.2560 C.ar    1  TYR1       -0.0009
      9  CE1       -8.5700   64.9630   30.1980 C.ar    1  TYR1        0.0417
     10  CE2       -8.1580   64.3220   27.9280 C.ar    1  TYR1        0.0417
     11  CZ        -9.0040   64.8020   28.9010 C.ar    1  TYR1        0.1957
     12  OH       -10.3050   65.1300   28.6120 O.3     1  TYR1       -0.2866
     13  N         -2.6820   64.7920   27.9940 N.am    2  LEU2       -0.1966
     14  CA        -2.2800   65.2680   26.6920 C.3     2  LEU2        0.1727
     15  C         -2.7200   64.3420   25.5640 C.2     2  LEU2        0.2612
     16  O         -1.8890   63.6200   25.0230 O.2     2  LEU2       -0.2715
     17  CB        -0.8250   65.5510   26.4180 C.3     2  LEU2        0.0311
     18  CG         0.3470   65.4080   27.3370 C.3     2  LEU2        0.0022
     19  CD1        1.4560   64.6490   26.6290 C.3     2  LEU2        0.0001
     20  CD2        0.8110   66.7960   27.7600 C.3     2  LEU2        0.0001
     21  N         -3.9800   64.4290   25.1990 N.am    3  VAL3       -0.2031
     22  CA        -4.5240   63.7080   24.0530 C.3     3  VAL3        0.1282
     23  C         -4.2940   62.2150   23.9800 C.3     3  VAL3        0.2035
     24  O         -5.3720   61.5530   23.8580 O.3     3  VAL3       -0.2185
     25  CB        -4.0540   64.4990   22.7990 C.3     3  VAL3        0.0226
     26  CG1       -4.1900   63.7200   21.5130 C.3     3  VAL3        0.0018
     27  CG2       -4.8800   65.7870   22.7620 C.3     3  VAL3        0.0018
@<TRIPOS>BOND
     1    26    25    1
     2    27    25    1
     3    25    22    1
     4    24    23    1
     5    23    22    1
     6    22    21    1
     7    16    15    2
     8    21    15   am
     9    15    14    1
    10    17    14    1
    11    17    18    1
    12    19    18    1
    13    14    13    1
    14    18    20    1
    15    10     8   ar
    16    10    11   ar
    17    13     3   am
    18     8     6   ar
    19     4     3    2
    20    12    11    1
    21     3     2    1
    22    11     9   ar
    23     6     5    1
    24     6     7   ar
    25     5     2    1
    26     2     1    1
    27     9     7   ar
