@<TRIPOS>MOLECULE
1r1x_HEM_A_1.pdb
 43 50 0 0 0
SMALL
GASTEIGER

@<TRIPOS>ATOM
      1 FE         28.8560   13.2540   63.1070 Fe    143  HEM143      0.0000
      2  CHA       27.7920   10.4220   64.7600 C.2   143  HEM143      0.0000
      3  CHB       32.1300   12.6710   64.0290 C.2   143  HEM143      0.0000
      4  CHC       29.8740   15.9860   61.2610 C.2   143  HEM143      0.0000
      5  CHD       25.5200   14.0260   62.2970 C.2   143  HEM143      0.0000
      6  NA        29.7590   11.8870   64.2490 N.2   143  HEM143      0.0000
      7  C1A       29.1730   10.7770   64.8790 C.2   143  HEM143      0.0000
      8  C2A       30.1880   10.1510   65.7000 C.2   143  HEM143      0.0000
      9  C3A       31.4050   10.7400   65.4650 C.2   143  HEM143      0.0000
     10  C4A       31.1320   11.8460   64.5810 C.2   143  HEM143      0.0000
     11  CMA       32.8000   10.2780   65.8820 C.3   143  HEM143      0.0000
     12  CAA       30.0310    9.0260   66.6640 C.3   143  HEM143      0.0000
     13  CBA       29.5970    7.8170   65.8830 C.3   143  HEM143      0.0000
     14  CGA       29.6510    6.5730   66.7120 C.2   143  HEM143      0.0000
     15  O1A       29.0100    6.5560   67.7880 O.co2 143  HEM143      0.0000
     16  O2A       30.3370    5.6200   66.2900 O.co2 143  HEM143      0.0000
     17  NB        30.6490   14.0980   62.6520 N.ar  143  HEM143      0.0000
     18  C1B       31.9070   13.6870   63.0930 C.ar  143  HEM143      0.0000
     19  C2B       32.9560   14.5610   62.5770 C.ar  143  HEM143      0.0000
     20  C3B       32.3400   15.5490   61.8590 C.ar  143  HEM143      0.0000
     21  C4B       30.8880   15.2490   61.9070 C.ar  143  HEM143      0.0000
     22  CMB       34.4460   14.3050   62.7790 C.3   143  HEM143      0.0000
     23  CAB       32.8680   16.6560   61.1670 C.3   143  HEM143      0.0000
     24  CBB       34.2320   17.0000   60.9600 C.3   143  HEM143      0.0000
     25  NC        27.9030   14.6210   61.9250 N.2   143  HEM143      0.0000
     26  C1C       28.4840   15.6780   61.2760 C.2   143  HEM143      0.0000
     27  C2C       27.4620   16.5440   60.7140 C.2   143  HEM143      0.0000
     28  C3C       26.2080   16.0260   60.9990 C.2   143  HEM143      0.0000
     29  C4C       26.5130   14.8100   61.7370 C.2   143  HEM143      0.0000
     30  CMC       27.8340   17.7500   59.8700 C.3   143  HEM143      0.0000
     31  CAC       24.9310   16.5070   60.6440 C.3   143  HEM143      0.0000
     32  CBC       24.7150   17.9380   60.6870 C.3   143  HEM143      0.0000
     33  ND        27.0240   12.4510   63.5140 N.ar  143  HEM143      0.0000
     34  C1D       25.7600   12.9560   63.1670 C.ar  143  HEM143      0.0000
     35  C2D       24.7230   12.1490   63.7670 C.ar  143  HEM143      0.0000
     36  C3D       25.3430   11.1130   64.4070 C.ar  143  HEM143      0.0000
     37  C4D       26.7810   11.2680   64.2200 C.ar  143  HEM143      0.0000
     38  CMD       23.2430   12.4650   63.7060 C.3   143  HEM143      0.0000
     39  CAD       24.6690   10.0220   65.2130 C.3   143  HEM143      0.0000
     40  CBD       24.3790   10.5420   66.6230 C.3   143  HEM143      0.0000
     41  CGD       23.5320    9.5840   67.4380 C.2   143  HEM143      0.0000
     42  O1D       22.4290    9.2270   66.9740 O.co2 143  HEM143      0.0000
     43  O2D       23.9660    9.1880   68.5410 O.co2 143  HEM143      0.0000
@<TRIPOS>BOND
     1    30    27    1
     2    31    32    1
     3    31    28    1
     4    27    28    2
     5    27    26    1
     6    24    23    1
     7    28    29    1
     8    23    20    1
     9     4    26    2
    10     4    21    1
    11    26    25    1
    12    29    25    2
    13    29     5    1
    14    20    21   ar
    15    20    19   ar
    16    21    17   ar
    17    25     1    1
    18     5    34    2
    19    19    22    1
    20    19    18   ar
    21    17    18   ar
    22    17     1    1
    23    18     3    1
    24     1    33    1
    25     1     6    1
    26    34    33   ar
    27    34    35   ar
    28    33    37   ar
    29    38    35    1
    30    35    36   ar
    31     3    10    2
    32    37    36   ar
    33    37     2    2
    34     6    10    1
    35     6     7    2
    36    36    39    1
    37    10     9    1
    38     2     7    1
    39     7     8    1
    40    39    40    1
    41     9     8    2
    42     9    11    1
    43     8    12    1
    44    13    12    1
    45    13    14    1
    46    16    14   ar
    47    40    41    1
    48    14    15   ar
    49    42    41   ar
    50    41    43   ar
