@<TRIPOS>MOLECULE
1r1y_HEM_A_1.pdb
 43 50 0 0 0
SMALL
GASTEIGER

@<TRIPOS>ATOM
      1 FE         17.6880   18.7670   23.3800 Fe    143  HEM143      0.0000
      2  CHA       18.0850   18.9580   20.0640 C.2   143  HEM143      0.0000
      3  CHB       20.4860   20.9290   23.7640 C.2   143  HEM143      0.0000
      4  CHC       17.9510   17.9690   26.6930 C.2   143  HEM143      0.0000
      5  CHD       15.9480   15.6830   22.9510 C.2   143  HEM143      0.0000
      6  NA        19.0500   19.7280   22.1680 N.2   143  HEM143      0.0000
      7  C1A       18.9660   19.7720   20.8050 C.2   143  HEM143      0.0000
      8  C2A       19.9040   20.7640   20.2630 C.2   143  HEM143      0.0000
      9  C3A       20.5510   21.3810   21.2540 C.2   143  HEM143      0.0000
     10  C4A       20.0530   20.6670   22.4640 C.2   143  HEM143      0.0000
     11  CMA       21.7070   22.3870   21.2620 C.3   143  HEM143      0.0000
     12  CAA       20.2620   20.9060   18.7980 C.3   143  HEM143      0.0000
     13  CBA       19.3490   21.9690   18.2090 C.3   143  HEM143      0.0000
     14  CGA       19.8050   22.4040   16.8180 C.2   143  HEM143      0.0000
     15  O1A       19.9940   21.5310   15.9490 O.co2 143  HEM143      0.0000
     16  O2A       19.9680   23.6160   16.6130 O.co2 143  HEM143      0.0000
     17  NB        18.8680   19.4670   24.9570 N.ar  143  HEM143      0.0000
     18  C1B       19.9330   20.3400   24.9450 C.ar  143  HEM143      0.0000
     19  C2B       20.4690   20.5380   26.2900 C.ar  143  HEM143      0.0000
     20  C3B       19.6890   19.7410   27.1230 C.ar  143  HEM143      0.0000
     21  C4B       18.7410   19.0470   26.2810 C.ar  143  HEM143      0.0000
     22  CMB       21.5570   21.5680   26.5900 C.3   143  HEM143      0.0000
     23  CAB       19.6320   19.6660   28.5150 C.3   143  HEM143      0.0000
     24  CBB       20.7130   19.8630   29.4090 C.3   143  HEM143      0.0000
     25  NC        16.9620   17.2400   24.5850 N.2   143  HEM143      0.0000
     26  C1C       17.1160   17.1610   25.9310 C.2   143  HEM143      0.0000
     27  C2C       16.3870   16.0420   26.4910 C.2   143  HEM143      0.0000
     28  C3C       15.8770   15.3780   25.4370 C.2   143  HEM143      0.0000
     29  C4C       16.2550   16.1200   24.2670 C.2   143  HEM143      0.0000
     30  CMC       16.4120   15.5800   27.9870 C.3   143  HEM143      0.0000
     31  CAC       15.1530   14.1510   25.4150 C.3   143  HEM143      0.0000
     32  CBC       15.3740   13.0170   26.2570 C.3   143  HEM143      0.0000
     33  ND        17.0880   17.5830   21.8480 N.ar  143  HEM143      0.0000
     34  C1D       16.3170   16.4080   21.8360 C.ar  143  HEM143      0.0000
     35  C2D       16.0100   15.9800   20.4740 C.ar  143  HEM143      0.0000
     36  C3D       16.5970   16.9240   19.6720 C.ar  143  HEM143      0.0000
     37  C4D       17.2770   17.9070   20.5200 C.ar  143  HEM143      0.0000
     38  CMD       15.2110   14.7460   20.0750 C.3   143  HEM143      0.0000
     39  CAD       16.5860   16.8910   18.1450 C.3   143  HEM143      0.0000
     40  CBD       17.7980   16.1540   17.6140 C.3   143  HEM143      0.0000
     41  CGD       17.8280   16.1150   16.0940 C.2   143  HEM143      0.0000
     42  O1D       18.9190   16.3140   15.5380 O.co2 143  HEM143      0.0000
     43  O2D       16.7690   15.8790   15.4670 O.co2 143  HEM143      0.0000
@<TRIPOS>BOND
     1    43    41   ar
     2    42    41   ar
     3    15    14   ar
     4    41    40    1
     5    16    14   ar
     6    14    13    1
     7    40    39    1
     8    39    36    1
     9    13    12    1
    10    12     8    1
    11    36    35   ar
    12    36    37   ar
    13     2    37    2
    14     2     7    1
    15    38    35    1
    16     8     7    1
    17     8     9    2
    18    35    34   ar
    19    37    33   ar
    20     7     6    2
    21     9    11    1
    22     9    10    1
    23    34    33   ar
    24    34     5    2
    25    33     1    1
    26     6    10    1
    27     6     1    1
    28    10     3    2
    29     5    29    1
    30     1    25    1
    31     1    17    1
    32     3    18    1
    33    29    25    2
    34    29    28    1
    35    25    26    1
    36    18    17   ar
    37    18    19   ar
    38    17    21   ar
    39    31    28    1
    40    31    32    1
    41    28    27    2
    42    26    27    1
    43    26     4    2
    44    21     4    1
    45    21    20   ar
    46    19    22    1
    47    19    20   ar
    48    27    30    1
    49    20    23    1
    50    23    24    1
