@<TRIPOS>MOLECULE
1r20_HWG_D_1.pdb
 29 31 0 0 0
SMALL
GASTEIGER

@<TRIPOS>ATOM
      1  C1        59.7150   26.3570   14.9240 C.ar  2000  HWG2000    -0.0220
      2  C2        59.5020   26.7620   13.5970 C.ar  2000  HWG2000     0.0003
      3  C3        60.5670   27.3410   12.7630 C.ar  2000  HWG2000     0.0545
      4  C4        61.8630   27.4900   13.3900 C.ar  2000  HWG2000     0.0003
      5  C5        62.0610   27.0630   14.7460 C.ar  2000  HWG2000    -0.0220
      6  C6        60.9750   26.5070   15.4700 C.ar  2000  HWG2000    -0.0085
      7  C7        60.7380   30.6170   15.0360 C.ar  2000  HWG2000     0.0076
      8  C8        61.0380   31.1440   16.2970 C.ar  2000  HWG2000     0.0402
      9  C9        60.2580   32.1810   16.8590 C.ar  2000  HWG2000     0.1721
     10  C10       59.0640   32.7860   16.1290 C.ar  2000  HWG2000     0.1685
     11  C11       58.7700   32.2600   14.8590 C.ar  2000  HWG2000     0.0196
     12  C12       59.6470   31.1140   14.2780 C.ar  2000  HWG2000     0.0558
     13  O13       60.5660   32.7060   18.1110 O.3   2000  HWG2000    -0.4684
     14  C14       59.6030   33.4700   18.8390 C.3   2000  HWG2000     0.2526
     15  C15       58.2300   33.6180   18.1650 C.3   2000  HWG2000     0.2526
     16  O16       58.3370   33.8120   16.7630 O.3   2000  HWG2000    -0.4687
     17  C26       58.6220   25.7860   15.7410 C.3   2000  HWG2000     0.0310
     18  C30       63.3920   27.2090   15.3900 C.3   2000  HWG2000     0.0310
     19  C34       57.6060   32.8200   14.1440 C.3   2000  HWG2000     0.0345
     20  C38       60.3080   27.8270   11.2820 C.2   2000  HWG2000     0.2660
     21  C39       59.3670   30.4350   13.0000 C.2   2000  HWG2000     0.2826
     22  N40       60.1310   29.2380   11.0600 N.am  2000  HWG2000    -0.1869
     23  N41       60.3870   30.0260   12.1410 N.am  2000  HWG2000    -0.1036
     24  O42       60.1080   27.0280   10.3970 O.2   2000  HWG2000    -0.2683
     25  O43       58.2130   30.1090   12.7560 O.2   2000  HWG2000    -0.2667
     26  C45       59.5540   29.7440    9.6940 C.3   2000  HWG2000     0.0807
     27  C46       59.3730   31.2700    9.6010 C.3   2000  HWG2000     0.0218
     28  C50       58.1600   29.1390    9.4770 C.3   2000  HWG2000     0.0218
     29  C54       60.4550   29.3930    8.5210 C.3   2000  HWG2000     0.0218
@<TRIPOS>BOND
     1    29    26    1
     2    28    26    1
     3    27    26    1
     4    26    22    1
     5    24    20    2
     6    22    20   am
     7    22    23    1
     8    20     3    1
     9    23    21   am
    10    25    21    2
    11     3     4   ar
    12     3     2   ar
    13    21    12    1
    14     4     5   ar
    15     2     1   ar
    16    19    11    1
    17    12    11   ar
    18    12     7   ar
    19     5    18    1
    20     5     6   ar
    21    11    10   ar
    22     1     6   ar
    23     1    17    1
    24     7     8   ar
    25    10    16    1
    26    10     9   ar
    27     8     9   ar
    28    16    15    1
    29     9    13    1
    30    13    14    1
    31    15    14    1
