@<TRIPOS>MOLECULE
1r20_EPH_A_1.pdb
 49 48 0 0 0
SMALL
GASTEIGER

@<TRIPOS>ATOM
      1  C1        28.8030   45.0610   16.2740 C.3   4000  EPH4000     0.2543
      2  C2        29.7550   45.4980   15.3700 C.3   4000  EPH4000     0.2420
      3  C4        28.3840   45.4400   18.7120 C.2   4000  EPH4000     0.3174
      4  O2        29.1050   45.6580   17.5770 O.3   4000  EPH4000    -0.4444
      5  O4        27.4020   44.7240   18.8080 O.2   4000  EPH4000    -0.2501
      6  C18       28.9790   46.2530   19.9110 C.3   4000  EPH4000     0.1142
      7  C19       28.8660   45.5710   21.2850 C.3   4000  EPH4000     0.0373
      8  C20       29.8660   44.6680   21.4190 C.2   4000  EPH4000    -0.0301
      9  C21       30.0030   43.9190   22.5380 C.2   4000  EPH4000    -0.0307
     10  C22       30.9280   42.6870   22.5410 C.3   4000  EPH4000     0.0257
     11  C23       32.2830   42.9620   22.3270 C.3   4000  EPH4000     0.0047
     12  C24       33.0550   43.7610   23.3930 C.3   4000  EPH4000     0.0003
     13  C25       34.4710   44.2190   22.9470 C.3   4000  EPH4000     0.0000
     14  C26       34.7730   45.7340   23.0790 C.3   4000  EPH4000     0.0003
     15  C27       36.1790   46.0430   23.6320 C.3   4000  EPH4000     0.0047
     16  C28       36.1300   46.9920   24.8410 C.3   4000  EPH4000     0.0260
     17  C29       36.8710   46.4730   26.0740 C.2   4000  EPH4000    -0.0261
     18  C30       36.2150   45.2650   26.7930 C.2   4000  EPH4000    -0.0049
     19  C31       36.6350   45.0060   28.2630 C.2   4000  EPH4000    -0.0049
     20  C32       37.7460   43.9070   28.4710 C.2   4000  EPH4000    -0.0261
     21  C33       38.3250   43.1730   27.2230 C.3   4000  EPH4000     0.0260
     22  C34       39.7550   42.6100   27.4520 C.3   4000  EPH4000     0.0050
     23  C37       29.5110   44.9470   13.9300 C.3   4000  EPH4000     0.1964
     24  O5        30.5710   45.4490   13.0350 O.3   4000  EPH4000    -0.3100
     25  C3        31.9650   46.0140   16.0740 C.2   4000  EPH4000     0.3171
     26  O1        31.0410   45.1000   15.8680 O.3   4000  EPH4000    -0.4457
     27  O3        31.8170   47.1850   15.8980 O.2   4000  EPH4000    -0.2501
     28  C5        33.2850   45.4360   16.5700 C.3   4000  EPH4000     0.1096
     29  C6        33.7700   46.1120   17.8410 C.3   4000  EPH4000     0.0116
     30  C7        35.1110   45.6120   18.3260 C.3   4000  EPH4000     0.0006
     31  C8        35.0610   44.6480   19.4700 C.3   4000  EPH4000     0.0000
     32  C9        36.4800   44.2700   19.8460 C.3   4000  EPH4000     0.0000
     33  C10       36.6010   42.9100   20.4670 C.3   4000  EPH4000     0.0000
     34  C11       37.8000   42.8320   21.3780 C.3   4000  EPH4000     0.0000
     35  C12       37.8290   41.5180   22.1180 C.3   4000  EPH4000     0.0000
     36  C13       37.6040   41.7320   23.6100 C.3   4000  EPH4000     0.0000
     37  C14       38.1950   40.5890   24.4430 C.3   4000  EPH4000     0.0000
     38  C15       37.2570   39.9810   25.5320 C.3   4000  EPH4000     0.0000
     39  C16       36.3710   38.7930   25.0680 C.3   4000  EPH4000     0.0000
     40  C17       34.9040   38.9980   25.3790 C.3   4000  EPH4000     0.0000
     41  C35       34.3550   40.1960   24.5940 C.3   4000  EPH4000     0.0000
     42  C36       33.1640   39.7570   23.7430 C.3   4000  EPH4000     0.0000
     43  P1        30.4380   44.9820   11.5440 P.3   4000  EPH4000     0.2141
     44  O6        31.2500   43.7980   11.3190 O.3   4000  EPH4000    -0.4373
     45  O7        31.5650   45.7780   11.1520 O.2   4000  EPH4000    -0.5172
     46  O8        29.6220   45.6740   10.5550 O.3   4000  EPH4000    -0.3125
     47  C38       28.5580   44.7350    9.9570 C.3   4000  EPH4000     0.1696
     48  C39       27.5180   44.3320   11.0150 C.3   4000  EPH4000     0.1417
     49  N1        27.8770   43.0100   11.5680 N.3   4000  EPH4000    -0.1286
@<TRIPOS>BOND
     1    47    46    1
     2    47    48    1
     3    46    43    1
     4    48    49    1
     5    45    43    2
     6    44    43    1
     7    43    24    1
     8    24    23    1
     9    23     2    1
    10     2    26    1
    11     2     1    1
    12    26    25    1
    13    27    25    2
    14    25    28    1
    15     1     4    1
    16    28    29    1
    17     4     3    1
    18    29    30    1
    19    30    31    1
    20     3     5    2
    21     3     6    1
    22    31    32    1
    23    32    33    1
    24     6     7    1
    25    33    34    1
    26     7     8    1
    27    34    35    1
    28     8     9    2
    29    35    36    1
    30    11    10    1
    31    11    12    1
    32     9    10    1
    33    13    14    1
    34    13    12    1
    35    14    15    1
    36    36    37    1
    37    15    16    1
    38    42    41    1
    39    37    38    1
    40    41    40    1
    41    16    17    1
    42    39    40    1
    43    39    38    1
    44    17    18    2
    45    18    19    1
    46    21    22    1
    47    21    20    1
    48    19    20    2
