@<TRIPOS>MOLECULE
1r27_MGD_A_1.pdb
 47 52 0 0 0
SMALL
GASTEIGER

@<TRIPOS>ATOM
      1  PB         8.0840  105.4090   79.0060 P.3   5801  MGD5801     0.2189
      2  O1B        7.5610  105.6830   80.3880 O.3   5801  MGD5801    -0.4371
      3  O2B        9.4180  105.9450   78.5690 O.2   5801  MGD5801    -0.5170
      4  O3B        8.2730  103.8380   78.8010 O.3   5801  MGD5801    -0.2703
      5  O3A        9.2250  101.7950   77.7310 O.3   5801  MGD5801    -0.3112
      6  PA         7.9940  102.8380   77.5190 P.3   5801  MGD5801     0.2189
      7  O1A        8.3060  103.5920   76.2540 O.2   5801  MGD5801    -0.5170
      8  O2A        6.6470  102.1910   77.6560 O.3   5801  MGD5801    -0.4371
      9  O5'        6.9820  105.7960   77.8730 O.3   5801  MGD5801    -0.3112
     10  C5'        5.5920  106.2390   78.1580 C.3   5801  MGD5801     0.1813
     11  C4'        5.2620  107.4960   77.3650 C.3   5801  MGD5801     0.1799
     12  O4'        3.8650  107.6160   77.7280 O.3   5801  MGD5801    -0.3326
     13  C3'        5.9030  108.8190   77.9330 C.3   5801  MGD5801     0.2158
     14  O3'        6.5370  109.6110   76.9080 O.3   5801  MGD5801    -0.2175
     15  C2'        4.7060  109.5610   78.6430 C.3   5801  MGD5801     0.2310
     16  O2'        4.7870  110.9840   78.6470 O.3   5801  MGD5801    -0.2158
     17  C1'        3.4710  108.9800   77.9230 C.3   5801  MGD5801     0.2293
     18  N9         2.2390  108.8290   78.6910 N.pl3 5801  MGD5801    -0.2354
     19  C8         2.1000  108.6230   80.0800 C.3   5801  MGD5801     0.2246
     20  N7         0.8340  108.5030   80.4530 N.2   5801  MGD5801    -0.2322
     21  C5         0.0880  108.6260   79.2770 C.2   5801  MGD5801     0.2182
     22  C6        -1.3420  108.5710   79.0480 C.1   5801  MGD5801     0.2372
     23  O6        -2.2620  108.3870   79.9050 O.2   5801  MGD5801    -0.2069
     24  N1        -1.7140  108.7350   77.6840 N.2   5801  MGD5801    -0.2485
     25  C2        -0.7770  108.9390   76.6480 C.1   5801  MGD5801     0.2531
     26  N2        -1.3020  109.0720   75.3780 N.pl3 5801  MGD5801    -0.0226
     27  N3         0.5750  108.9990   76.8340 N.2   5801  MGD5801    -0.3074
     28  C4         0.9180  108.8330   78.1660 C.2   5801  MGD5801     0.2300
     29  C10        9.3060  100.8510   78.9040 C.3   5801  MGD5801     0.1798
     30  C11       10.1010   99.6010   78.4640 C.3   5801  MGD5801     0.1623
     31  O11       11.5190   99.9970   78.0520 O.3   5801  MGD5801    -0.3309
     32  C12       10.2120   98.5160   79.6370 C.3   5801  MGD5801     0.1141
     33  S12        8.8440   98.3240   80.7670 S.3   5801  MGD5801    -0.0753
     34  C13       11.2950   97.7410   79.7970 C.2   5801  MGD5801     0.0309
     35  S13       11.4580   96.5980   81.0360 S.2   5801  MGD5801    -0.0569
     36  C14       12.5040   97.8010   78.8770 C.3   5801  MGD5801     0.1817
     37  N15       13.6670   98.2290   79.7270 N.2   5801  MGD5801    -0.2414
     38  C16       14.8700   98.2790   78.9140 C.2   5801  MGD5801     0.2467
     39  C17       16.1320   98.0100   79.5150 C.1   5801  MGD5801     0.2441
     40  O17       16.3330   97.6290   80.7180 O.2   5801  MGD5801    -0.2063
     41  N18       17.2700   98.2010   78.6690 N.2   5801  MGD5801    -0.2474
     42  C19       17.1680   98.6190   77.3530 C.1   5801  MGD5801     0.2608
     43  N19       18.3290   98.7650   76.6350 N.pl3 5801  MGD5801    -0.0220
     44  N20       15.9600   98.8860   76.7540 N.2   5801  MGD5801    -0.2682
     45  C21       14.8180   98.7030   77.5610 C.1   5801  MGD5801     0.1293
     46  N22       13.5680   98.9640   76.9250 N.2   5801  MGD5801    -0.1763
     47  C23       12.2420   98.7430   77.6540 C.3   5801  MGD5801     0.2567
@<TRIPOS>BOND
     1    26    25    1
     2     7     6    2
     3    43    42    1
     4    25    27    2
     5    25    24    2
     6    44    42    2
     7    44    45    2
     8    27    28    2
     9    14    13    1
    10    46    45    2
    11    46    47    1
    12    42    41    2
    13    11    12    1
    14    11    13    1
    15    11    10    1
    16     6     8    1
    17     6     5    1
    18     6     4    1
    19    45    38    1
    20    47    31    1
    21    47    36    1
    22    24    22    2
    23    12    17    1
    24     5    29    1
    25     9    10    1
    26     9     1    1
    27    17    15    1
    28    17    18    1
    29    13    15    1
    30    31    30    1
    31    28    18    1
    32    28    21    1
    33    30    29    1
    34    30    32    1
    35     3     1    2
    36    15    16    1
    37    41    39    2
    38    18    19    1
    39     4     1    1
    40    36    37    1
    41    36    34    1
    42    38    39    1
    43    38    37    2
    44     1     2    1
    45    22    21    1
    46    22    23    2
    47    21    20    2
    48    39    40    2
    49    32    34    1
    50    32    33    1
    51    34    35    2
    52    19    20    1
