@<TRIPOS>MOLECULE
1r2c_HEM_C_1.pdb
 43 50 0 0 0
SMALL
GASTEIGER

@<TRIPOS>ATOM
      1  CHA      102.0160   31.8600  -18.2250 C.2   1201  HEM1201     0.0000
      2  CHB      100.9410   35.5130  -15.2110 C.2   1201  HEM1201     0.0000
      3  CHC       97.9880   32.6180  -12.7110 C.2   1201  HEM1201     0.0000
      4  CHD       99.1410   28.9440  -15.6480 C.2   1201  HEM1201     0.0000
      5  C1A      102.0700   33.0840  -17.5470 C.2   1201  HEM1201     0.0000
      6  C2A      102.9580   34.1810  -17.8650 C.2   1201  HEM1201     0.0000
      7  C3A      102.6150   35.2140  -17.0700 C.2   1201  HEM1201     0.0000
      8  C4A      101.5580   34.7470  -16.1970 C.2   1201  HEM1201     0.0000
      9  CMA      103.2640   36.5920  -17.1230 C.3   1201  HEM1201     0.0000
     10  CAA      104.0540   34.2150  -18.9090 C.3   1201  HEM1201     0.0000
     11  CBA      105.4480   33.9510  -18.3880 C.3   1201  HEM1201     0.0000
     12  CGA      106.3600   33.4070  -19.4680 C.2   1201  HEM1201     0.0000
     13  O1A      106.1440   32.2540  -19.9000 O.co2 1201  HEM1201     0.0000
     14  O2A      107.2840   34.1320  -19.8900 O.co2 1201  HEM1201     0.0000
     15  C1B      100.0130   35.0590  -14.2820 C.ar  1201  HEM1201     0.0000
     16  C2B       99.2960   35.8960  -13.3450 C.ar  1201  HEM1201     0.0000
     17  C3B       98.4610   35.0890  -12.6530 C.ar  1201  HEM1201     0.0000
     18  C4B       98.6760   33.7440  -13.1400 C.ar  1201  HEM1201     0.0000
     19  CMB       99.4150   37.4060  -13.1550 C.3   1201  HEM1201     0.0000
     20  CAB       97.4230   35.3460  -11.5460 C.3   1201  HEM1201     0.0000
     21  CBB       96.5650   36.5840  -11.7760 C.3   1201  HEM1201     0.0000
     22  C1C       98.0750   31.3500  -13.2680 C.2   1201  HEM1201     0.0000
     23  C2C       97.4720   30.1630  -12.7100 C.2   1201  HEM1201     0.0000
     24  C3C       97.8600   29.1230  -13.4820 C.2   1201  HEM1201     0.0000
     25  C4C       98.6350   29.6700  -14.5740 C.2   1201  HEM1201     0.0000
     26  CMC       96.5950   30.1090  -11.4610 C.3   1201  HEM1201     0.0000
     27  CAC       97.6800   27.6250  -13.3710 C.3   1201  HEM1201     0.0000
     28  CBC       96.2270   27.1820  -13.2910 C.3   1201  HEM1201     0.0000
     29  C1D       99.9520   29.4370  -16.6640 C.ar  1201  HEM1201     0.0000
     30  C2D      100.3470   28.7040  -17.8450 C.ar  1201  HEM1201     0.0000
     31  C3D      101.0590   29.5520  -18.6180 C.ar  1201  HEM1201     0.0000
     32  C4D      101.2290   30.7700  -17.8580 C.ar  1201  HEM1201     0.0000
     33  CMD      100.0170   27.2620  -18.2000 C.3   1201  HEM1201     0.0000
     34  CAD      101.4980   29.1840  -20.0380 C.3   1201  HEM1201     0.0000
     35  CBD      100.6370   29.7950  -21.1450 C.3   1201  HEM1201     0.0000
     36  CGD      100.8980   29.1700  -22.5120 C.2   1201  HEM1201     0.0000
     37  O1D      100.4050   29.7120  -23.5270 O.co2 1201  HEM1201     0.0000
     38  O2D      101.5910   28.1320  -22.5670 O.co2 1201  HEM1201     0.0000
     39  NA       101.3130   33.4130  -16.4400 N.2   1201  HEM1201     0.0000
     40  NB        99.5880   33.7530  -14.1740 N.ar  1201  HEM1201     0.0000
     41  NC        98.8340   31.0160  -14.3730 N.2   1201  HEM1201     0.0000
     42  ND       100.4280   30.7260  -16.7360 N.ar  1201  HEM1201     0.0000
     43 FE        100.0520   32.2180  -15.4420 Fe    1201  HEM1201     0.0000
@<TRIPOS>BOND
     1    37    36   ar
     2    38    36   ar
     3    36    35    1
     4    35    34    1
     5    34    31    1
     6    13    12   ar
     7    14    12   ar
     8    12    11    1
     9    10    11    1
    10    10     6    1
    11    31    32   ar
    12    31    30   ar
    13     1    32    2
    14     1     5    1
    15    33    30    1
    16     6     5    1
    17     6     7    2
    18    32    42   ar
    19    30    29   ar
    20     5    39    2
    21     9     7    1
    22     7     8    1
    23    42    29   ar
    24    42    43    1
    25    29     4    2
    26    39     8    1
    27    39    43    1
    28     8     2    2
    29     4    25    1
    30    43    41    1
    31    43    40    1
    32     2    15    1
    33    25    41    2
    34    25    24    1
    35    41    22    1
    36    15    40   ar
    37    15    16   ar
    38    40    18   ar
    39    24    27    1
    40    24    23    2
    41    27    28    1
    42    16    19    1
    43    16    17   ar
    44    22     3    2
    45    22    23    1
    46    18     3    1
    47    18    17   ar
    48    23    26    1
    49    17    20    1
    50    21    20    1
