@<TRIPOS>MOLECULE
1r2c_UQ2_L_1.pdb
 23 23 0 0 0
SMALL
GASTEIGER

@<TRIPOS>ATOM
      1  C1        41.6120  -21.9820    3.8100 C.2   502  UQ2502      0.2285
      2  C2        40.2220  -22.0850    3.3570 C.2   502  UQ2502      0.2140
      3  C3        39.9090  -21.8400    2.0440 C.2   502  UQ2502      0.2140
      4  C4        40.9520  -21.4770    1.1000 C.2   502  UQ2502      0.2282
      5  C5        42.3370  -21.3810    1.5470 C.2   502  UQ2502      0.0198
      6  C6        42.6710  -21.6330    2.8620 C.2   502  UQ2502      0.0235
      7  CM2       39.3150  -23.7250    4.9000 C.3   502  UQ2502      0.2528
      8  CM3       37.4540  -22.1870    1.9470 C.3   502  UQ2502      0.2528
      9  CM5       43.3540  -20.9750    0.4880 C.3   502  UQ2502      0.0343
     10  C7        44.1360  -21.6300    3.3150 C.3   502  UQ2502      0.0548
     11  C8        44.5730  -20.3890    3.8470 C.2   502  UQ2502     -0.0298
     12  C9        45.7030  -20.0790    4.5930 C.2   502  UQ2502     -0.0475
     13  C10       46.7760  -21.0480    5.1050 C.3   502  UQ2502      0.0260
     14  C11       45.9810  -18.6370    4.9950 C.3   502  UQ2502      0.0264
     15  C12       46.1740  -17.6790    3.8180 C.3   502  UQ2502      0.0297
     16  C13       47.3230  -17.9250    2.9280 C.2   502  UQ2502     -0.0342
     17  C14       48.0070  -17.0510    2.0900 C.2   502  UQ2502     -0.0478
     18  C15       47.6980  -15.5440    1.9470 C.3   502  UQ2502      0.0260
     19  C16       49.1990  -17.4880    1.2230 C.3   502  UQ2502      0.0260
     20  O1        41.8950  -22.1570    4.9910 O.2   502  UQ2502     -0.2835
     21  O2        39.3130  -22.4690    4.3080 O.2   502  UQ2502     -0.4652
     22  O3        38.7010  -21.9140    1.4080 O.2   502  UQ2502     -0.4652
     23  O4        40.6710  -21.2570   -0.0460 O.2   502  UQ2502     -0.2836
@<TRIPOS>BOND
     1    23     4    2
     2     9     5    1
     3     4     5    1
     4     4     3    1
     5    19    17    1
     6    22     8    1
     7    22     3    1
     8     5     6    2
     9    18    17    1
    10     3     2    2
    11    17    16    2
    12     6    10    1
    13     6     1    1
    14    16    15    1
    15    10    11    1
    16     2     1    1
    17     2    21    1
    18     1    20    2
    19    15    14    1
    20    11    12    2
    21    21     7    1
    22    12    14    1
    23    12    13    1
