@<TRIPOS>MOLECULE
1r2c_MQ7_M_1.pdb
 48 49 0 0 0
SMALL
GASTEIGER

@<TRIPOS>ATOM
      1  C1        30.6770  -15.2140   -7.7170 C.2   501  MQ7501      0.1915
      2  O1        31.3730  -15.1680   -6.6960 O.2   501  MQ7501     -0.2869
      3  C2        30.9880  -14.3610   -8.8550 C.2   501  MQ7501      0.0165
      4  C2M       32.1500  -13.3930   -8.6620 C.3   501  MQ7501      0.0342
      5  C3        30.2390  -14.4410  -10.0180 C.2   501  MQ7501      0.0202
      6  C4        29.1260  -15.3820  -10.0960 C.2   501  MQ7501      0.1918
      7  O4        28.4590  -15.4500  -11.1120 O.2   501  MQ7501     -0.2869
      8  C5        28.8110  -16.2210   -8.9560 C.ar  501  MQ7501      0.0417
      9  C6        27.7300  -17.0970   -9.0310 C.ar  501  MQ7501      0.0033
     10  C7        27.4090  -17.8950   -7.9490 C.ar  501  MQ7501      0.0001
     11  C8        28.1700  -17.8140   -6.7990 C.ar  501  MQ7501      0.0001
     12  C9        29.2450  -16.9330   -6.7380 C.ar  501  MQ7501      0.0033
     13  C10       29.5600  -16.1400   -7.8150 C.ar  501  MQ7501      0.0417
     14  C11       30.5620  -13.5640  -11.2280 C.3   501  MQ7501      0.0547
     15  C12       31.4320  -14.2540  -12.1670 C.2   501  MQ7501     -0.0298
     16  C13       31.3390  -14.9450  -13.3730 C.2   501  MQ7501     -0.0475
     17  C14       30.0690  -15.1790  -14.2280 C.3   501  MQ7501      0.0260
     18  C15       32.6090  -15.5480  -14.0270 C.3   501  MQ7501      0.0264
     19  C16       33.1810  -14.7790  -15.2240 C.3   501  MQ7501      0.0297
     20  C17       33.5540  -13.4150  -14.9190 C.2   501  MQ7501     -0.0342
     21  C18       34.6570  -12.6360  -15.2060 C.2   501  MQ7501     -0.0478
     22  C19       35.8970  -13.0470  -16.0310 C.3   501  MQ7501      0.0260
     23  C20       34.6930  -11.2170  -14.6820 C.3   501  MQ7501      0.0263
     24  C21       34.7940  -10.1850  -15.7750 C.3   501  MQ7501      0.0297
     25  C22       33.5140   -9.9590  -16.3970 C.2   501  MQ7501     -0.0342
     26  C23       33.2360   -9.5490  -17.6940 C.2   501  MQ7501     -0.0478
     27  C24       34.3120   -9.2220  -18.7690 C.3   501  MQ7501      0.0260
     28  C25       31.8140   -9.3480  -18.1450 C.3   501  MQ7501      0.0263
     29  C26       31.6610   -7.8540  -18.2230 C.3   501  MQ7501      0.0297
     30  C27       30.3700   -7.5880  -18.7190 C.2   501  MQ7501     -0.0342
     31  C28       29.5920   -6.4580  -18.5140 C.2   501  MQ7501     -0.0478
     32  C29       30.0060   -5.2590  -17.6260 C.3   501  MQ7501      0.0260
     33  C30       28.2100   -6.3650  -19.1440 C.3   501  MQ7501      0.0263
     34  C31       28.0000   -5.1320  -19.9970 C.3   501  MQ7501      0.0297
     35  C32       26.5780   -4.9930  -20.1660 C.2   501  MQ7501     -0.0342
     36  C33       25.8690   -3.8050  -20.2020 C.2   501  MQ7501     -0.0478
     37  C34       26.5950   -2.4480  -20.1060 C.3   501  MQ7501      0.0260
     38  C35       24.3470   -3.6960  -20.3500 C.3   501  MQ7501      0.0263
     39  C36       23.5590   -3.5840  -19.0430 C.3   501  MQ7501      0.0297
     40  C37       22.1490   -3.2790  -19.3260 C.2   501  MQ7501     -0.0342
     41  C38       21.3460   -2.2130  -18.9270 C.2   501  MQ7501     -0.0478
     42  C39       21.8880   -1.1370  -17.9980 C.3   501  MQ7501      0.0260
     43  C40       19.8660   -1.9190  -19.2840 C.3   501  MQ7501      0.0263
     44  C41       19.4580   -1.5300  -20.7190 C.3   501  MQ7501      0.0297
     45  C42       19.3910   -2.7030  -21.6320 C.2   501  MQ7501     -0.0342
     46  C43       20.1110   -3.2210  -22.7150 C.2   501  MQ7501     -0.0478
     47  C44       21.3440   -2.5700  -23.4040 C.3   501  MQ7501      0.0260
     48  C45       19.7250   -4.5570  -23.4120 C.3   501  MQ7501      0.0260
@<TRIPOS>BOND
     1    48    46    1
     2    47    46    1
     3    46    45    2
     4    45    44    1
     5    44    43    1
     6    38    36    1
     7    38    39    1
     8    36    35    2
     9    36    37    1
    10    35    34    1
    11    34    33    1
    12    40    39    1
    13    40    41    2
    14    43    41    1
    15    33    31    1
    16    41    42    1
    17    27    26    1
    18    30    31    2
    19    30    29    1
    20    31    32    1
    21    29    28    1
    22    28    26    1
    23    26    25    2
    24    25    24    1
    25    22    21    1
    26    24    23    1
    27    19    20    1
    28    19    18    1
    29    21    20    2
    30    21    23    1
    31    17    16    1
    32    18    16    1
    33    16    15    2
    34    15    14    1
    35    14     5    1
    36     7     6    2
    37     6     5    1
    38     6     8    1
    39     5     3    2
    40     9     8   ar
    41     9    10   ar
    42     8    13   ar
    43     3     4    1
    44     3     1    1
    45    10    11   ar
    46    13     1    1
    47    13    12   ar
    48     1     2    2
    49    11    12   ar
