@<TRIPOS>MOLECULE
1r2c_NS5_M_1.pdb
 40 39 0 0 0
SMALL
GASTEIGER

@<TRIPOS>ATOM
      1  C1        59.0400  -13.4540    2.8590 C.3   600  NS5600      0.0000
      2  CM1       59.0540  -13.7790    4.3460 C.3   600  NS5600      0.0000
      3  CM2       58.8500  -14.7150    2.0290 C.3   600  NS5600      0.0000
      4  C2        60.3100  -12.7060    2.4420 C.3   600  NS5600      0.0000
      5  C3        61.6030  -13.4690    2.6940 C.3   600  NS5600      0.0000
      6  C4        62.8120  -12.6590    2.2520 C.3   600  NS5600      0.0000
      7  C5        64.1030  -13.3440    2.5240 C.3   600  NS5600      0.0000
      8  C6        64.7150  -13.0400    3.8440 C.3   600  NS5600      0.0000
      9  C7        64.5750  -14.3070    1.7100 C.3   600  NS5600      0.0000
     10  C8        65.9460  -14.8980    1.8200 C.3   600  NS5600      0.0000
     11  C9        67.0550  -13.9320    1.3500 C.3   600  NS5600      0.0000
     12  C10       67.2980  -13.9870   -0.1560 C.3   600  NS5600      0.0000
     13  C11       68.3010  -14.9970   -0.5850 C.3   600  NS5600      0.0000
     14  C12       66.8140  -13.0220   -0.9750 C.3   600  NS5600      0.0003
     15  C13       66.5840  -13.0750   -2.4180 C.3   600  NS5600      0.0043
     16  C14       65.6960  -13.8590   -3.0680 C.3   600  NS5600      0.0220
     17  C15       65.0050  -13.4930   -4.3340 C.2   600  NS5600     -0.0439
     18  C16       63.9620  -12.4250   -4.1740 C.3   600  NS5600      0.0264
     19  C17       65.1220  -14.2260   -5.4660 C.2   600  NS5600     -0.0085
     20  C18       64.3750  -14.0330   -6.7100 C.2   600  NS5600     -0.0007
     21  C19       64.4120  -14.7190   -7.8760 C.2   600  NS5600     -0.0003
     22  C20       65.3010  -15.8240   -8.2720 C.2   600  NS5600     -0.0043
     23  C21       65.0340  -16.7080   -9.2680 C.2   600  NS5600     -0.0218
     24  C22       63.6810  -16.8310   -9.9160 C.3   600  NS5600      0.0310
     25  C23       66.0670  -17.6700   -9.7170 C.2   600  NS5600     -0.0043
     26  C24       65.8520  -18.7590  -10.4860 C.2   600  NS5600     -0.0006
     27  C25       66.8660  -19.7160  -10.9320 C.2   600  NS5600     -0.0043
     28  C26       66.6920  -21.0060  -11.3000 C.2   600  NS5600     -0.0218
     29  C27       65.3500  -21.6230  -11.4600 C.3   600  NS5600      0.0310
     30  C28       67.8340  -21.8240  -11.7380 C.2   600  NS5600     -0.0043
     31  C29       67.7930  -23.1570  -11.9430 C.2   600  NS5600     -0.0010
     32  C30       68.9000  -23.9980  -12.3850 C.2   600  NS5600     -0.0085
     33  C31       68.8850  -25.3180  -12.6960 C.2   600  NS5600     -0.0436
     34  C32       67.6300  -26.1230  -12.8080 C.3   600  NS5600      0.0264
     35  C33       70.0950  -25.9470  -13.3390 C.3   600  NS5600      0.0267
     36  C34       71.2420  -26.1550  -12.3500 C.3   600  NS5600      0.0297
     37  C35       72.5190  -26.6230  -13.0220 C.2   600  NS5600     -0.0342
     38  C36       72.7570  -27.8810  -13.4530 C.2   600  NS5600     -0.0478
     39  CM3       74.0210  -28.2590  -14.1320 C.3   600  NS5600      0.0260
     40  CM4       71.7980  -28.9960  -13.2470 C.3   600  NS5600      0.0260
@<TRIPOS>BOND
     1    39    38    1
     2    38    40    1
     3    38    37    2
     4    35    33    1
     5    35    36    1
     6    37    36    1
     7    34    33    1
     8    33    32    2
     9    32    31    1
    10    31    30    2
    11    30    28    1
    12    29    28    1
    13    28    27    2
    14    27    26    1
    15    26    25    2
    16    24    23    1
    17    25    23    1
    18    23    22    2
    19    22    21    1
    20    21    20    2
    21    20    19    1
    22    19    17    2
    23    17    18    1
    24    17    16    1
    25    16    15    1
    26    15    14    1
    27    14    12    1
    28    13    12    1
    29    12    11    1
    30    11    10    1
    31     9    10    1
    32     9     7    1
    33     3     1    1
    34     6     7    1
    35     6     5    1
    36     4     5    1
    37     4     1    1
    38     7     8    1
    39     1     2    1
