@<TRIPOS>MOLECULE
1r2n_RET_A_1.pdb
 48 48 0 0 0
SMALL
GASTEIGER

@<TRIPOS>ATOM
      1  C1        -6.7700   -7.3380    2.2610 C.3   999  RET999     -0.0245
      2  C2        -7.5170   -8.5040    2.9600 C.3   999  RET999     -0.0470
      3  C3        -8.4520   -9.2510    2.0120 C.3   999  RET999     -0.0520
      4  C4        -9.5080   -8.2770    1.5020 C.3   999  RET999     -0.0462
      5  C5        -9.0700   -6.8330    1.2860 C.3   999  RET999     -0.0155
      6  C6        -7.7300   -6.4100    1.4850 C.3   999  RET999      0.0101
      7  C7        -7.3360   -5.1440    0.9630 C.2   999  RET999     -0.0757
      8  C8        -6.0170   -4.6480    0.9820 C.2   999  RET999     -0.0622
      9  C9        -5.5670   -3.4610    0.3760 C.2   999  RET999     -0.0507
     10  C10       -4.1710   -3.2970    0.3410 C.2   999  RET999     -0.0588
     11  C11       -3.4750   -2.2630   -0.3060 C.2   999  RET999     -0.0613
     12  C12       -2.0760   -2.3900   -0.3250 C.2   999  RET999     -0.0591
     13  C13       -1.1650   -1.4570   -0.8390 C.2   999  RET999     -0.0541
     14  C14        0.1990   -1.8160   -0.7670 C.2   999  RET999     -0.0769
     15  C15        1.2770   -1.0450   -1.2270 C.3   999  RET999     -0.0087
     16  C16       -6.0480   -6.5990    3.4170 C.3   999  RET999     -0.0590
     17  C17       -5.7180   -7.9910    1.3360 C.3   999  RET999     -0.0590
     18  C18      -10.1700   -5.8190    1.0460 C.3   999  RET999     -0.0582
     19  C19       -6.5010   -2.4600   -0.2730 C.3   999  RET999     -0.0397
     20  C20       -1.6610   -0.1300   -1.3930 C.3   999  RET999     -0.0400
     21  H21       -8.1170   -8.1100    3.7820 H     999  RET999      0.0271
     22  H22       -6.8030   -9.2170    3.3780 H     999  RET999      0.0271
     23  H31       -7.8960   -9.6680    1.1730 H     999  RET999      0.0266
     24  H32       -8.9340  -10.0740    2.5430 H     999  RET999      0.0266
     25  H41      -10.3330   -8.2790    2.2040 H     999  RET999      0.0271
     26  H42       -9.9040   -8.6700    0.5700 H     999  RET999      0.0271
     27  H7        -8.0640   -4.5530    0.4310 H     999  RET999      0.0578
     28  H8        -5.2440   -5.2430    1.4240 H     999  RET999      0.0617
     29  H10       -3.5730   -4.0810    0.7840 H     999  RET999      0.0620
     30  H11       -3.9880   -1.4370   -0.7770 H     999  RET999      0.0618
     31  H12       -1.6850   -3.3300    0.0260 H     999  RET999      0.0620
     32  H14        0.4450   -2.8030   -0.3800 H     999  RET999      0.0578
     33  H15        1.1440   -0.0770   -1.6900 H     999  RET999      0.0355
     34 H161       -4.9960   -6.4360    3.1900 H     999  RET999      0.0235
     35 H162       -6.5300   -5.6390    3.6020 H     999  RET999      0.0235
     36 H163       -6.0940   -7.1490    4.3520 H     999  RET999      0.0235
     37 H171       -6.2030   -8.4420    0.4720 H     999  RET999      0.0235
     38 H172       -5.0010   -7.2680    0.9630 H     999  RET999      0.0235
     39 H173       -5.1680   -8.7640    1.8720 H     999  RET999      0.0235
     40 H181      -10.1200   -5.0460    1.8120 H     999  RET999      0.0236
     41 H182      -10.0750   -5.3720    0.0600 H     999  RET999      0.0236
     42 H183      -11.1370   -6.3130    1.1050 H     999  RET999      0.0236
     43 H191       -7.4860   -2.4900    0.1860 H     999  RET999      0.0278
     44 H192       -6.1150   -1.4530   -0.1440 H     999  RET999      0.0278
     45 H193       -6.5880   -2.6860   -1.3330 H     999  RET999      0.0278
     46 H201       -2.0140   -0.2750   -2.4140 H     999  RET999      0.0277
     47 H202       -2.4970    0.2370   -0.7990 H     999  RET999      0.0277
     48 H203       -0.8940    0.6390   -1.3660 H     999  RET999      0.0277
@<TRIPOS>BOND
     1    46    20    1
     2    33    15    1
     3    20    48    1
     4    20    13    1
     5    20    47    1
     6    45    19    1
     7    15    14    1
     8    13    14    2
     9    13    12    1
    10    30    11    1
    11    14    32    1
    12    12    11    2
    13    12    31    1
    14    11    10    1
    15    19    44    1
    16    19    43    1
    17    19     9    1
    18    41    18    1
    19    10     9    2
    20    10    29    1
    21     9     8    1
    22    27     7    1
    23    37    17    1
    24    26     4    1
    25    38    17    1
    26     7     8    2
    27     7     6    1
    28     8    28    1
    29    18    42    1
    30    18     5    1
    31    18    40    1
    32    23     3    1
    33     5     6    1
    34     5     4    1
    35    17    39    1
    36    17     1    1
    37     6     1    1
    38     4     3    1
    39     4    25    1
    40     3    24    1
    41     3     2    1
    42     1     2    1
    43     1    16    1
    44     2    22    1
    45     2    21    1
    46    34    16    1
    47    16    35    1
    48    16    36    1
