@<TRIPOS>MOLECULE
1r2q_GNP_A_1.pdb
 32 34 0 0 0
SMALL
GASTEIGER

@<TRIPOS>ATOM
      1  PG         1.1680   -1.3290   43.2500 P.3   200  GNP200      0.4884
      2  O1G        0.6770   -2.1540   44.4120 O.3   200  GNP200     -0.1240
      3  O2G        1.2470    0.1470   43.6000 O.3   200  GNP200     -0.1240
      4  O3G        0.3990   -1.5840   42.0020 O.2   200  GNP200     -0.2331
      5  N3B        2.7660   -1.8400   43.0000 N.3   200  GNP200     -0.0163
      6  PB         3.7310   -1.2000   41.8100 P.3   200  GNP200      0.4669
      7  O1B        3.5230   -1.8520   40.4960 O.2   200  GNP200     -0.2351
      8  O2B        3.6530    0.3110   41.8360 O.3   200  GNP200     -0.1253
      9  O3A        5.2190   -1.6690   42.2790 O.3   200  GNP200     -0.2360
     10  PA         6.3560   -0.7600   43.0140 P.3   200  GNP200      0.2220
     11  O1A        6.9010    0.2890   42.0760 O.2   200  GNP200     -0.5170
     12  O2A        5.8210   -0.3670   44.3560 O.3   200  GNP200     -0.4370
     13  O5'        7.5010   -1.8430   43.1530 O.3   200  GNP200     -0.3111
     14  C5'        7.3110   -3.0790   43.8760 C.3   200  GNP200      0.1813
     15  C4'        8.6490   -3.5520   44.3850 C.3   200  GNP200      0.1799
     16  O4'        9.4600   -3.9250   43.2250 O.3   200  GNP200     -0.3326
     17  C3'        9.4620   -2.5000   45.1440 C.3   200  GNP200      0.2158
     18  O3'       10.2050   -3.1980   46.1740 O.3   200  GNP200     -0.2175
     19  C2'       10.4310   -1.9840   44.1150 C.3   200  GNP200      0.2310
     20  O2'       11.6820   -1.5450   44.6410 O.3   200  GNP200     -0.2158
     21  C1'       10.6970   -3.2210   43.2320 C.3   200  GNP200      0.2293
     22  N9        11.0360   -2.8990   41.8630 N.pl3 200  GNP200     -0.2354
     23  C8        10.3620   -2.0910   40.9870 C.3   200  GNP200      0.2246
     24  N7        10.8750   -2.0420   39.7830 N.2   200  GNP200     -0.2322
     25  C5        11.9730   -2.8890   39.8890 C.2   200  GNP200      0.2182
     26  C6        12.9500   -3.2110   38.8970 C.1   200  GNP200      0.2372
     27  O6        13.0530   -2.8410   37.7320 O.2   200  GNP200     -0.2069
     28  N1        13.8810   -4.1410   39.3910 N.2   200  GNP200     -0.2485
     29  C2        13.8980   -4.6350   40.6650 C.1   200  GNP200      0.2531
     30  N2        14.8780   -5.5080   40.9450 N.pl3 200  GNP200     -0.0226
     31  N3        13.0020   -4.3060   41.5940 N.2   200  GNP200     -0.3074
     32  C4        12.0640   -3.4370   41.1270 C.2   200  GNP200      0.2300
@<TRIPOS>BOND
     1    27    26    2
     2    26    28    2
     3    26    25    1
     4    28    29    2
     5    24    25    2
     6    24    23    1
     7    25    32    1
     8     7     6    2
     9    29    30    1
    10    29    31    2
    11    23    22    1
    12    32    31    2
    13    32    22    1
    14     6     8    1
    15     6     9    1
    16     6     5    1
    17    22    21    1
    18     4     1    2
    19    11    10    2
    20     9    10    1
    21     5     1    1
    22    10    13    1
    23    10    12    1
    24    13    14    1
    25    16    21    1
    26    16    15    1
    27    21    19    1
    28     1     3    1
    29     1     2    1
    30    14    15    1
    31    19    20    1
    32    19    17    1
    33    15    17    1
    34    17    18    1
