@<TRIPOS>MOLECULE
1r30_DTB_A_1.pdb
 15 15 0 0 0
SMALL
GASTEIGER

@<TRIPOS>ATOM
      1  CN        71.6830   58.9410   38.1580 C.1   502  DTB502      0.2386
      2  O         71.5510   60.0610   38.6440 O.2   502  DTB502     -0.2023
      3  N2        72.2290   58.7110   36.9830 N.2   502  DTB502     -0.1869
      4  CR        72.2460   57.2740   36.6420 C.3   502  DTB502      0.1393
      5  CS        71.5830   56.6700   37.9440 C.3   502  DTB502      0.1394
      6  N1        71.2910   57.8560   38.7560 N.2   502  DTB502     -0.1869
      7  CT        70.3100   55.8490   37.7180 C.3   502  DTB502      0.0293
      8  CE        71.4020   57.0540   35.3650 C.3   502  DTB502      0.0272
      9  CD        72.2340   57.1640   34.0760 C.3   502  DTB502      0.0021
     10  CG        72.7340   58.5840   33.8000 C.3   502  DTB502      0.0006
     11  CB        73.6120   58.6520   32.5290 C.3   502  DTB502      0.0118
     12  CA        72.8250   58.5090   31.2010 C.3   502  DTB502      0.1141
     13  C         72.3260   57.0800   30.9070 C.2   502  DTB502      0.3649
     14  OI1       71.5060   56.5820   31.7100 O.co2 502  DTB502     -0.2457
     15  OI2       72.7690   56.5230   29.8730 O.co2 502  DTB502     -0.2457
@<TRIPOS>BOND
     1    15    13   ar
     2    13    12    1
     3    13    14   ar
     4    12    11    1
     5    11    10    1
     6    10     9    1
     7     9     8    1
     8     8     4    1
     9     4     3    1
    10     4     5    1
    11     3     1    2
    12     7     5    1
    13     5     6    1
    14     1     2    2
    15     1     6    2
