@<TRIPOS>MOLECULE
1r30_SAM_A_1.pdb
 27 29 0 0 0
SMALL
GASTEIGER

@<TRIPOS>ATOM
      1  N         62.9340   56.0610   34.8540 N.3   501  SAM501     -0.1208
      2  CA        63.3790   56.7370   36.0870 C.3   501  SAM501      0.1952
      3  C         62.3530   57.7910   36.4920 C.2   501  SAM501      0.3819
      4  O         62.2240   58.7790   35.7330 O.co2 501  SAM501     -0.2441
      5  OXT       61.7390   57.6000   37.5630 O.co2 501  SAM501     -0.2441
      6  CB        64.6900   57.4560   35.8310 C.3   501  SAM501      0.0414
      7  CG        65.7660   56.4820   35.4040 C.3   501  SAM501      0.0503
      8  SD        67.1690   57.5330   34.9540 S.3   501  SAM501     -0.1761
      9  CE        68.5430   56.5190   34.3350 C.3   501  SAM501      0.0590
     10  C5'       67.7100   58.4870   36.4020 C.3   501  SAM501      0.0806
     11  C4'       68.4690   59.7470   35.9990 C.3   501  SAM501      0.1622
     12  O4'       69.4810   59.4670   35.0320 O.3   501  SAM501     -0.3153
     13  C3'       67.6030   60.6920   35.2320 C.3   501  SAM501      0.2168
     14  O3'       66.5590   61.2830   36.0310 O.3   501  SAM501     -0.2175
     15  C2'       68.6370   61.6890   34.7770 C.3   501  SAM501      0.2569
     16  O2'       68.9290   62.5870   35.8490 O.3   501  SAM501     -0.2130
     17  C1'       69.8600   60.7790   34.5140 C.3   501  SAM501      0.3185
     18  N9        70.1390   60.6220   33.0730 N.pl3 501  SAM501     -0.1439
     19  C8        69.6160   59.6910   32.2680 C.3   501  SAM501      0.3377
     20  N7        70.0910   59.8680   31.0350 N.2   501  SAM501     -0.2095
     21  C5        70.9080   60.9030   31.0620 C.2   501  SAM501      0.2526
     22  C6        71.6670   61.5430   30.0990 C.2   501  SAM501      0.4393
     23  N6        71.6630   61.1000   28.8520 N.pl3 501  SAM501      0.2180
     24  N1        72.4200   62.6130   30.4430 N.2   501  SAM501      0.0021
     25  C2        72.4400   63.0590   31.7040 C.3   501  SAM501      0.5254
     26  N3        71.7110   62.4500   32.6500 N.2   501  SAM501     -0.0055
     27  C4        70.9420   61.3820   32.3500 C.2   501  SAM501      0.3518
@<TRIPOS>BOND
     1    23    22    1
     2    22    24    2
     3    22    21    1
     4    24    25    1
     5    20    21    2
     6    20    19    1
     7    21    27    1
     8    25    26    1
     9    19    18    1
    10    27    26    2
    11    27    18    1
    12    18    17    1
    13     9     8    1
    14    17    15    1
    15    17    12    1
    16    15    13    1
    17    15    16    1
    18     1     2    1
    19     8     7    1
    20     8    10    1
    21    12    11    1
    22    13    11    1
    23    13    14    1
    24     7     6    1
    25     4     3   ar
    26     6     2    1
    27    11    10    1
    28     2     3    1
    29     3     5   ar
