@<TRIPOS>MOLECULE
1r31_COA_A_1.pdb
 48 50 0 0 0
SMALL
GASTEIGER

@<TRIPOS>ATOM
      1  N1A       67.8730  126.9790  111.0940 N.2   1002  COA1002     0.0021
      2  C2A       67.8290  125.8600  111.8670 C.3   1002  COA1002     0.5254
      3  N3A       68.0350  124.4910  111.4200 N.2   1002  COA1002    -0.0055
      4  C4A       68.2940  124.4410  110.0550 C.2   1002  COA1002     0.3518
      5  C5A       68.3680  125.5240  109.1540 C.2   1002  COA1002     0.2526
      6  C6A       68.1380  126.8560  109.7370 C.2   1002  COA1002     0.4393
      7  N6A       68.1680  127.9820  109.0340 N.pl3 1002  COA1002     0.2180
      8  N7A       68.6460  125.0800  107.8820 N.2   1002  COA1002    -0.2095
      9  C8A       68.7370  123.7740  108.0080 C.3   1002  COA1002     0.3377
     10  N9A       68.5420  123.3030  109.2790 N.pl3 1002  COA1002    -0.1439
     11  C1B       68.5520  121.9150  109.8470 C.3   1002  COA1002     0.3185
     12  C2B       67.2080  121.5770  110.3440 C.3   1002  COA1002     0.2543
     13  O2B       67.4160  121.2360  111.7040 O.3   1002  COA1002    -0.2131
     14  C3B       66.6180  120.3940  109.5920 C.3   1002  COA1002     0.1928
     15  O3B       66.0390  119.3830  110.4430 O.3   1002  COA1002    -0.2673
     16  P3B       64.5330  119.5640  111.0580 P.3   1002  COA1002     0.5327
     17  O7A       63.9540  120.9120  110.7770 O.3   1002  COA1002    -0.1145
     18  O8A       63.6690  118.5280  110.4450 O.2   1002  COA1002    -0.2224
     19  O9A       64.6380  119.4280  112.5360 O.3   1002  COA1002    -0.1145
     20  C4B       67.7020  120.0070  108.6080 C.3   1002  COA1002     0.1795
     21  O4B       68.8300  120.9650  108.8190 O.3   1002  COA1002    -0.3136
     22  C5B       67.2740  120.1170  107.1560 C.3   1002  COA1002     0.1812
     23  O5B       68.0530  121.0780  106.4350 O.3   1002  COA1002    -0.3112
     24  P1A       67.7020  121.2910  104.9080 P.3   1002  COA1002     0.2189
     25  O1A       67.7110  119.9900  104.1800 O.2   1002  COA1002    -0.5170
     26  O2A       66.4270  122.0340  104.7700 O.3   1002  COA1002    -0.4371
     27  O3A       68.8890  122.2690  104.4860 O.3   1002  COA1002    -0.2703
     28  P2A       70.1140  122.2820  103.4450 P.3   1002  COA1002     0.2188
     29  O4A       69.5540  122.5400  102.0920 O.2   1002  COA1002    -0.5170
     30  O5A       71.0000  121.0770  103.6280 O.3   1002  COA1002    -0.4371
     31  O6A       70.8970  123.6890  103.6270 O.3   1002  COA1002    -0.3138
     32  CBP       72.4660  123.7970  105.6770 C.3   1002  COA1002     0.0645
     33  CCP       71.3260  124.3680  104.8260 C.3   1002  COA1002     0.1519
     34  CDP       72.6900  124.7870  106.8510 C.3   1002  COA1002     0.0056
     35  CEP       71.9950  122.4940  106.3060 C.3   1002  COA1002     0.0056
     36  CAP       73.7580  123.5390  104.8160 C.3   1002  COA1002     0.2312
     37  OAP       74.2250  124.7230  104.1650 O.3   1002  COA1002    -0.2131
     38  C9P       75.0460  122.9760  105.5200 C.2   1002  COA1002     0.2719
     39  O9P       75.0190  121.9410  106.1890 O.2   1002  COA1002    -0.2706
     40  N8P       76.1550  123.6980  105.3450 N.am  1002  COA1002    -0.2028
     41  C7P       77.4550  123.4050  105.8910 C.3   1002  COA1002     0.1248
     42  C6P       78.1400  124.6810  106.2350 C.3   1002  COA1002     0.1102
     43  C5P       78.9320  124.6400  107.5240 C.2   1002  COA1002     0.2432
     44  O5P       79.6190  123.6550  107.8540 O.2   1002  COA1002    -0.2733
     45  N4P       78.8140  125.7540  108.2380 N.am  1002  COA1002    -0.2044
     46  C3P       79.4350  126.0680  109.5150 C.3   1002  COA1002     0.1276
     47  C2P       79.6890  127.5300  109.6290 C.3   1002  COA1002     0.0920
     48  S1P       81.1050  127.4440  108.5310 S.3   1002  COA1002    -0.0802
@<TRIPOS>BOND
     1    29    28    2
     2    28    31    1
     3    28    30    1
     4    28    27    1
     5    31    33    1
     6    37    36    1
     7    25    24    2
     8    27    24    1
     9    26    24    1
    10    36    38    1
    11    36    32    1
    12    33    32    1
    13    24    23    1
    14    40    38   am
    15    40    41    1
    16    38    39    2
    17    32    35    1
    18    32    34    1
    19    41    42    1
    20    42    43    1
    21    23    22    1
    22    22    20    1
    23    43    44    2
    24    43    45   am
    25     8     9    1
    26     8     5    2
    27     9    10    1
    28    45    46    1
    29    48    47    1
    30    20    21    1
    31    20    14    1
    32    21    11    1
    33     7     6    1
    34     5     6    1
    35     5     4    1
    36    10    11    1
    37    10     4    1
    38    46    47    1
    39    14    12    1
    40    14    15    1
    41     6     1    2
    42    11    12    1
    43     4     3    2
    44    12    13    1
    45    15    16    1
    46    18    16    2
    47    17    16    1
    48    16    19    1
    49     1     2    1
    50     3     2    1
