@<TRIPOS>MOLECULE
1r31_MEV_A_1.pdb
 10 9 0 0 0
SMALL
GASTEIGER

@<TRIPOS>ATOM
      1  C8        84.3580  128.2680  108.6610 C.2   1003  MEV1003     0.2100
      2  O8        84.3120  129.0990  109.6170 O.2   1003  MEV1003    -0.2882
      3  C2        84.4620  126.7500  108.9200 C.3   1003  MEV1003     0.1031
      4  C3        85.0670  125.8560  107.7720 C.3   1003  MEV1003     0.1448
      5  O7        86.0920  126.5770  107.0620 O.3   1003  MEV1003    -0.2246
      6  C4        85.6180  124.5830  108.4890 C.3   1003  MEV1003     0.1448
      7  C5        86.2980  123.5050  107.6430 C.2   1003  MEV1003     0.3674
      8  O3        86.9050  123.8290  106.6090 O.co2 1003  MEV1003    -0.2456
      9  O4        86.2220  122.3360  108.0270 O.co2 1003  MEV1003    -0.2456
     10  C6        83.9860  125.4700  106.7280 C.3   1003  MEV1003     0.0340
@<TRIPOS>BOND
     1     8     7   ar
     2    10     4    1
     3     5     4    1
     4     7     9   ar
     5     7     6    1
     6     4     6    1
     7     4     3    1
     8     1     3    1
     9     1     2    2
