@<TRIPOS>MOLECULE
1r33_LKA_A_1.pdb
 12 12 0 0 0
SMALL
GASTEIGER

@<TRIPOS>ATOM
      1  C5        29.8720   67.2410    7.2190 C.3   1162  LKA1162     0.1149
      2  S0        29.5560   66.4970    8.8510 S.3   1162  LKA1162    -0.1150
      3  C1        30.9170   65.3190    9.1590 C.3   1162  LKA1162     0.1720
      4  N1        30.8810   64.7100   10.2600 N.3   1162  LKA1162    -0.1182
      5  C2        32.3640   66.0640    9.1200 C.3   1162  LKA1162     0.2122
      6  O2        33.3870   65.4630    9.4720 O.3   1162  LKA1162    -0.2178
      7  C3        32.4740   66.8460    7.6670 C.3   1162  LKA1162     0.2155
      8  O3        33.6500   66.2430    6.9700 O.3   1162  LKA1162    -0.2176
      9  C4        31.3920   66.7610    6.7670 C.3   1162  LKA1162     0.1972
     10  O4        31.4730   67.4720    5.5180 O.3   1162  LKA1162    -0.2193
     11  C6        28.9020   66.8430    6.5840 C.3   1162  LKA1162     0.1955
     12  O6        27.6370   67.1240    6.8480 O.3   1162  LKA1162    -0.2194
@<TRIPOS>BOND
     1    10     9    1
     2    11    12    1
     3    11     1    1
     4     9     1    1
     5     9     7    1
     6     8     7    1
     7     1     2    1
     8     7     5    1
     9     2     3    1
    10     5     3    1
    11     5     6    1
    12     3     4    1
