@<TRIPOS>MOLECULE
1r34_LKS_A_1.pdb
 21 22 0 0 0
SMALL
GASTEIGER

@<TRIPOS>ATOM
      1  C5        29.9370   66.9290    7.3040 C.3   1102  LKS1102     0.1173
      2  S1        29.4480   66.0700    8.7220 S.3   1102  LKS1102    -0.0844
      3  C1        30.6610   65.0980    9.0620 C.3   1102  LKS1102     0.2850
      4  N1        30.5640   64.9200   10.5190 N.pl3 1102  LKS1102    -0.0212
      5  C2        32.2230   65.7360    9.0890 C.3   1102  LKS1102     0.2417
      6  O2        33.2520   65.1420    9.7260 O.3   1102  LKS1102    -0.2148
      7  C3        32.4180   66.6260    7.7590 C.3   1102  LKS1102     0.2183
      8  O3        33.6140   66.1070    7.0960 O.3   1102  LKS1102    -0.2175
      9  C4        31.3280   66.5180    6.7520 C.3   1102  LKS1102     0.1974
     10  O4        31.5580   67.3720    5.5910 O.3   1102  LKS1102    -0.2193
     11  C6        28.7970   66.8040    6.3620 C.3   1102  LKS1102     0.1955
     12  O6        27.6180   67.1550    6.9990 O.3   1102  LKS1102    -0.2194
     13  C7        29.9090   63.9640   11.1530 C.2   1102  LKS1102     0.3947
     14  C8        29.5460   63.4320   12.5480 C.3   1102  LKS1102     0.1522
     15  C9        28.2110   64.0490   12.9850 C.ar  1102  LKS1102    -0.0098
     16  C10       27.1000   63.1660   13.4360 C.ar  1102  LKS1102    -0.0037
     17  C11       25.8000   63.7320   13.8420 C.ar  1102  LKS1102    -0.0003
     18  C14       27.9800   65.5490   12.9540 C.ar  1102  LKS1102    -0.0037
     19  C13       26.6920   66.1340   13.3580 C.ar  1102  LKS1102    -0.0003
     20  C12       25.5990   65.2340   13.8010 C.ar  1102  LKS1102    -0.0000
     21  N2        29.4060   63.2340   10.3610 N.2   1102  LKS1102     0.1921
@<TRIPOS>BOND
     1    10     9    1
     2    11    12    1
     3    11     1    1
     4     9     1    1
     5     9     7    1
     6     8     7    1
     7     1     2    1
     8     7     5    1
     9     2     3    1
    10     3     5    1
    11     3     4    1
    12     5     6    1
    13    21    13    2
    14     4    13    1
    15    13    14    1
    16    14    15    1
    17    18    15   ar
    18    18    19   ar
    19    15    16   ar
    20    19    20   ar
    21    16    17   ar
    22    20    17   ar
