@<TRIPOS>MOLECULE
1r35_HEM_A_1.pdb
 43 50 0 0 0
SMALL
GASTEIGER

@<TRIPOS>ATOM
      1  CHA      121.9680  110.9800   31.2760 C.2   901  HEM901      0.0000
      2  CHB      123.0380  114.8380   28.5870 C.2   901  HEM901      0.0000
      3  CHC      127.3940  113.0130   27.7460 C.2   901  HEM901      0.0000
      4  CHD      126.0440  108.8950   29.7990 C.2   901  HEM901      0.0000
      5  C1A      121.9130  112.2340   30.6730 C.ar  901  HEM901      0.0000
      6  C2A      120.8600  113.2280   30.8960 C.ar  901  HEM901      0.0000
      7  C3A      121.1340  114.2620   30.0800 C.ar  901  HEM901      0.0000
      8  C4A      122.3690  113.9440   29.3860 C.ar  901  HEM901      0.0000
      9  CMA      120.2740  115.5070   29.9050 C.3   901  HEM901      0.0000
     10  CAA      119.7770  113.2460   31.9540 C.3   901  HEM901      0.0000
     11  CBA      120.3450  113.2740   33.3620 C.3   901  HEM901      0.0000
     12  CGA      119.2850  113.4790   34.4190 C.2   901  HEM901      0.0000
     13  O1A      119.6090  113.3310   35.6160 O.co2 901  HEM901      0.0000
     14  O2A      118.1260  113.7990   34.0620 O.co2 901  HEM901      0.0000
     15  C1B      124.2940  114.6560   28.0590 C.2   901  HEM901      0.0000
     16  C2B      125.0030  115.6830   27.3380 C.2   901  HEM901      0.0000
     17  C3B      126.2350  115.2100   27.0750 C.2   901  HEM901      0.0000
     18  C4B      126.2830  113.8570   27.6860 C.2   901  HEM901      0.0000
     19  CMB      124.4820  117.0740   27.0000 C.3   901  HEM901      0.0000
     20  CAB      127.1950  115.9210   26.3170 C.3   901  HEM901      0.0000
     21  CBB      128.4880  115.4990   26.0020 C.3   901  HEM901      0.0000
     22  C1C      127.4190  111.7470   28.3080 C.ar  901  HEM901      0.0000
     23  C2C      128.5980  110.8860   28.3240 C.ar  901  HEM901      0.0000
     24  C3C      128.1930  109.6910   28.8460 C.ar  901  HEM901      0.0000
     25  C4C      126.7890  109.8560   29.1680 C.ar  901  HEM901      0.0000
     26  CMC      130.0180  111.3020   27.9280 C.3   901  HEM901      0.0000
     27  CAC      128.9270  108.5060   29.0400 C.3   901  HEM901      0.0000
     28  CBC      130.2690  108.3270   28.7140 C.3   901  HEM901      0.0000
     29  C1D      124.7580  109.0560   30.2670 C.2   901  HEM901      0.0000
     30  C2D      124.1360  108.0930   31.1220 C.2   901  HEM901      0.0000
     31  C3D      123.0700  108.6660   31.6550 C.2   901  HEM901      0.0000
     32  C4D      122.9650  110.0150   31.0460 C.2   901  HEM901      0.0000
     33  CMD      124.5650  106.6530   31.3450 C.3   901  HEM901      0.0000
     34  CAD      122.3350  108.0000   32.7940 C.3   901  HEM901      0.0000
     35  CBD      121.1800  108.6540   33.3590 C.3   901  HEM901      0.0000
     36  CGD      120.8410  108.0350   34.6740 C.2   901  HEM901      0.0000
     37  O1D      121.1870  108.6090   35.7230 O.co2 901  HEM901      0.0000
     38  O2D      120.2320  106.9560   34.6510 O.co2 901  HEM901      0.0000
     39  NA       122.8440  112.6970   29.7420 N.ar  901  HEM901      0.0000
     40  NB       125.0640  113.5340   28.2590 N.2   901  HEM901      0.0000
     41  NC       126.3230  111.1120   28.8510 N.ar  901  HEM901      0.0000
     42  ND       124.0340  110.2180   30.1820 N.2   901  HEM901      0.0000
     43 FE        124.4020  111.7310   28.9230 Fe    901  HEM901      0.0000
@<TRIPOS>BOND
     1    21    20    1
     2    20    17    1
     3    19    16    1
     4    17    16    2
     5    17    18    1
     6    16    15    1
     7    18     3    2
     8    18    40    1
     9     3    22    1
    10    26    23    1
    11    15    40    2
    12    15     2    1
    13    40    43    1
    14    22    23   ar
    15    22    41   ar
    16    23    24   ar
    17     2     8    2
    18    28    27    1
    19    24    27    1
    20    24    25   ar
    21    41    43    1
    22    41    25   ar
    23    43    39    1
    24    43    42    1
    25    25     4    1
    26     8    39   ar
    27     8     7   ar
    28    39     5   ar
    29     4    29    2
    30     9     7    1
    31     7     6   ar
    32    42    29    1
    33    42    32    2
    34    29    30    1
    35     5     6   ar
    36     5     1    2
    37     6    10    1
    38    32     1    1
    39    32    31    1
    40    30    33    1
    41    30    31    2
    42    31    34    1
    43    10    11    1
    44    34    35    1
    45    35    36    1
    46    11    12    1
    47    14    12   ar
    48    12    13   ar
    49    38    36   ar
    50    36    37   ar
