@<TRIPOS>MOLECULE
1r35_H4B_A_1.pdb
 17 18 0 0 0
SMALL
GASTEIGER

@<TRIPOS>ATOM
      1  N1       114.1420  112.1760   32.9040 N.2   902  H4B902     -0.2683
      2  C2       115.3520  112.5670   33.1910 C.1   902  H4B902      0.2608
      3  N2       116.1660  112.9750   32.2020 N.pl3 902  H4B902     -0.0220
      4  N3       115.8210  112.5780   34.4560 N.2   902  H4B902     -0.2474
      5  C4       115.0100  112.2510   35.4780 C.1   902  H4B902      0.2441
      6  O4       115.3690  112.3130   36.6280 O.2   902  H4B902     -0.2063
      7  C4A      113.6930  111.7980   35.1720 C.2   902  H4B902      0.2463
      8  C8A      113.2820  111.7640   33.8920 C.1   902  H4B902      0.1270
      9  N5       112.8720  111.4040   36.1850 N.2   902  H4B902     -0.2460
     10  N8       111.9770  111.3100   33.5810 N.2   902  H4B902     -0.2054
     11  C6       111.8530  110.4420   35.8550 C.3   902  H4B902      0.1627
     12  C7       111.0160  111.1050   34.7370 C.3   902  H4B902      0.1643
     13  C9       111.0960  110.0800   37.1660 C.3   902  H4B902      0.2063
     14  O9       110.3190  111.2010   37.4710 O.3   902  H4B902     -0.2183
     15  C10      110.1560  108.8090   37.0870 C.3   902  H4B902      0.1842
     16  C11      109.6160  108.5080   35.6820 C.3   902  H4B902      0.0383
     17  O10      109.0290  108.9490   37.9270 O.3   902  H4B902     -0.2204
@<TRIPOS>BOND
     1     3     2    1
     2     1     2    2
     3     1     8    2
     4     2     4    2
     5    10     8    2
     6    10    12    1
     7     8     7    1
     8     4     5    2
     9    12    11    1
    10     7     5    1
    11     7     9    2
    12     5     6    2
    13    16    15    1
    14    11     9    1
    15    11    13    1
    16    15    13    1
    17    15    17    1
    18    13    14    1
