@<TRIPOS>MOLECULE
1r35_I58_A_1.pdb
 14 13 0 0 0
SMALL
GASTEIGER

@<TRIPOS>ATOM
      1  N        121.3720  116.1420   35.8100 N.3   800  I58800     -0.1207
      2  C        122.6680  117.5740   37.3810 C.2   800  I58800      0.3820
      3  O        123.5570  117.9140   38.3210 O.co2 800  I58800     -0.2440
      4  OXT      121.7950  118.4490   36.9570 O.co2 800  I58800     -0.2440
      5  CA       122.5610  116.1580   36.6990 C.3   800  I58800      0.1970
      6  CB       123.7660  115.7990   35.7830 C.3   800  I58800      0.0660
      7  CG       124.2550  114.3300   35.7840 C.3   800  I58800      0.1673
      8  F        125.6300  114.3810   35.6450 F     800  I58800     -0.2371
      9  CD       123.6250  113.5070   34.6180 C.3   800  I58800      0.0906
     10  CE       124.3620  113.6620   33.2780 C.3   800  I58800      0.2538
     11  NZ       124.2130  115.0090   32.7740 N.pl3 800  I58800     -0.0315
     12  CX       124.9890  115.3960   31.7010 C.2   800  I58800      0.3901
     13  NX       124.6510  116.4760   30.9680 N.2   800  I58800      0.1917
     14  CT       126.2990  114.5470   31.3410 C.3   800  I58800      0.1388
@<TRIPOS>BOND
     1    13    12    2
     2    14    12    1
     3    12    11    1
     4    11    10    1
     5    10     9    1
     6     9     7    1
     7     8     7    1
     8     6     7    1
     9     6     5    1
    10     1     5    1
    11     5     2    1
    12     4     2   ar
    13     2     3   ar
