@<TRIPOS>MOLECULE
1r37_NAD_A_1.pdb
 44 48 0 0 0
SMALL
GASTEIGER

@<TRIPOS>ATOM
      1  PA        82.1100   11.1210   12.1880 P.3   403  NAD403      0.2189
      2  O1A       83.0050   11.5370   13.2950 O.3   403  NAD403     -0.4371
      3  O2A       82.3690   11.6240   10.8040 O.2   403  NAD403     -0.5170
      4  O5B       82.0930    9.5350   12.2260 O.3   403  NAD403     -0.3112
      5  C5B       81.3640    8.7140   11.2590 C.3   403  NAD403      0.1813
      6  C4B       82.1030    7.3980   11.1870 C.3   403  NAD403      0.1821
      7  O4B       81.3650    6.5560   10.2150 O.3   403  NAD403     -0.3135
      8  C3B       83.5710    7.4730   10.6110 C.3   403  NAD403      0.2184
      9  O3B       84.5260    6.9730   11.5960 O.3   403  NAD403     -0.2174
     10  C2B       83.5390    6.6560    9.3260 C.3   403  NAD403      0.2570
     11  O2B       84.7050    6.0250    8.9120 O.3   403  NAD403     -0.2130
     12  C1B       82.3420    5.7290    9.6240 C.3   403  NAD403      0.3186
     13  N9A       81.7780    5.1610    8.4050 N.pl3 403  NAD403     -0.1439
     14  C8A       81.5480    5.6660    7.1190 C.3   403  NAD403      0.3377
     15  N7A       81.0090    4.7810    6.2930 N.2   403  NAD403     -0.2095
     16  C5A       80.8490    3.6370    6.9790 C.2   403  NAD403      0.2526
     17  C6A       80.3140    2.3060    6.6260 C.2   403  NAD403      0.4393
     18  N6A       79.8570    2.0110    5.4230 N.pl3 403  NAD403      0.2180
     19  N1A       80.3290    1.3840    7.6630 N.2   403  NAD403      0.0021
     20  C2A       80.7760    1.6130    8.9050 C.3   403  NAD403      0.5254
     21  N3A       81.2950    2.8520    9.2920 N.2   403  NAD403     -0.0055
     22  C4A       81.3150    3.8370    8.3040 C.2   403  NAD403      0.3518
     23  O3        80.6260   11.5340   12.5260 O.3   403  NAD403     -0.2703
     24  PN        79.8390   11.7690   13.9290 P.3   403  NAD403      0.2189
     25  O1N       80.0540   13.1430   14.3920 O.2   403  NAD403     -0.5170
     26  O2N       80.2480   10.6310   14.8190 O.3   403  NAD403     -0.4371
     27  O5D       78.3070   11.6770   13.4020 O.3   403  NAD403     -0.3112
     28  C5D       77.7620   10.4340   12.8450 C.3   403  NAD403      0.1813
     29  C4D       76.3320   10.6330   12.4860 C.3   403  NAD403      0.1799
     30  O4D       75.5760   10.8970   13.7360 O.3   403  NAD403     -0.3327
     31  C3D       76.0170   11.8850   11.5700 C.3   403  NAD403      0.2158
     32  O3D       75.0760   11.5390   10.5290 O.3   403  NAD403     -0.2175
     33  C2D       75.4090   12.9100   12.5440 C.3   403  NAD403      0.2309
     34  O2D       74.6090   13.8860   11.9270 O.3   403  NAD403     -0.2158
     35  C1D       74.6440   11.9690   13.5450 C.3   403  NAD403      0.2263
     36  N1N       74.3690   12.5340   14.8940 N.pl3 403  NAD403     -0.2787
     37  C2N       73.0890   12.2370   15.4680 C.3   403  NAD403      0.1244
     38  C3N       72.7350   12.6810   16.6810 C.2   403  NAD403      0.0544
     39  C7N       71.3780   12.3460   17.2660 C.2   403  NAD403      0.2818
     40  O7N       70.9530   13.0540   18.1980 O.2   403  NAD403     -0.2670
     41  N7N       70.6830   11.3060   16.7830 N.am  403  NAD403     -0.0839
     42  C4N       73.6740   13.5410   17.5480 C.2   403  NAD403      0.0033
     43  C5N       75.0240   13.8310   16.9000 C.2   403  NAD403      0.0157
     44  C6N       75.3250   13.3230   15.6040 C.2   403  NAD403      0.0633
@<TRIPOS>BOND
     1    18    17    1
     2    15    16    2
     3    15    14    1
     4    17    16    1
     5    17    19    2
     6    16    22    1
     7    14    13    1
     8    19    20    1
     9    22    13    1
    10    22    21    2
    11    13    12    1
    12    20    21    1
    13    11    10    1
    14    10    12    1
    15    10     8    1
    16    12     7    1
    17     7     6    1
    18    32    31    1
    19     8     6    1
    20     8     9    1
    21     3     1    2
    22     6     5    1
    23     5     4    1
    24    31    29    1
    25    31    33    1
    26    34    33    1
    27     1     4    1
    28     1    23    1
    29     1     2    1
    30    29    28    1
    31    29    30    1
    32    23    24    1
    33    33    35    1
    34    28    27    1
    35    27    24    1
    36    35    30    1
    37    35    36    1
    38    24    25    2
    39    24    26    1
    40    36    37    1
    41    36    44    1
    42    37    38    1
    43    44    43    2
    44    38    39    1
    45    38    42    2
    46    41    39   am
    47    43    42    1
    48    39    40    2
