@<TRIPOS>MOLECULE
1r38_NAP_A_1.pdb
 48 52 0 0 0
SMALL
GASTEIGER

@<TRIPOS>ATOM
      1  PA       112.4000   11.5380    8.3620 P.3   950  NAP950      0.2189
      2  O1A      111.1420   11.5970    9.0370 O.3   950  NAP950     -0.4371
      3  O2A      112.6210   11.8080    6.9030 O.2   950  NAP950     -0.5170
      4  O5B      113.1140   10.1130    8.5920 O.3   950  NAP950     -0.3112
      5  C5B      112.4800    8.9890    8.0470 C.3   950  NAP950      0.1813
      6  C4B      112.8300    7.8560    9.0610 C.3   950  NAP950      0.1820
      7  O4B      111.6500    6.9640    8.9180 O.3   950  NAP950     -0.3136
      8  C3B      113.9970    6.9570    8.6050 C.3   950  NAP950      0.2157
      9  O3B      114.5160    6.3810    9.8190 O.3   950  NAP950     -0.2175
     10  C2B      113.3610    5.9220    7.6810 C.3   950  NAP950      0.2314
     11  O2B      113.8920    4.6290    7.7750 O.3   950  NAP950     -0.2630
     12  C1B      111.8620    5.8730    8.0740 C.3   950  NAP950      0.3158
     13  N9A      111.0240    5.9520    6.8880 N.pl3 950  NAP950     -0.1439
     14  C8A      111.1960    6.5780    5.6720 C.3   950  NAP950      0.3377
     15  N7A      110.2050    6.4020    4.8170 N.2   950  NAP950     -0.2095
     16  C5A      109.3180    5.6040    5.5190 C.2   950  NAP950      0.2526
     17  C6A      108.0810    5.0640    5.1210 C.2   950  NAP950      0.4393
     18  N6A      107.4780    5.2160    3.9270 N.pl3 950  NAP950      0.2180
     19  N1A      107.3950    4.2720    6.0680 N.2   950  NAP950      0.0021
     20  C2A      107.9080    4.0780    7.3640 C.3   950  NAP950      0.5254
     21  N3A      109.1320    4.6000    7.7800 N.2   950  NAP950     -0.0055
     22  C4A      109.8070    5.3430    6.8150 C.2   950  NAP950      0.3518
     23  O3       113.3700   12.3900    9.2720 O.3   950  NAP950     -0.2703
     24  PN       114.6600   13.0320    8.6810 P.3   950  NAP950      0.2189
     25  O1N      115.4330   12.0660    7.8560 O.2   950  NAP950     -0.5170
     26  O2N      115.4220   13.4920    9.8560 O.3   950  NAP950     -0.4371
     27  O5D      114.2290   14.2850    7.8000 O.3   950  NAP950     -0.3112
     28  C5D      114.2300   14.2020    6.3320 C.3   950  NAP950      0.1813
     29  C4D      115.2930   15.1330    5.8420 C.3   950  NAP950      0.1799
     30  O4D      115.1030   16.4590    6.4260 O.3   950  NAP950     -0.3327
     31  C3D      116.7570   14.7870    6.2410 C.3   950  NAP950      0.2158
     32  O3D      117.3160   13.6950    5.5140 O.3   950  NAP950     -0.2175
     33  C2D      117.4540   16.1180    6.0170 C.3   950  NAP950      0.2309
     34  O2D      117.7740   16.3280    4.6380 O.3   950  NAP950     -0.2158
     35  C1D      116.4440   17.1210    6.5180 C.3   950  NAP950      0.2263
     36  N1N      116.6350   17.5790    7.9410 N.pl3 950  NAP950     -0.2787
     37  C2N      116.9820   18.8940    8.2290 C.3   950  NAP950      0.1244
     38  C3N      117.3100   19.2280    9.5320 C.2   950  NAP950      0.0544
     39  C7N      117.6240   20.6770    9.8290 C.2   950  NAP950      0.2818
     40  O7N      117.9710   20.9370   10.9710 O.2   950  NAP950     -0.2670
     41  N7N      117.4870   21.5900    8.8850 N.am  950  NAP950     -0.0839
     42  C4N      117.3470   18.2430   10.6060 C.2   950  NAP950      0.0033
     43  C5N      116.9000   16.9300   10.3020 C.2   950  NAP950      0.0157
     44  C6N      116.5050   16.5740    8.9800 C.2   950  NAP950      0.0633
     45  P2B      114.6310    3.8740    6.5580 P.3   950  NAP950      0.5328
     46  O1X      113.5490    3.5840    5.4850 O.2   950  NAP950     -0.2224
     47  O2X      115.7130    4.7700    5.9840 O.3   950  NAP950     -0.1145
     48  O3X      115.1410    2.5640    7.1800 O.3   950  NAP950     -0.1145
@<TRIPOS>BOND
     1    18    17    1
     2    34    33    1
     3    15    16    2
     4    15    14    1
     5    17    16    1
     6    17    19    2
     7    46    45    2
     8    32    31    1
     9    16    22    1
    10    14    13    1
    11    29    31    1
    12    29    28    1
    13    29    30    1
    14    47    45    1
    15    33    31    1
    16    33    35    1
    17    19    20    1
    18    28    27    1
    19    30    35    1
    20    35    36    1
    21    45    48    1
    22    45    11    1
    23    22    13    1
    24    22    21    2
    25    13    12    1
    26     3     1    2
    27    20    21    1
    28    10    11    1
    29    10    12    1
    30    10     8    1
    31    27    24    1
    32    25    24    2
    33    36    37    1
    34    36    44    1
    35     5     4    1
    36     5     6    1
    37    12     7    1
    38    37    38    1
    39     1     4    1
    40     1     2    1
    41     1    23    1
    42     8     6    1
    43     8     9    1
    44    24    23    1
    45    24    26    1
    46    41    39   am
    47     7     6    1
    48    44    43    2
    49    38    39    1
    50    38    42    2
    51    39    40    2
    52    43    42    1
