@<TRIPOS>MOLECULE
1r3q_1CP_A_1.pdb
 48 52 0 0 0
SMALL
GASTEIGER

@<TRIPOS>ATOM
      1  O18        4.1530   72.0630   58.9010 O.co2 901  1CP901     -0.2456
      2  C43        4.9890   72.9760   59.1130 C.2   901  1CP901      0.3652
      3  O28        4.9030   74.1380   58.6490 O.co2 901  1CP901     -0.2456
      4  C42        6.1610   72.6180   60.0020 C.3   901  1CP901      0.1194
      5  C41        7.2890   73.6500   60.1050 C.3   901  1CP901      0.0482
      6  C8         8.1740   73.0050   61.1670 C.2   901  1CP901      0.0404
      7  C7         9.0820   71.9460   60.9140 C.2   901  1CP901      0.0402
      8  C7A        9.3920   71.3260   59.5450 C.3   901  1CP901      0.0418
      9  C9         8.2080   73.3190   62.5030 C.1   901  1CP901      0.0112
     10  C10        7.4340   74.3660   63.2910 C.2   901  1CP901      0.0981
     11  N22        9.1420   72.4820   63.0800 N.2   901  1CP901     -0.3338
     12  C6         9.7030   71.6310   62.1080 C.1   901  1CP901      0.0112
     13  C5        10.6910   70.5330   62.4060 C.2   901  1CP901      0.0981
     14  C4        12.0070   70.9170   63.0150 C.2   901  1CP901      0.1469
     15  N21       12.2790   72.1160   63.6370 N.2   901  1CP901     -0.3673
     16  C3        13.1280   70.1300   63.0490 C.2   901  1CP901      0.0143
     17  C31       13.2360   68.6780   62.5850 C.3   901  1CP901      0.0411
     18  C32       14.2830   68.3530   61.5440 C.3   901  1CP901      0.1188
     19  C33       13.6650   68.4440   60.1620 C.2   901  1CP901      0.3652
     20  O23       14.3760   68.1120   59.1730 O.co2 901  1CP901     -0.2456
     21  O13       12.4760   68.9150   60.1030 O.co2 901  1CP901     -0.2456
     22  C2        14.1190   70.8850   63.7160 C.2   901  1CP901      0.0336
     23  C2A       15.5430   70.4580   64.0260 C.3   901  1CP901      0.0412
     24  C1        13.5780   72.0730   64.0410 C.1   901  1CP901      0.0084
     25  C20       14.3760   73.1070   64.7640 C.2   901  1CP901      0.1301
     26  C19       13.6940   74.3560   65.2200 C.1   901  1CP901      0.0183
     27  N24       12.3510   74.5300   65.5510 N.2   901  1CP901     -0.3327
     28  C18       14.3430   75.5440   65.3500 C.2   901  1CP901      0.0410
     29  C61       15.8330   75.8620   65.0920 C.3   901  1CP901      0.0482
     30  C62       16.0310   76.9240   63.9580 C.3   901  1CP901      0.1194
     31  C63       17.4730   77.0910   63.5160 C.2   901  1CP901      0.3652
     32  O1R       17.8610   76.5450   62.4440 O.co2 901  1CP901     -0.2456
     33  O2R       18.2650   77.7600   64.2330 O.co2 901  1CP901     -0.2456
     34  C17       13.3850   76.4740   65.8050 C.2   901  1CP901      0.0408
     35  C86       13.7520   77.9150   66.0980 C.3   901  1CP901      0.0418
     36  C16       12.1670   75.8440   65.9130 C.1   901  1CP901      0.0183
     37  C15       10.8420   76.3920   66.3780 C.2   901  1CP901      0.1304
     38  C14        9.8540   76.3660   65.2100 C.1   901  1CP901      0.0125
     39  N23        9.1470   75.2580   64.9000 N.2   901  1CP901     -0.3670
     40  C11        8.3320   75.4640   63.8070 C.2   901  1CP901      0.1472
     41  C12        8.5750   76.7470   63.4100 C.2   901  1CP901      0.0181
     42  C81        7.8930   77.4510   62.2450 C.3   901  1CP901      0.0344
     43  C13        9.5150   77.3450   64.3080 C.2   901  1CP901      0.0557
     44  C91       10.1210   78.7510   64.2020 C.2   901  1CP901      0.0161
     45  C92        9.3460   79.9200   64.8330 C.2   901  1CP901      0.0868
     46  C53        9.9070   81.3180   64.5420 C.2   901  1CP901      0.3880
     47  O2M        9.5420   81.8740   63.4580 O.co2 901  1CP901     -0.2405
     48  O1M       10.6790   81.9060   65.3480 O.co2 901  1CP901     -0.2405
@<TRIPOS>BOND
     1     3     2   ar
     2     1     2   ar
     3     2     4    1
     4    20    19   ar
     5     8     7    1
     6     4     5    1
     7    21    19   ar
     8     5     6    1
     9    19    18    1
    10     7     6    2
    11     7    12    1
    12     6     9    1
    13    18    17    1
    14    12    13    2
    15    12    11    2
    16    42    41    1
    17    13    14    1
    18    32    31   ar
    19     9    11    2
    20     9    10    2
    21    17    16    1
    22    14    16    1
    23    14    15    2
    24    16    22    2
    25    10    40    1
    26    41    40    1
    27    41    43    2
    28    47    46   ar
    29    31    30    1
    30    31    33   ar
    31    15    24    2
    32    22    23    1
    33    22    24    1
    34    40    39    2
    35    30    29    1
    36    24    25    2
    37    44    43    1
    38    44    45    2
    39    43    38    1
    40    46    45    1
    41    46    48   ar
    42    25    26    1
    43    39    38    2
    44    29    28    1
    45    38    37    2
    46    26    28    2
    47    26    27    2
    48    28    34    1
    49    27    36    2
    50    34    36    2
    51    34    35    1
    52    36    37    1
