@<TRIPOS>MOLECULE
1r3s_1CP_A_1.pdb
 48 53 0 0 0
SMALL
GASTEIGER

@<TRIPOS>ATOM
      1  O18        3.5970   73.3960   57.7260 O.co2 901  1CP901     -0.2456
      2  C43        4.6950   72.9490   58.1300 C.2   901  1CP901      0.3652
      3  O28        5.1550   71.8480   57.7430 O.co2 901  1CP901     -0.2456
      4  C42        5.4780   73.7730   59.1350 C.3   901  1CP901      0.1194
      5  C41        6.9330   73.9440   58.6920 C.3   901  1CP901      0.0482
      6  C8         7.9050   73.2360   59.6240 C.2   901  1CP901      0.0404
      7  C7         8.7260   72.1220   59.3110 C.2   901  1CP901      0.0402
      8  C7A        8.7350   71.4650   57.9670 C.3   901  1CP901      0.0418
      9  C9         8.1560   73.5660   60.9160 C.1   901  1CP901      0.0112
     10  C10        7.4840   74.6920   61.6810 C.2   901  1CP901      0.0981
     11  N22        9.1150   72.6810   61.3980 N.2   901  1CP901     -0.3338
     12  C6         9.4830   71.7920   60.4020 C.1   901  1CP901      0.0112
     13  C5        10.4800   70.6400   60.5110 C.2   901  1CP901      0.0981
     14  C4        11.8490   70.9670   61.0800 C.2   901  1CP901      0.1469
     15  N21       12.2760   72.1610   61.6280 N.2   901  1CP901     -0.3673
     16  C3        12.8960   70.0930   61.1290 C.2   901  1CP901      0.0139
     17  C31       12.7900   68.6460   60.6430 C.3   901  1CP901      0.0347
     18  C32       14.0690   67.9490   60.1890 C.3   901  1CP901      0.0721
     19  C33       14.1490   67.9580   58.6750 C.3   901  1CP901      0.3012
     20  O23       14.5720   69.1330   58.7640 O.3   901  1CP901     -0.1869
     21  O13       14.5370   68.0090   57.5040 O.3   901  1CP901     -0.1869
     22  C2        13.9960   70.7800   61.7370 C.2   901  1CP901      0.0336
     23  C2A       15.3890   70.2590   62.0290 C.3   901  1CP901      0.0412
     24  C1        13.5900   72.0450   62.0310 C.1   901  1CP901      0.0084
     25  C20       14.4790   73.0810   62.6930 C.2   901  1CP901      0.1301
     26  C19       13.8270   74.3690   63.1720 C.1   901  1CP901      0.0183
     27  N24       12.5290   74.6470   63.5660 N.2   901  1CP901     -0.3327
     28  C18       14.5160   75.5230   63.3060 C.2   901  1CP901      0.0410
     29  C61       15.9730   75.6990   62.9860 C.3   901  1CP901      0.0482
     30  C62       16.0670   76.2250   61.5560 C.3   901  1CP901      0.1194
     31  C63       17.4980   76.5790   61.2450 C.2   901  1CP901      0.3652
     32  O1R       18.0460   76.0400   60.2380 O.co2 901  1CP901     -0.2456
     33  O2R       18.0610   77.4200   61.9940 O.co2 901  1CP901     -0.2456
     34  C17       13.6570   76.5440   63.7680 C.2   901  1CP901      0.0408
     35  C86       14.0600   77.9750   64.0350 C.3   901  1CP901      0.0418
     36  C16       12.4290   75.9880   63.9270 C.1   901  1CP901      0.0183
     37  C15       11.1830   76.7040   64.4110 C.2   901  1CP901      0.1301
     38  C14       10.1590   76.5770   63.3200 C.1   901  1CP901      0.0085
     39  N23        9.3190   75.5090   63.2040 N.2   901  1CP901     -0.3673
     40  C11        8.5230   75.6840   62.1070 C.2   901  1CP901      0.1469
     41  C12        8.8560   76.8580   61.5160 C.2   901  1CP901      0.0141
     42  C81        8.2400   77.4610   60.2750 C.3   901  1CP901      0.0341
     43  C13        9.8990   77.4240   62.2850 C.2   901  1CP901      0.0338
     44  C91       10.5760   78.7430   61.9820 C.3   901  1CP901      0.0476
     45  C92        9.8770   79.8840   62.7250 C.3   901  1CP901      0.1194
     46  C53       10.6390   81.1840   62.5160 C.2   901  1CP901      0.3652
     47  O2M       10.9870   81.8450   63.5290 O.co2 901  1CP901     -0.2456
     48  O1M       10.8850   81.5570   61.3390 O.co2 901  1CP901     -0.2456
@<TRIPOS>BOND
     1    21    19    1
     2    21    20    1
     3     1     2   ar
     4     3     2   ar
     5     8     7    1
     6     2     4    1
     7    19    20    1
     8    19    18    1
     9     5     4    1
    10     5     6    1
    11     7     6    2
    12     7    12    1
    13     6     9    1
    14    18    17    1
    15    32    31   ar
    16    42    41    1
    17    12    13    2
    18    12    11    2
    19    13    14    1
    20    17    16    1
    21     9    11    2
    22     9    10    2
    23    14    16    1
    24    14    15    2
    25    16    22    2
    26    31    30    1
    27    31    33   ar
    28    48    46   ar
    29    41    40    1
    30    41    43    2
    31    30    29    1
    32    15    24    2
    33    10    40    1
    34    22    23    1
    35    22    24    1
    36    44    43    1
    37    44    45    1
    38    24    25    2
    39    40    39    2
    40    43    38    1
    41    46    45    1
    42    46    47   ar
    43    25    26    1
    44    29    28    1
    45    26    28    2
    46    26    27    2
    47    39    38    2
    48    28    34    1
    49    38    37    2
    50    27    36    2
    51    34    36    2
    52    34    35    1
    53    36    37    1
