@<TRIPOS>MOLECULE
1r3t_CP3_A_1.pdb
 48 52 0 0 0
SMALL
GASTEIGER

@<TRIPOS>ATOM
      1  O2R       16.0110   78.1380   62.7180 O.co2 867  CP3867     -0.2456
      2  C63       16.8310   77.2050   62.5550 C.2   867  CP3867      0.3652
      3  O1R       18.0800   77.3600   62.5060 O.co2 867  CP3867     -0.2456
      4  C62       16.2620   75.8220   62.4260 C.3   867  CP3867      0.1188
      5  C61       15.6530   75.4380   63.7740 C.3   867  CP3867      0.0411
      6  C18       14.1520   75.3610   63.6350 C.2   867  CP3867      0.0143
      7  C19       13.5030   74.4080   62.9410 C.2   867  CP3867      0.1469
      8  N24       12.1470   74.6670   63.0260 N.2   867  CP3867     -0.3673
      9  C20       14.2550   73.3120   62.2170 C.2   867  CP3867      0.0981
     10  C1        13.4970   72.0450   61.9090 C.1   867  CP3867      0.0112
     11  C17       13.1970   76.2420   64.1820 C.2   867  CP3867      0.0336
     12  C86       13.4950   77.4570   65.0240 C.3   867  CP3867      0.0412
     13  C16       11.9680   75.8060   63.7990 C.1   867  CP3867      0.0084
     14  C15       10.6520   76.4650   64.1770 C.2   867  CP3867      0.1301
     15  C14        9.5000   76.0730   63.2700 C.1   867  CP3867      0.0183
     16  N23        8.9490   74.8110   63.1610 N.2   867  CP3867     -0.3327
     17  C13        8.8100   76.8870   62.4290 C.2   867  CP3867      0.0410
     18  C51        9.0650   78.3580   62.2190 C.3   867  CP3867      0.0482
     19  C52       10.3570   78.5400   61.4260 C.3   867  CP3867      0.1194
     20  C53       10.4780   79.9710   60.9520 C.2   867  CP3867      0.3652
     21  O2M       10.0440   80.2550   59.8100 O.co2 867  CP3867     -0.2456
     22  O1M       11.0050   80.8170   61.7170 O.co2 867  CP3867     -0.2456
     23  C12        7.8140   76.1190   61.7850 C.2   867  CP3867      0.0408
     24  C81        6.8280   76.6370   60.7660 C.3   867  CP3867      0.0418
     25  C11        7.9230   74.8490   62.2460 C.1   867  CP3867      0.0183
     26  C10        7.1000   73.6440   61.8580 C.2   867  CP3867      0.1301
     27  C6         7.9550   72.6880   61.0400 C.1   867  CP3867      0.0084
     28  N22        8.9340   71.8650   61.5620 N.2   867  CP3867     -0.3673
     29  C7         7.9090   72.4730   59.7000 C.2   867  CP3867      0.0336
     30  C7A        6.9860   73.1650   58.7210 C.3   867  CP3867      0.0412
     31  C8         8.8820   71.4910   59.3810 C.2   867  CP3867      0.0143
     32  C41        9.1830   70.9630   57.9870 C.3   867  CP3867      0.0411
     33  C42       10.3540   71.7400   57.3740 C.3   867  CP3867      0.1188
     34  C43        9.8720   72.9980   56.6670 C.2   867  CP3867      0.3652
     35  O28       10.0930   74.1190   57.2010 O.co2 867  CP3867     -0.2456
     36  O18        9.2820   72.8930   55.5660 O.co2 867  CP3867     -0.2456
     37  C9         9.5090   71.1390   60.5430 C.2   867  CP3867      0.1469
     38  C5        10.6040   70.0930   60.7290 C.2   867  CP3867      0.0981
     39  C4        11.9170   70.6170   61.2510 C.1   867  CP3867      0.0112
     40  N21       12.2200   71.9510   61.4080 N.2   867  CP3867     -0.3338
     41  C3        13.0100   69.8810   61.6370 C.2   867  CP3867      0.0404
     42  C2        14.0070   70.7970   62.0450 C.2   867  CP3867      0.0402
     43  C2A       15.3910   70.4480   62.5580 C.3   867  CP3867      0.0418
     44  C31       13.1830   68.3640   61.6420 C.3   867  CP3867      0.0482
     45  C32       14.2230   67.9120   60.5980 C.3   867  CP3867      0.1194
     46  C33       13.6700   68.0330   59.1790 C.2   867  CP3867      0.3652
     47  O13       14.4060   67.8720   58.1720 O.co2 867  CP3867     -0.2456
     48  O23       12.4470   68.2830   59.0680 O.co2 867  CP3867     -0.2456
@<TRIPOS>BOND
     1    36    34   ar
     2    34    35   ar
     3    34    33    1
     4    33    32    1
     5    32    31    1
     6    47    46   ar
     7    30    29    1
     8    48    46   ar
     9    46    45    1
    10    31    29    2
    11    31    37    1
    12    29    27    1
    13    21    20   ar
    14    37    38    1
    15    37    28    2
    16    45    44    1
    17    38    39    2
    18    24    23    1
    19    20    19    1
    20    20    22   ar
    21    27    28    2
    22    27    26    2
    23    39    40    2
    24    39    41    1
    25    40    10    2
    26    19    18    1
    27    41    44    1
    28    41    42    2
    29    23    25    2
    30    23    17    1
    31    26    25    1
    32    10    42    1
    33    10     9    2
    34    42    43    1
    35     9     7    1
    36    18    17    1
    37    25    16    2
    38     4     2    1
    39     4     5    1
    40    17    15    2
    41     3     2   ar
    42     2     1   ar
    43     7     8    2
    44     7     6    1
    45     8    13    2
    46    16    15    2
    47    15    14    1
    48     6     5    1
    49     6    11    2
    50    13    14    2
    51    13    11    1
    52    11    12    1
