@<TRIPOS>MOLECULE
1r3v_1CP_A_1.pdb
 48 52 0 0 0
SMALL
GASTEIGER

@<TRIPOS>ATOM
      1  O18        3.2270   73.7870   58.6230 O.co2 368  1CP368     -0.2456
      2  C43        3.9640   74.7220   59.0700 C.2   368  1CP368      0.3652
      3  O28        3.6780   75.9130   58.8430 O.co2 368  1CP368     -0.2456
      4  C42        5.2050   74.4270   59.9260 C.3   368  1CP368      0.1194
      5  C41        6.5890   74.4750   59.2060 C.3   368  1CP368      0.0482
      6  C8         7.6150   73.9230   60.1970 C.2   368  1CP368      0.0404
      7  C7         8.2500   72.6600   60.1680 C.2   368  1CP368      0.0402
      8  C7A        8.0940   71.6100   59.1000 C.3   368  1CP368      0.0418
      9  C9         8.0470   74.5640   61.3490 C.1   368  1CP368      0.0112
     10  C10        7.6110   75.9540   61.7660 C.2   368  1CP368      0.0981
     11  N22        8.9120   73.7160   62.0130 N.2   368  1CP368     -0.3338
     12  C6         9.0580   72.5560   61.2770 C.1   368  1CP368      0.0112
     13  C5         9.8890   71.3500   61.5900 C.2   368  1CP368      0.0981
     14  C4        11.2630   71.5500   62.1520 C.2   368  1CP368      0.1469
     15  N21       11.7350   72.6510   62.7950 N.2   368  1CP368     -0.3673
     16  C3        12.2550   70.6350   62.1000 C.2   368  1CP368      0.0143
     17  C31       12.1500   69.2360   61.4930 C.3   368  1CP368      0.0411
     18  C32       12.2140   69.3550   59.9770 C.3   368  1CP368      0.1188
     19  C33       13.5680   69.9600   59.7550 C.2   368  1CP368      0.3652
     20  O23       14.5790   69.2040   59.8830 O.co2 368  1CP368     -0.2456
     21  O13       13.5840   71.2040   59.5120 O.co2 368  1CP368     -0.2456
     22  C2        13.3880   71.2060   62.7270 C.2   368  1CP368      0.0336
     23  C2A       14.7670   70.5960   62.9230 C.3   368  1CP368      0.0412
     24  C1        13.0300   72.4350   63.1540 C.1   368  1CP368      0.0084
     25  C20       13.9810   73.3580   63.8740 C.2   368  1CP368      0.1301
     26  C19       13.5560   74.7640   64.1930 C.1   368  1CP368      0.0183
     27  N24       12.2890   75.2310   64.4430 N.2   368  1CP368     -0.3327
     28  C18       14.4110   75.7990   64.3330 C.2   368  1CP368      0.0410
     29  C61       15.9240   75.7420   64.1730 C.3   368  1CP368      0.0482
     30  C62       16.3100   75.8970   62.6990 C.3   368  1CP368      0.1194
     31  C63       15.9840   77.2810   62.1440 C.2   368  1CP368      0.3652
     32  O1R       16.4770   78.3110   62.6650 O.co2 368  1CP368     -0.2456
     33  O2R       15.2030   77.3320   61.1540 O.co2 368  1CP368     -0.2456
     34  C17       13.6700   76.9240   64.7000 C.2   368  1CP368      0.0408
     35  C86       14.2230   78.3060   64.9260 C.3   368  1CP368      0.0418
     36  C16       12.3530   76.5610   64.7310 C.1   368  1CP368      0.0183
     37  C15       11.1630   77.4240   65.0580 C.2   368  1CP368      0.1301
     38  C14       10.1910   77.5270   63.8880 C.1   368  1CP368      0.0085
     39  N23        9.4050   76.4920   63.5060 N.2   368  1CP368     -0.3673
     40  C11        8.6240   76.8670   62.4280 C.2   368  1CP368      0.1469
     41  C12        8.9060   78.1540   62.1440 C.2   368  1CP368      0.0141
     42  C81        8.2950   79.0000   61.0390 C.3   368  1CP368      0.0341
     43  C13        9.9160   78.5770   63.0620 C.2   368  1CP368      0.0338
     44  C91       10.5590   79.9500   63.1080 C.3   368  1CP368      0.0476
     45  C92        9.6720   80.9460   63.8680 C.3   368  1CP368      0.1194
     46  C53       10.2460   82.3670   63.8530 C.2   368  1CP368      0.3652
     47  O2M        9.7220   83.2150   63.1020 O.co2 368  1CP368     -0.2456
     48  O1M       11.2240   82.6720   64.5720 O.co2 368  1CP368     -0.2456
@<TRIPOS>BOND
     1     1     2   ar
     2     3     2   ar
     3     2     4    1
     4     8     7    1
     5     5     4    1
     6     5     6    1
     7    21    19   ar
     8    19    20   ar
     9    19    18    1
    10    18    17    1
    11     7     6    2
    12     7    12    1
    13     6     9    1
    14    42    41    1
    15    33    31   ar
    16    12    13    2
    17    12    11    2
    18     9    10    2
    19     9    11    2
    20    17    16    1
    21    13    14    1
    22    10    40    1
    23    16    14    1
    24    16    22    2
    25    31    32   ar
    26    31    30    1
    27    41    40    1
    28    41    43    2
    29    14    15    2
    30    40    39    2
    31    30    29    1
    32    22    23    1
    33    22    24    1
    34    15    24    2
    35    43    44    1
    36    43    38    1
    37    47    46   ar
    38    44    45    1
    39    24    25    2
    40    39    38    2
    41    46    45    1
    42    46    48   ar
    43    25    26    1
    44    38    37    2
    45    29    28    1
    46    26    28    2
    47    26    27    2
    48    28    34    1
    49    27    36    2
    50    34    36    2
    51    34    35    1
    52    36    37    1
