@<TRIPOS>MOLECULE
1r3w_CP3_A_1.pdb
 48 52 0 0 0
SMALL
GASTEIGER

@<TRIPOS>ATOM
      1  O2R       15.9360   78.3730   63.0240 O.co2 950  CP3950     -0.2456
      2  C63       16.6960   77.3930   62.9420 C.2   950  CP3950      0.3652
      3  O1R       17.9460   77.4990   62.9300 O.co2 950  CP3950     -0.2456
      4  C62       16.0980   76.0190   62.8820 C.3   950  CP3950      0.1188
      5  C61       15.7670   75.6920   64.3320 C.3   950  CP3950      0.0411
      6  C18       14.2760   75.5920   64.5120 C.2   950  CP3950      0.0143
      7  C19       13.6090   74.4600   64.2550 C.2   950  CP3950      0.1469
      8  N24       12.2700   74.6980   64.5440 N.2   950  CP3950     -0.3673
      9  C20       14.3680   73.2380   63.7420 C.2   950  CP3950      0.0981
     10  C1        13.5600   72.1560   63.0640 C.1   950  CP3950      0.0112
     11  C17       13.3780   76.5850   64.9630 C.2   950  CP3950      0.0336
     12  C86       13.8020   77.9910   65.3310 C.3   950  CP3950      0.0412
     13  C16       12.1350   76.0170   64.9710 C.1   950  CP3950      0.0084
     14  C15       10.8080   76.6340   65.3660 C.2   950  CP3950      0.1301
     15  C14        9.8520   76.4600   64.2040 C.1   950  CP3950      0.0183
     16  N23        9.1020   75.3300   63.9710 N.2   950  CP3950     -0.3327
     17  C13        9.5810   77.3430   63.2050 C.2   950  CP3950      0.0410
     18  C51       10.2060   78.7270   63.0400 C.3   950  CP3950      0.0482
     19  C52        9.5470   79.7780   63.9390 C.3   950  CP3950      0.1194
     20  C53       10.2130   81.1530   63.9050 C.2   950  CP3950      0.3652
     21  O2M        9.5230   82.1630   64.2280 O.co2 950  CP3950     -0.2456
     22  O1M       11.4190   81.2410   63.5680 O.co2 950  CP3950     -0.2456
     23  C12        8.6230   76.7260   62.3400 C.2   950  CP3950      0.0408
     24  C81        8.0600   77.3840   61.1010 C.3   950  CP3950      0.0418
     25  C11        8.3360   75.4650   62.8280 C.1   950  CP3950      0.0183
     26  C10        7.3790   74.3750   62.2940 C.2   950  CP3950      0.1301
     27  C6         8.1420   73.2610   61.5520 C.1   950  CP3950      0.0084
     28  N22        9.0910   72.4270   62.1420 N.2   950  CP3950     -0.3673
     29  C7         8.0650   72.8890   60.2200 C.2   950  CP3950      0.0336
     30  C7A        7.1770   73.4880   59.1500 C.3   950  CP3950      0.0412
     31  C8         8.9760   71.8120   60.0050 C.2   950  CP3950      0.0143
     32  C41        9.2470   71.1440   58.6570 C.3   950  CP3950      0.0411
     33  C42       10.4370   71.8510   57.9560 C.3   950  CP3950      0.1188
     34  C43        9.9820   73.1220   57.1980 C.2   950  CP3950      0.3652
     35  O28       10.2170   74.2890   57.6450 O.co2 950  CP3950     -0.2456
     36  O18        9.3620   73.0140   56.1210 O.co2 950  CP3950     -0.2456
     37  C9         9.6110   71.5630   61.1910 C.2   950  CP3950      0.1469
     38  C5        10.6560   70.4820   61.4600 C.2   950  CP3950      0.0981
     39  C4        11.9700   70.9250   62.0710 C.1   950  CP3950      0.0112
     40  N21       12.2640   72.1780   62.5950 N.2   950  CP3950     -0.3338
     41  C3        13.0800   70.1360   62.2170 C.2   950  CP3950      0.0404
     42  C2        14.0730   70.9310   62.8400 C.2   950  CP3950      0.0402
     43  C2A       15.4810   70.4990   63.2020 C.3   950  CP3950      0.0418
     44  C31       13.2470   68.6480   61.8850 C.3   950  CP3950      0.0482
     45  C32       14.3560   68.2840   60.9090 C.3   950  CP3950      0.1194
     46  C33       13.8280   68.4470   59.4950 C.2   950  CP3950      0.3652
     47  O13       14.5650   68.1370   58.5330 O.co2 950  CP3950     -0.2456
     48  O23       12.6510   68.8870   59.3750 O.co2 950  CP3950     -0.2456
@<TRIPOS>BOND
     1    36    34   ar
     2    34    35   ar
     3    34    33    1
     4    33    32    1
     5    47    46   ar
     6    32    31    1
     7    30    29    1
     8    48    46   ar
     9    46    45    1
    10    31    29    2
    11    31    37    1
    12    29    27    1
    13    45    44    1
    14    24    23    1
    15    37    38    1
    16    37    28    2
    17    38    39    2
    18    27    28    2
    19    27    26    2
    20    44    41    1
    21    39    41    1
    22    39    40    2
    23    41    42    2
    24    26    25    1
    25    23    25    2
    26    23    17    1
    27    40    10    2
    28    25    16    2
    29    42    10    1
    30    42    43    1
    31     4     2    1
    32     4     5    1
    33     3     2   ar
    34     2     1   ar
    35    18    17    1
    36    18    19    1
    37    10     9    2
    38    17    15    2
    39    22    20   ar
    40     9     7    1
    41    20    19    1
    42    20    21   ar
    43    16    15    2
    44    15    14    1
    45     7     6    1
    46     7     8    2
    47     5     6    1
    48     6    11    2
    49     8    13    2
    50    11    13    1
    51    11    12    1
    52    13    14    2
