@<TRIPOS>MOLECULE
1r3y_CP3_A_1.pdb
 48 52 0 0 0
SMALL
GASTEIGER

@<TRIPOS>ATOM
      1  O2R       14.7340   77.9570   62.5940 O.co2 867  CP3867     -0.2456
      2  C63       15.6020   77.0910   62.9220 C.2   867  CP3867      0.3652
      3  O1R       15.9120   76.0930   62.2440 O.co2 867  CP3867     -0.2456
      4  C62       16.3200   77.1720   64.2220 C.3   867  CP3867      0.1188
      5  C61       15.9180   75.9480   65.1290 C.3   867  CP3867      0.0411
      6  C18       14.4070   75.6680   65.3320 C.2   867  CP3867      0.0143
      7  C19       13.7200   74.5070   65.1940 C.2   867  CP3867      0.1469
      8  N24       12.3780   74.6930   65.5060 N.2   867  CP3867     -0.3673
      9  C20       14.3950   73.2430   64.7210 C.2   867  CP3867      0.0981
     10  C1        13.5570   72.2480   63.9520 C.1   867  CP3867      0.0112
     11  C17       13.4600   76.6010   65.7750 C.2   867  CP3867      0.0336
     12  C86       13.8740   78.0120   66.0440 C.3   867  CP3867      0.0412
     13  C16       12.2240   76.0330   65.8350 C.1   867  CP3867      0.0084
     14  C15       10.9230   76.6590   66.2480 C.2   867  CP3867      0.1301
     15  C14        9.9380   76.5800   65.0920 C.1   867  CP3867      0.0183
     16  N23        9.2180   75.4490   64.8620 N.2   867  CP3867     -0.3327
     17  C13        9.5670   77.5180   64.1490 C.2   867  CP3867      0.0410
     18  C51       10.1000   78.9560   63.9600 C.3   867  CP3867      0.0482
     19  C52        9.3490   80.0230   64.7990 C.3   867  CP3867      0.1194
     20  C53        9.7310   81.5200   64.7390 C.2   867  CP3867      0.3652
     21  O2M        8.8860   82.3130   64.2010 O.co2 867  CP3867     -0.2456
     22  O1M       10.8040   81.9730   65.2390 O.co2 867  CP3867     -0.2456
     23  C12        8.5890   76.8680   63.3250 C.2   867  CP3867      0.0408
     24  C81        7.9070   77.5280   62.1550 C.3   867  CP3867      0.0418
     25  C11        8.3720   75.5810   63.7740 C.1   867  CP3867      0.0183
     26  C10        7.4390   74.4670   63.2750 C.2   867  CP3867      0.1301
     27  C6         8.1810   73.3950   62.4680 C.1   867  CP3867      0.0084
     28  N22        9.1180   72.5620   63.0470 N.2   867  CP3867     -0.3673
     29  C7         8.1040   73.0440   61.1400 C.2   867  CP3867      0.0336
     30  C7A        7.2110   73.6750   60.0910 C.3   867  CP3867      0.0412
     31  C8         9.0140   71.9820   60.8880 C.2   867  CP3867      0.0143
     32  C41        9.2760   71.3450   59.5180 C.3   867  CP3867      0.0411
     33  C42       10.4280   72.0610   58.7870 C.3   867  CP3867      0.1188
     34  C43        9.9880   73.2860   57.9840 C.2   867  CP3867      0.3652
     35  O28       10.2780   74.3960   58.4820 O.co2 867  CP3867     -0.2456
     36  O18        9.3340   73.1850   56.8830 O.co2 867  CP3867     -0.2456
     37  C9         9.6540   71.7110   62.0760 C.2   867  CP3867      0.1469
     38  C5        10.6800   70.6260   62.3240 C.2   867  CP3867      0.0981
     39  C4        11.9950   71.0660   62.9010 C.1   867  CP3867      0.0112
     40  N21       12.2410   72.2640   63.5350 N.2   867  CP3867     -0.3338
     41  C3        13.1260   70.3000   62.9740 C.2   867  CP3867      0.0404
     42  C2        14.1000   71.0680   63.6230 C.2   867  CP3867      0.0402
     43  C2A       15.5140   70.6720   63.9500 C.3   867  CP3867      0.0418
     44  C31       13.3050   68.8370   62.5950 C.3   867  CP3867      0.0482
     45  C32       14.3690   68.4750   61.6080 C.3   867  CP3867      0.1194
     46  C33       13.7030   68.4890   60.2720 C.2   867  CP3867      0.3652
     47  O13       14.3940   68.3270   59.2420 O.co2 867  CP3867     -0.2456
     48  O23       12.4520   68.6700   60.3030 O.co2 867  CP3867     -0.2456
@<TRIPOS>BOND
     1    36    34   ar
     2    34    35   ar
     3    34    33    1
     4    33    32    1
     5    47    46   ar
     6    32    31    1
     7    30    29    1
     8    46    48   ar
     9    46    45    1
    10    31    29    2
    11    31    37    1
    12    29    27    1
    13    45    44    1
    14    37    38    1
    15    37    28    2
    16    24    23    1
    17     3     2   ar
    18    38    39    2
    19    27    28    2
    20    27    26    2
    21     1     2   ar
    22    44    41    1
    23    39    41    1
    24    39    40    2
    25     2     4    1
    26    41    42    2
    27    26    25    1
    28    23    25    2
    29    23    17    1
    30    40    10    2
    31    42    43    1
    32    42    10    1
    33    25    16    2
    34    10     9    2
    35    18    17    1
    36    18    19    1
    37    17    15    2
    38    21    20   ar
    39     4     5    1
    40     9     7    1
    41    20    19    1
    42    20    22   ar
    43    16    15    2
    44    15    14    1
    45     5     6    1
    46     7     6    1
    47     7     8    2
    48     6    11    2
    49     8    13    2
    50    11    13    1
    51    11    12    1
    52    13    14    2
