@<TRIPOS>MOLECULE
1r46_NAG_A_1.pdb
 14 14 0 0 0
SMALL
GASTEIGER

@<TRIPOS>ATOM
      1  C1       -32.3920   69.3660  110.8230 C.3   639  NAG639      0.1665
      2  C2       -31.7560   70.0680  112.0360 C.3   639  NAG639      0.1576
      3  C3       -32.8240   70.8780  112.7940 C.3   639  NAG639      0.2069
      4  C4       -33.4830   71.8830  111.8340 C.3   639  NAG639      0.2134
      5  C5       -34.0810   71.1140  110.6340 C.3   639  NAG639      0.1809
      6  C6       -34.7950   71.9840  109.5800 C.3   639  NAG639      0.2141
      7  C7       -29.8590   69.1120  113.1550 C.2   639  NAG639      0.2420
      8  C8       -29.3120   68.0480  114.0820 C.3   639  NAG639      0.0964
      9  N2       -31.1620   69.0820  112.9130 N.am  639  NAG639     -0.2019
     10  O3       -32.2320   71.5620  113.8920 O.3   639  NAG639     -0.2184
     11  O4       -34.4950   72.6250  112.5110 O.3   639  NAG639     -0.2176
     12  O5       -33.0330   70.3450  109.9580 O.3   639  NAG639     -0.3489
     13  O6       -34.2450   73.2990  109.4820 O.3   639  NAG639     -0.2176
     14  O7       -29.1030   69.9420  112.6630 O.2   639  NAG639     -0.2733
@<TRIPOS>BOND
     1    13     6    1
     2     6     5    1
     3    12     5    1
     4    12     1    1
     5     5     4    1
     6     1     2    1
     7     4    11    1
     8     4     3    1
     9     2     3    1
    10     2     9    1
    11    14     7    2
    12     3    10    1
    13     9     7   am
    14     7     8    1
