@<TRIPOS>MOLECULE
1r47_NAG_A_1.pdb
 14 14 0 0 0
SMALL
GASTEIGER

@<TRIPOS>ATOM
      1  C1       -32.1390   70.2600  111.4210 C.3   639  NAG639      0.1665
      2  C2       -31.3720   70.7760  112.6540 C.3   639  NAG639      0.1576
      3  C3       -32.3950   71.4190  113.6140 C.3   639  NAG639      0.2069
      4  C4       -33.1460   72.5750  112.9300 C.3   639  NAG639      0.2134
      5  C5       -33.7840   72.0420  111.6270 C.3   639  NAG639      0.1809
      6  C6       -34.5150   73.1020  110.7850 C.3   639  NAG639      0.2141
      7  C7       -29.4100   69.7840  113.6500 C.2   639  NAG639      0.2420
      8  C8       -28.7910   68.5830  114.3460 C.3   639  NAG639      0.0964
      9  N2       -30.6920   69.6800  113.3160 N.am  639  NAG639     -0.2019
     10  O3       -31.7490   71.9000  114.7880 O.3   639  NAG639     -0.2184
     11  O4       -34.1790   73.0410  113.8380 O.3   639  NAG639     -0.2176
     12  O5       -32.7860   71.3850  110.7760 O.3   639  NAG639     -0.3489
     13  O6       -33.6250   73.9910  110.1060 O.3   639  NAG639     -0.2176
     14  O7       -28.7290   70.7810  113.4130 O.2   639  NAG639     -0.2733
@<TRIPOS>BOND
     1    13     6    1
     2    12     1    1
     3    12     5    1
     4     6     5    1
     5     1     2    1
     6     5     4    1
     7     2     9    1
     8     2     3    1
     9     4     3    1
    10     4    11    1
    11     9     7   am
    12    14     7    2
    13     3    10    1
    14     7     8    1
