@<TRIPOS>MOLECULE
1r47_GAL_A_1.pdb
 12 12 0 0 0
SMALL
GASTEIGER

@<TRIPOS>ATOM
      1  C1       -17.7810   61.0620  105.4140 C.3   1101  GAL1101     0.3024
      2  C2       -16.8530   59.9680  105.9520 C.3   1101  GAL1101     0.2434
      3  C3       -16.4060   59.0430  104.8310 C.3   1101  GAL1101     0.2199
      4  C4       -17.6720   58.4570  104.2350 C.3   1101  GAL1101     0.2144
      5  C5       -18.5240   59.5900  103.6800 C.3   1101  GAL1101     0.1836
      6  C6       -19.7970   59.1140  103.0100 C.3   1101  GAL1101     0.2142
      7  O1       -17.0820   61.8540  104.5250 O.3   1101  GAL1101    -0.1869
      8  O2       -15.7280   60.5290  106.6100 O.3   1101  GAL1101    -0.2148
      9  O3       -15.5490   58.0090  105.3280 O.3   1101  GAL1101    -0.2174
     10  O4       -18.3790   57.7760  105.2580 O.3   1101  GAL1101    -0.2176
     11  O5       -18.9090   60.4850  104.7330 O.3   1101  GAL1101    -0.3236
     12  O6       -20.6980   60.1920  102.7910 O.3   1101  GAL1101    -0.2176
@<TRIPOS>BOND
     1    12     6    1
     2     6     5    1
     3     5     4    1
     4     5    11    1
     5     4     3    1
     6     4    10    1
     7     7     1    1
     8    11     1    1
     9     3     9    1
    10     3     2    1
    11     1     2    1
    12     2     8    1
