@<TRIPOS>MOLECULE
1r4a_GNP_A_1.pdb
 32 34 0 0 0
SMALL
GASTEIGER

@<TRIPOS>ATOM
      1  PG       -31.5650   -6.3330   60.7830 P.3   1201  GNP1201     0.4884
      2  O1G      -32.5140   -7.5040   60.7210 O.3   1201  GNP1201    -0.1240
      3  O2G      -31.5430   -5.5650   59.4720 O.2   1201  GNP1201    -0.2331
      4  O3G      -30.1770   -6.7330   61.1770 O.3   1201  GNP1201    -0.1240
      5  N3B      -32.3140   -5.3290   61.9590 N.3   1201  GNP1201    -0.0163
      6  PB       -31.6410   -3.8620   62.4270 P.3   1201  GNP1201     0.4669
      7  O1B      -30.6310   -4.1630   63.4430 O.3   1201  GNP1201    -0.1253
      8  O2B      -31.2130   -3.1030   61.2070 O.2   1201  GNP1201    -0.2351
      9  O3A      -32.9270   -3.1220   63.1040 O.3   1201  GNP1201    -0.2360
     10  PA       -33.7860   -1.9160   62.6080 P.3   1201  GNP1201     0.2220
     11  O1A      -33.0240   -0.6450   62.5640 O.3   1201  GNP1201    -0.4370
     12  O2A      -34.4790   -2.3910   61.3370 O.2   1201  GNP1201    -0.5170
     13  O5'      -34.8200   -1.8010   63.7200 O.3   1201  GNP1201    -0.3111
     14  C5'      -35.7420   -2.8760   64.0490 C.3   1201  GNP1201     0.1813
     15  C4'      -36.9450   -2.3180   64.7610 C.3   1201  GNP1201     0.1799
     16  O4'      -36.7000   -1.6730   65.9780 O.3   1201  GNP1201    -0.3326
     17  C3'      -37.7210   -1.2700   63.8910 C.3   1201  GNP1201     0.2158
     18  O3'      -39.1430   -1.5300   63.8940 O.3   1201  GNP1201    -0.2175
     19  C2'      -37.3870    0.0710   64.5570 C.3   1201  GNP1201     0.2310
     20  O2'      -38.3610    1.0590   64.3920 O.3   1201  GNP1201    -0.2158
     21  C1'      -37.2090   -0.3480   65.9940 C.3   1201  GNP1201     0.2293
     22  N9       -36.2370    0.5500   66.7030 N.pl3 1201  GNP1201    -0.2354
     23  C8       -34.9110    0.9010   66.1750 C.3   1201  GNP1201     0.2246
     24  N7       -34.2850    1.7020   67.0040 N.2   1201  GNP1201    -0.2322
     25  C5       -35.2330    1.8930   68.1350 C.2   1201  GNP1201     0.2182
     26  C6       -35.0780    2.6930   69.3570 C.1   1201  GNP1201     0.2372
     27  O6       -34.1630    3.3480   69.7010 O.2   1201  GNP1201    -0.2069
     28  N1       -36.2190    2.6030   70.1640 N.2   1201  GNP1201    -0.2485
     29  C2       -37.2870    1.8260   69.7440 C.1   1201  GNP1201     0.2531
     30  N2       -38.3320    1.8830   70.7180 N.pl3 1201  GNP1201    -0.0226
     31  N3       -37.5050    1.0950   68.6960 N.2   1201  GNP1201    -0.3074
     32  C4       -36.3850    1.1850   67.8960 C.2   1201  GNP1201     0.2300
@<TRIPOS>BOND
     1     3     1    2
     2     2     1    1
     3     1     4    1
     4     1     5    1
     5     8     6    2
     6    12    10    2
     7     5     6    1
     8     6     9    1
     9     6     7    1
    10    11    10    1
    11    10     9    1
    12    10    13    1
    13    13    14    1
    14    17    18    1
    15    17    19    1
    16    17    15    1
    17    14    15    1
    18    20    19    1
    19    19    21    1
    20    15    16    1
    21    16    21    1
    22    21    22    1
    23    23    22    1
    24    23    24    1
    25    22    32    1
    26    24    25    2
    27    32    25    1
    28    32    31    2
    29    25    26    1
    30    31    29    2
    31    26    27    2
    32    26    28    2
    33    29    28    2
    34    29    30    1
