@<TRIPOS>MOLECULE
1r4f_AD3_B_1.pdb
 19 21 0 0 0
SMALL
GASTEIGER

@<TRIPOS>ATOM
      1  O5'       23.5480   27.5290   42.7500 O.3   330  AD3330     -0.2176
      2  C5'       24.3690   28.6220   42.3090 C.3   330  AD3330      0.2142
      3  C4'       25.5660   27.9390   41.6380 C.3   330  AD3330      0.1825
      4  O4'       25.1570   27.0000   40.5720 O.3   330  AD3330     -0.3353
      5  C3'       26.5110   28.9470   40.9850 C.3   330  AD3330      0.2156
      6  O3'       27.8480   28.6270   41.4270 O.3   330  AD3330     -0.2176
      7  C2'       26.3580   28.8120   39.4660 C.3   330  AD3330      0.2272
      8  O2'       27.5950   28.8620   38.7400 O.3   330  AD3330     -0.2161
      9  C1'       25.5380   27.5070   39.2790 C.3   330  AD3330      0.2115
     10  N9        24.3860   27.6890   38.3040 N.3   330  AD3330     -0.2195
     11  C8        24.5150   28.0290   36.9350 C.3   330  AD3330      0.2032
     12  N7        23.3890   28.1060   36.2640 N.2   330  AD3330     -0.2473
     13  C5        22.4060   27.8030   37.2200 C.2   330  AD3330      0.1645
     14  C6        20.9360   27.7050   37.1600 C.2   330  AD3330      0.4302
     15  N6        20.2280   27.9170   36.0450 N.pl3 330  AD3330      0.2177
     16  N1        20.2640   27.3730   38.3270 N.2   330  AD3330     -0.0279
     17  C2        20.9490   27.1500   39.4820 C.2   330  AD3330      0.2332
     18  C3        22.3000   27.2050   39.6830 C.2   330  AD3330      0.0464
     19  C4        22.9930   27.5440   38.4880 C.3   330  AD3330      0.1351
@<TRIPOS>BOND
     1    15    14    1
     2    12    11    1
     3    12    13    2
     4    11    10    1
     5    14    13    1
     6    14    16    2
     7    13    19    1
     8    10    19    1
     9    10     9    1
    10    16    17    1
    11    19    18    1
    12     8     7    1
    13     9     7    1
    14     9     4    1
    15     7     5    1
    16    17    18    2
    17     4     3    1
    18     5     6    1
    19     5     3    1
    20     3     2    1
    21     2     1    1
