@<TRIPOS>MOLECULE
1r4l_XX5_A_1.pdb
 28 29 0 0 0
SMALL
GASTEIGER

@<TRIPOS>ATOM
      1  O1        38.2750    6.5680   23.4960 O.co2 804  XX5804     -0.2441
      2  C2        38.3290    6.9780   24.6450 C.2   804  XX5804      0.3803
      3  O3        38.2580    8.1710   24.8880 O.co2 804  XX5804     -0.2441
      4  C4        38.4970    5.9530   25.7980 C.3   804  XX5804      0.1762
      5  C5        37.2120    5.5410   26.5440 C.3   804  XX5804      0.0289
      6  C6        35.8460    6.0590   26.1190 C.3   804  XX5804      0.0020
      7  C7        34.8290    5.5310   27.1100 C.3   804  XX5804      0.0001
      8  C8        35.4450    5.5210   24.7410 C.3   804  XX5804      0.0001
      9  N9        39.4770    6.3660   26.8120 N.3   804  XX5804     -0.1981
     10  C10       40.8700    6.0060   26.5230 C.3   804  XX5804      0.1821
     11  C11       41.1040    4.5290   26.0730 C.2   804  XX5804      0.3807
     12  O12       41.4430    4.3310   24.9100 O.co2 804  XX5804     -0.2441
     13  O13       40.9570    3.6150   26.8740 O.co2 804  XX5804     -0.2441
     14  C14       41.7770    6.3410   27.7390 C.3   804  XX5804      0.0744
     15  C15       43.2350    6.1620   27.3570 C.ar  804  XX5804      0.0598
     16  C16       43.8580    6.7710   26.2490 C.ar  804  XX5804      0.1134
     17  N17       45.1210    6.3640   26.2460 N.ar  804  XX5804     -0.2227
     18  C18       45.2640    5.5430   27.3090 C.ar  804  XX5804      0.1786
     19  N19       44.1580    5.3670   28.0440 N.ar  804  XX5804     -0.3082
     20  C20       43.9510    4.5190   29.3010 C.3   804  XX5804      0.1340
     21  C21       43.9250    5.1530   30.7230 C.ar  804  XX5804      0.0021
     22  C22       44.6660    6.3460   30.9900 C.ar  804  XX5804      0.0091
     23  C23       44.6530    6.9500   32.3070 C.ar  804  XX5804      0.0583
     24 CL24       45.5690    8.4330   32.6490 Cl    804  XX5804     -0.0822
     25  C25       43.9050    6.3810   33.3690 C.ar  804  XX5804      0.0228
     26  C26       43.1710    4.5910   31.8240 C.ar  804  XX5804      0.0091
     27  C27       43.1620    5.2070   33.1460 C.ar  804  XX5804      0.0583
     28 CL28       42.2250    4.5190   34.5160 Cl    804  XX5804     -0.0822
@<TRIPOS>BOND
     1     1     2   ar
     2     2     3   ar
     3     2     4    1
     4     8     6    1
     5    12    11   ar
     6     4     5    1
     7     4     9    1
     8    11    10    1
     9    11    13   ar
    10     6     5    1
    11     6     7    1
    12    17    16   ar
    13    17    18   ar
    14    16    15   ar
    15    10     9    1
    16    10    14    1
    17    18    19   ar
    18    15    14    1
    19    15    19   ar
    20    19    20    1
    21    20    21    1
    22    21    22   ar
    23    21    26   ar
    24    22    23   ar
    25    26    27   ar
    26    23    24    1
    27    23    25   ar
    28    27    25   ar
    29    27    28    1
