@<TRIPOS>MOLECULE
1r4n_ATP_B_1.pdb
 31 33 0 0 0
SMALL
GASTEIGER

@<TRIPOS>ATOM
      1  PG        55.6280  102.1220   18.9220 P.3     5  ATP5        0.5373
      2  O1G       57.0850  102.4480   19.1590 O.3     5  ATP5       -0.1143
      3  O2G       54.9940  101.3120   20.1140 O.3     5  ATP5       -0.1143
      4  O3G       54.8700  103.4590   18.6520 O.2     5  ATP5       -0.2221
      5  PB        55.8760   99.7520   17.5730 P.3     5  ATP5        0.2277
      6  O1B       55.8410   99.2080   16.1860 O.2     5  ATP5       -0.5168
      7  O2B       55.7170   98.9970   18.9180 O.3     5  ATP5       -0.4368
      8  O3B       55.5670  101.2950   17.5580 O.3     5  ATP5       -0.2258
      9  PA        52.9260   98.8630   18.1630 P.3     5  ATP5        0.2189
     10  O1A       53.4760   98.1360   19.3180 O.3     5  ATP5       -0.4371
     11  O2A       51.9280   99.9100   18.6140 O.2     5  ATP5       -0.5170
     12  O3A       54.1890   99.5740   17.3420 O.3     5  ATP5       -0.2700
     13  O5'       52.2030   97.8100   17.1480 O.3     5  ATP5       -0.3112
     14  C5'       52.8910   97.2130   16.0860 C.3     5  ATP5        0.1813
     15  C4'       53.0740   95.7180   16.3510 C.3     5  ATP5        0.1821
     16  O4'       53.1630   95.0280   15.1190 O.3     5  ATP5       -0.3135
     17  C3'       54.3490   95.4270   17.0650 C.3     5  ATP5        0.2184
     18  O3'       54.0210   94.3710   17.9710 O.3     5  ATP5       -0.2174
     19  C2'       55.3210   95.0520   15.9340 C.3     5  ATP5        0.2570
     20  O2'       56.4650   94.3380   16.2050 O.3     5  ATP5       -0.2130
     21  C1'       54.4200   94.3230   14.9880 C.3     5  ATP5        0.3186
     22  N9        54.6660   94.4530   13.5300 N.pl3   5  ATP5       -0.1439
     23  C8        54.7490   95.6610   12.9250 C.3     5  ATP5        0.3377
     24  N7        54.9840   95.4720   11.6510 N.2     5  ATP5       -0.2095
     25  C5        55.0600   94.1720   11.3560 C.2     5  ATP5        0.2526
     26  C6        55.3090   93.4160   10.1980 C.2     5  ATP5        0.4393
     27  N6        55.5550   93.9280    8.9930 N.pl3   5  ATP5        0.2180
     28  N1        55.3180   92.0220   10.2850 N.2     5  ATP5        0.0021
     29  C2        55.1230   91.3840   11.4900 C.3     5  ATP5        0.5254
     30  N3        54.8850   92.1270   12.6490 N.2     5  ATP5       -0.0055
     31  C4        54.8830   93.4920   12.5720 C.2     5  ATP5        0.3518
@<TRIPOS>BOND
     1    27    26    1
     2    26    28    2
     3    26    25    1
     4    28    29    1
     5    25    24    2
     6    25    31    1
     7    29    30    1
     8    24    23    1
     9    31    30    2
    10    31    22    1
    11    23    22    1
    12    22    21    1
    13    21    16    1
    14    21    19    1
    15    16    15    1
    16    19    20    1
    17    19    17    1
    18    14    15    1
    19    14    13    1
    20     6     5    2
    21    15    17    1
    22    17    18    1
    23    13     9    1
    24    12     5    1
    25    12     9    1
    26     8     5    1
    27     8     1    1
    28     5     7    1
    29     9    11    2
    30     9    10    1
    31     4     1    2
    32     1     2    1
    33     1     3    1
