@<TRIPOS>MOLECULE
1r4p_1PS_B_1.pdb
 13 13 0 0 0
SMALL
GASTEIGER

@<TRIPOS>ATOM
      1  N1        27.0180   29.1730  -16.4740 N.pl3 1002  1PS1002    -0.3026
      2  C1        28.1330   29.5890  -15.7620 C.3   1002  1PS1002     0.1175
      3  C2        29.4140   29.4680  -16.3160 C.2   1002  1PS1002    -0.0047
      4  C3        27.1590   28.6400  -17.7380 C.2   1002  1PS1002     0.0616
      5  C4        28.4280   28.5130  -18.3100 C.2   1002  1PS1002     0.0155
      6  C5        29.5570   28.9260  -17.5950 C.2   1002  1PS1002    -0.0016
      7  C6        25.6510   29.2930  -15.8740 C.3   1002  1PS1002     0.0928
      8  C7        25.1560   28.0140  -15.2170 C.3   1002  1PS1002     0.0429
      9  C8        25.9580   27.6800  -13.9890 C.3   1002  1PS1002     0.1070
     10  S1        25.6160   26.0720  -13.3170 S.3   1002  1PS1002    -0.1960
     11  O1        26.4630   25.9350  -12.1130 O.3   1002  1PS1002    -0.3075
     12  O2        25.9890   25.1120  -14.3700 O.3   1002  1PS1002    -0.3075
     13  O3        24.1790   26.0580  -13.0300 O.3   1002  1PS1002    -0.3075
@<TRIPOS>BOND
     1     5     4    2
     2     5     6    1
     3     4     1    1
     4     6     3    2
     5     1     7    1
     6     1     2    1
     7     3     2    1
     8     7     8    1
     9     8     9    1
    10    12    10    1
    11     9    10    1
    12    10    13    1
    13    10    11    1
