@<TRIPOS>MOLECULE
1r4s_MUA_A_1.pdb
 13 14 0 0 0
SMALL
GASTEIGER

@<TRIPOS>ATOM
      1  N1        30.0280   27.8420   36.8310 N.2   800  MUA800     -0.2300
      2  C2        29.2690   27.6420   37.9580 C.1   800  MUA800      0.3669
      3  O2        28.1220   28.0270   37.9960 O.2   800  MUA800     -0.1744
      4  N3        29.8480   26.9830   39.0470 N.2   800  MUA800     -0.2880
      5  C4        31.0910   26.5480   38.8850 C.2   800  MUA800      0.2556
      6  C5        31.8670   26.7240   37.7660 C.2   800  MUA800      0.2850
      7  C6        31.3310   27.4510   36.6210 C.1   800  MUA800      0.2524
      8  O6        31.9320   27.6940   35.5850 O.2   800  MUA800     -0.2057
      9  N7        33.0600   26.1450   37.9490 N.2   800  MUA800     -0.3037
     10  C8        33.1330   25.5550   39.2190 C.1   800  MUA800      0.2752
     11  N9        31.9290   25.7740   39.8780 N.am  800  MUA800     -0.1750
     12  C10       31.4690   25.3650   41.2960 C.3   800  MUA800      0.1343
     13  O8        34.0710   24.9510   39.6630 O.2   800  MUA800     -0.1925
@<TRIPOS>BOND
     1     8     7    2
     2     7     1    2
     3     7     6    1
     4     1     2    2
     5     6     9    2
     6     6     5    1
     7     9    10    2
     8     2     3    2
     9     2     4    2
    10     5     4    2
    11     5    11    1
    12    10    13    2
    13    10    11   am
    14    11    12    1
