@<TRIPOS>MOLECULE
1r4u_OXC_A_1.pdb
 11 11 0 0 0
SMALL
GASTEIGER

@<TRIPOS>ATOM
      1  N1        30.2650   27.5840   36.6050 N.2   999  OXC999     -0.2057
      2  C2        29.5660   27.4060   37.7630 C.1   999  OXC999      0.3772
      3  O2        28.3910   27.7770   37.8600 O.2   999  OXC999     -0.1737
      4  N3        30.1870   26.7680   38.8080 N.2   999  OXC999     -0.2336
      5  C4        31.4490   26.3910   38.6630 C.1   999  OXC999      0.2465
      6  N5        32.1650   26.5870   37.5440 N.2   999  OXC999     -0.2336
      7  C6        31.5580   27.2120   36.3810 C.1   999  OXC999      0.3772
      8  O6        32.1080   27.4350   35.3230 O.2   999  OXC999     -0.1737
      9  CG        32.1630   25.7700   39.8340 C.2   999  OXC999      0.4728
     10  OD1       33.4010   25.6320   39.6900 O.co2 999  OXC999     -0.2267
     11  OD2       31.5310   25.4880   40.8560 O.co2 999  OXC999     -0.2267
@<TRIPOS>BOND
     1     8     7    2
     2     7     1    2
     3     7     6    2
     4     1     2    2
     5     6     5    2
     6     2     3    2
     7     2     4    2
     8     5     4    2
     9     5     9    1
    10    10     9   ar
    11     9    11   ar
