@<TRIPOS>MOLECULE
1r4w_GSH_A_1.pdb
 20 19 0 0 0
SMALL
GASTEIGER

@<TRIPOS>ATOM
      1  N1       -40.0480   -3.6560   -1.9500 N.3   301  GSH301     -0.1208
      2  CA1      -40.0160   -4.7010   -2.9740 C.3   301  GSH301      0.1948
      3  C1       -38.7550   -4.5760   -3.8090 C.2   301  GSH301      0.3819
      4  O11      -38.4520   -5.4920   -4.6160 O.co2 301  GSH301     -0.2441
      5  O12      -38.0200   -3.4810   -3.5740 O.co2 301  GSH301     -0.2441
      6  CB1      -41.3410   -4.5470   -3.7450 C.3   301  GSH301      0.0402
      7  CG1      -41.7230   -5.8250   -4.5120 C.3   301  GSH301      0.0889
      8  CD1      -43.1800   -5.6340   -5.1350 C.2   301  GSH301      0.2418
      9  OE1      -43.8490   -4.5750   -4.9600 O.2   301  GSH301     -0.2733
     10  N2       -43.6530   -6.7130   -5.8090 N.am  301  GSH301     -0.1968
     11  CA2      -45.0180   -6.6960   -6.3780 C.3   301  GSH301      0.1843
     12  C2       -45.7670   -7.5330   -5.3230 C.2   301  GSH301      0.2627
     13  O2       -45.7940   -8.7630   -5.4040 O.2   301  GSH301     -0.2714
     14  CB2      -45.1390   -7.4270   -7.7760 C.3   301  GSH301      0.0997
     15  SG2      -44.0000   -6.7210   -9.0730 S.3   301  GSH301     -0.0797
     16  N3       -46.3410   -6.8330   -4.2900 N.am  301  GSH301     -0.1917
     17  CA3      -47.0900   -7.4350   -3.1170 C.3   301  GSH301      0.2285
     18  C3       -47.1360   -6.4420   -1.9040 C.2   301  GSH301      0.3865
     19  O31      -47.7280   -6.8430   -0.8740 O.co2 301  GSH301     -0.2437
     20  O32      -46.5760   -5.2740   -1.9950 O.co2 301  GSH301     -0.2437
@<TRIPOS>BOND
     1    15    14    1
     2    14    11    1
     3    11    10    1
     4    11    12    1
     5    10     8   am
     6    13    12    2
     7    12    16   am
     8     8     9    2
     9     8     7    1
    10     4     3   ar
    11     7     6    1
    12    16    17    1
    13     3     5   ar
    14     3     2    1
    15     6     2    1
    16    17    18    1
    17     2     1    1
    18    20    18   ar
    19    18    19   ar
