@<TRIPOS>MOLECULE
1r51_AZA_A_1.pdb
 11 12 0 0 0
SMALL
GASTEIGER

@<TRIPOS>ATOM
      1  N1        30.4770   27.8420   36.7840 N.2   302  AZA302     -0.2300
      2  C2        29.7020   27.6200   37.8960 C.1   302  AZA302      0.3745
      3  O2        28.5850   28.0860   37.9230 O.2   302  AZA302     -0.1738
      4  N3        30.2350   26.8870   38.9240 N.2   302  AZA302     -0.2491
      5  C4        31.5000   26.4100   38.7650 C.1   302  AZA302      0.1531
      6  C5        32.2740   26.6140   37.6400 C.2   302  AZA302      0.2717
      7  C6        31.7620   27.4180   36.5560 C.1   302  AZA302      0.2477
      8  O6        32.3350   27.6940   35.5160 O.2   302  AZA302     -0.2062
      9  N7        33.4540   26.0310   37.7200 N.2   302  AZA302     -0.1149
     10  N8        33.4560   25.5050   38.9360 N.pl3 302  AZA302     -0.0026
     11  N9        32.2750   25.6920   39.6270 N.2   302  AZA302     -0.0705
@<TRIPOS>BOND
     1     8     7    2
     2     7     1    2
     3     7     6    1
     4     1     2    2
     5     6     9    2
     6     6     5    1
     7     9    10    1
     8     2     3    2
     9     2     4    2
    10     5     4    2
    11     5    11    2
    12    10    11    1
