@<TRIPOS>MOLECULE
1r55_097_A_1.pdb
 23 22 0 0 0
SMALL
GASTEIGER

@<TRIPOS>ATOM
      1  N1         9.2380   13.3090   24.5120 N.am  518  097518     -0.1977
      2  C2        11.0490   16.6580   24.4840 C.3   518  097518      0.0000
      3  O2        11.1370   12.5040   22.5230 O.2   518  097518     -0.2715
      4  C4         9.3710   13.6010   25.8150 C.2   518  097518      0.2442
      5  O3         7.7670   18.2020   29.0500 O.3   518  097518     -0.4026
      6  C5         9.4500   11.9230   24.1200 C.3   518  097518      0.1726
      7  C6         8.2890   11.4530   23.2340 C.3   518  097518      0.0270
      8  C8         8.1580   12.3860   22.0150 C.3   518  097518      0.0022
      9  C9         8.5450   10.0130   22.7590 C.3   518  097518      0.0022
     10  C10       10.7830   11.7330   23.4160 C.2   518  097518      0.2613
     11  C11       12.7670   10.3810   23.2210 C.3   518  097518      0.1386
     12  N3         7.9160   16.8480   28.8540 N.am  518  097518     -0.2004
     13  C12        7.6330   16.5310   27.5810 C.2   518  097518      0.1180
     14  O4         7.1610   17.3410   26.7870 O.2   518  097518     -0.5374
     15  C13        7.9410   15.1230   27.1540 C.3   518  097518      0.2050
     16  O5         6.7810   14.4760   26.6530 O.3   518  097518     -0.2157
     17  C14        9.0900   15.0580   26.1490 C.3   518  097518      0.1147
     18  C15       10.3530   15.7170   26.7200 C.3   518  097518      0.0121
     19  C1        11.4960   15.8800   25.7060 C.3   518  097518      0.0006
     20  C3        12.6810   16.5890   26.3600 C.3   518  097518      0.0000
     21  O1         9.6760   12.7950   26.6940 O.2   518  097518     -0.2732
     22  C7         6.9900   11.5010   24.0580 C.3   518  097518      0.0022
     23  N2        11.5000   10.6890   23.8780 N.am  518  097518     -0.2021
@<TRIPOS>BOND
     1     8     7    1
     2     3    10    2
     3     9     7    1
     4    11    23    1
     5     7    22    1
     6     7     6    1
     7    10    23   am
     8    10     6    1
     9     6     1    1
    10     2    19    1
    11     1     4   am
    12    19    20    1
    13    19    18    1
    14     4    17    1
    15     4    21    2
    16    17    18    1
    17    17    15    1
    18    16    15    1
    19    14    13    2
    20    15    13    1
    21    13    12   am
    22    12     5    1
