@<TRIPOS>MOLECULE
1r58_AO5_A_1.pdb
 23 23 0 0 0
SMALL
GASTEIGER

@<TRIPOS>ATOM
      1  C1        19.5710   33.0360   16.1000 C.3   501  AO5501      0.0477
      2  C2        18.7930   34.0790   15.2970 C.3   501  AO5501      0.0117
      3  C3        19.9230   33.5930   17.4710 C.3   501  AO5501      0.0117
      4  S4        21.0510   32.5290   15.2710 S.3   501  AO5501     -0.1411
      5  C5        20.8100   30.7630   15.0850 C.3   501  AO5501      0.0591
      6  C6        21.0560   29.9950   16.3750 C.3   501  AO5501      0.0338
      7  C7        20.6120   28.5460   16.2170 C.3   501  AO5501      0.1321
      8  N8        21.9220   27.9620   15.8740 N.3   501  AO5501     -0.1297
      9  C9        20.0220   27.9640   17.5610 C.3   501  AO5501      0.2480
     10  O10       20.0380   26.5410   17.5620 O.3   501  AO5501     -0.2115
     11  C11       18.5920   28.4240   17.7420 C.2   501  AO5501      0.2927
     12  O12       17.6390   27.8590   17.2390 O.2   501  AO5501     -0.2688
     13  N13       18.4980   29.6570   18.5610 N.am  501  AO5501     -0.0853
     14  N14       17.2150   30.3150   18.8200 N.am  501  AO5501     -0.0839
     15  C15       16.5600   31.0460   17.8580 C.2   501  AO5501      0.2842
     16  O16       17.0760   31.1400   16.7250 O.2   501  AO5501     -0.2667
     17  C17       15.2500   31.7070   18.1670 C.ar  501  AO5501      0.0575
     18  C18       14.5710   31.7310   19.5060 C.ar  501  AO5501      0.0047
     19  C19       13.2610   32.4350   19.6490 C.ar  501  AO5501      0.0010
     20  C20       12.6260   33.1070   18.4770 C.ar  501  AO5501      0.0114
     21  C21       13.3160   33.0650   17.1750 C.ar  501  AO5501      0.0578
     22  C22       14.5890   32.3900   17.0110 C.ar  501  AO5501      0.0160
     23 CL23       12.6480   33.8090   15.7870 Cl    501  AO5501     -0.0822
@<TRIPOS>BOND
     1     5     4    1
     2     5     6    1
     3     4     1    1
     4     2     1    1
     5    23    21    1
     6     8     7    1
     7     1     3    1
     8     7     6    1
     9     7     9    1
    10    16    15    2
    11    22    21   ar
    12    22    17   ar
    13    21    20   ar
    14    12    11    2
    15     9    10    1
    16     9    11    1
    17    11    13   am
    18    15    17    1
    19    15    14   am
    20    17    18   ar
    21    20    19   ar
    22    13    14    1
    23    18    19   ar
