@<TRIPOS>MOLECULE
1r5a_GTS_A_1.pdb
 23 22 0 0 0
SMALL
GASTEIGER

@<TRIPOS>ATOM
      1  N1       118.6950   26.8860    3.4000 N.3   1004  GTS1004    -0.1208
      2  CA1      118.8030   26.0650    2.2120 C.3   1004  GTS1004     0.1948
      3  C1       119.9540   26.6780    1.4160 C.2   1004  GTS1004     0.3819
      4  O11      120.4910   25.9850    0.5690 O.co2 1004  GTS1004    -0.2441
      5  O12      120.3160   27.8380    1.6450 O.co2 1004  GTS1004    -0.2441
      6  CB1      117.4730   26.1200    1.4760 C.3   1004  GTS1004     0.0402
      7  CG1      117.4530   25.2640    0.2000 C.3   1004  GTS1004     0.0889
      8  CD1      116.0420   24.9410   -0.2550 C.2   1004  GTS1004     0.2419
      9  OE1      115.0530   25.3350    0.3580 O.2   1004  GTS1004    -0.2733
     10  N2       115.9920   24.2020   -1.3590 N.am  1004  GTS1004    -0.1961
     11  CA2      114.7230   23.7780   -1.9460 C.3   1004  GTS1004     0.1924
     12  C2       114.6870   22.2860   -1.9550 C.2   1004  GTS1004     0.2634
     13  O2       115.7180   21.6430   -2.1860 O.2   1004  GTS1004    -0.2714
     14  CB2      114.5240   24.1780   -3.3950 C.3   1004  GTS1004     0.1362
     15  SG2      114.4390   25.9440   -3.7460 S.3   1004  GTS1004    -0.1938
     16  O1S      115.6340   26.6150   -3.3230 O.3   1004  GTS1004    -0.3074
     17  O2S      114.2720   26.0770   -5.1620 O.3   1004  GTS1004    -0.3074
     18  O3S      113.3260   26.5200   -3.0540 O.3   1004  GTS1004    -0.3074
     19  N3       113.4780   21.7690   -1.7130 N.am  1004  GTS1004    -0.1917
     20  CA3      113.1860   20.3510   -1.6870 C.3   1004  GTS1004     0.2285
     21  C3       113.2940   19.7330   -0.3230 C.2   1004  GTS1004     0.3865
     22  O31      112.9510   18.5570   -0.2480 O.co2 1004  GTS1004    -0.2437
     23  O32      113.6490   20.4390    0.6360 O.co2 1004  GTS1004    -0.2437
@<TRIPOS>BOND
     1    17    15    1
     2    15    14    1
     3    15    16    1
     4    15    18    1
     5    14    11    1
     6    13    12    2
     7    12    11    1
     8    12    19   am
     9    11    10    1
    10    19    20    1
    11    20    21    1
    12    10     8   am
    13    21    22   ar
    14    21    23   ar
    15     8     7    1
    16     8     9    2
    17     7     6    1
    18     4     3   ar
    19     3     5   ar
    20     3     2    1
    21     6     2    1
    22     2     1    1
