@<TRIPOS>MOLECULE
1r5c_CPA_A_1.pdb
 37 41 0 0 0
SMALL
GASTEIGER

@<TRIPOS>ATOM
      1  P         34.0300   37.2110   10.6810 P.3   125  CPA125      0.2141
      2  O1P       33.7480   36.1900   11.6800 O.3   125  CPA125     -0.4373
      3  O2P       34.5960   36.8330    9.3710 O.2   125  CPA125     -0.5172
      4  O5D       32.7080   42.1140    9.7120 O.3   125  CPA125     -0.2176
      5  C5X       31.8850   41.3520   10.6390 C.3   125  CPA125      0.2140
      6  C4X       31.4750   40.0280   10.0220 C.3   125  CPA125      0.1774
      7  O4D       30.6710   40.3090    8.8610 O.3   125  CPA125     -0.3339
      8  C3X       32.6280   39.1370    9.5440 C.3   125  CPA125      0.1557
      9  O3D       32.6550   37.9640   10.3640 O.3   125  CPA125     -0.3139
     10  C2X       32.1290   38.5290    8.2240 C.3   125  CPA125      0.0845
     11  C1X       30.8110   39.2510    7.9630 C.3   125  CPA125      0.2089
     12  N1C       30.5630   39.7040    6.5950 N.am  125  CPA125     -0.1802
     13  CC2       30.3320   38.7340    5.6200 C.1   125  CPA125      0.2756
     14  N3C       30.0140   39.1210    4.3700 N.2   125  CPA125     -0.3024
     15  CC4       29.9750   40.4110    4.0630 C.2   125  CPA125      0.2346
     16  CC5       30.2390   41.4210    5.0280 C.2   125  CPA125      0.0687
     17  CC6       30.5290   41.0250    6.2740 C.2   125  CPA125      0.0835
     18  O2C       30.4390   37.5330    5.9280 O.2   125  CPA125     -0.1925
     19  N4C       29.6890   40.7370    2.8140 N.pl3 125  CPA125     -0.0921
     20  O5B       34.9710   38.2820   11.3880 O.3   125  CPA125     -0.3114
     21  C5B       35.2570   38.0950   12.8030 C.3   125  CPA125      0.1812
     22  C4B       36.0330   39.2550   13.4000 C.3   125  CPA125      0.1795
     23  O4B       37.4340   39.2130   13.0320 O.3   125  CPA125     -0.3155
     24  C3B       35.6410   40.6810   13.0300 C.3   125  CPA125      0.1883
     25  O3B       34.4460   41.1030   13.6740 O.3   125  CPA125     -0.2202
     26  C2B       36.8420   41.4700   13.5490 C.3   125  CPA125      0.1151
     27  C1B       37.9950   40.4840   13.3180 C.3   125  CPA125      0.2873
     28  N9A       38.8960   40.8690   12.2320 N.pl3 125  CPA125     -0.1460
     29  C8A       38.7740   41.9410   11.3730 C.3   125  CPA125      0.3377
     30  N7A       39.7920   42.0770   10.5570 N.2   125  CPA125     -0.2095
     31  C5A       40.6300   41.0210   10.8900 C.2   125  CPA125      0.2526
     32  C6A       41.8760   40.6260   10.4030 C.2   125  CPA125      0.4393
     33  N6A       42.5280   41.2920    9.4510 N.pl3 125  CPA125      0.2180
     34  N1A       42.4430   39.5200   10.9420 N.2   125  CPA125      0.0021
     35  C2A       41.7840   38.8700   11.9120 C.3   125  CPA125      0.5254
     36  N3A       40.6100   39.1500   12.4650 N.2   125  CPA125     -0.0055
     37  C4A       40.0780   40.2530   11.9020 C.2   125  CPA125      0.3518
@<TRIPOS>BOND
     1    19    15    1
     2    15    14    2
     3    15    16    1
     4    14    13    2
     5    16    17    2
     6    13    18    2
     7    13    12   am
     8    17    12    1
     9    12    11    1
    10    11    10    1
    11    11     7    1
    12    10     8    1
    13     7     6    1
    14     3     1    2
    15    33    32    1
    16     8     6    1
    17     8     9    1
    18     4     5    1
    19     6     5    1
    20     9     1    1
    21    32    31    1
    22    32    34    2
    23    30    31    2
    24    30    29    1
    25     1    20    1
    26     1     2    1
    27    31    37    1
    28    34    35    1
    29    29    28    1
    30    20    21    1
    31    37    28    1
    32    37    36    2
    33    35    36    1
    34    28    27    1
    35    21    22    1
    36    24    22    1
    37    24    26    1
    38    24    25    1
    39    23    27    1
    40    23    22    1
    41    27    26    1
