@<TRIPOS>MOLECULE
1r5g_AO1_A_1.pdb
 24 25 0 0 0
SMALL
GASTEIGER

@<TRIPOS>ATOM
      1  C1        19.2480   33.7340   16.8230 C.3   501  AO1501      0.0125
      2  C2        18.9690   33.1550   15.4470 C.3   501  AO1501      0.0576
      3  S3        20.0340   31.7290   15.1370 S.3   501  AO1501     -0.1402
      4  C4        18.9110   30.5100   15.4980 C.3   501  AO1501      0.0591
      5  C5        19.5070   29.8660   16.7390 C.3   501  AO1501      0.0338
      6  C6        19.5750   28.3780   16.4560 C.3   501  AO1501      0.1320
      7  C8        19.3960   27.5050   17.7830 C.3   501  AO1501      0.2464
      8  C9        17.9770   27.5740   18.0830 C.2   501  AO1501      0.2736
      9  N10       18.1360   27.9950   19.3360 N.am  501  AO1501     -0.2005
     10  C11       16.8550   28.0660   19.9400 C.3   501  AO1501      0.1176
     11  C12       16.0610   29.4040   19.5460 C.ar  501  AO1501     -0.0026
     12  O13       17.7060   27.4890   16.9060 O.2   501  AO1501     -0.2705
     13  C14       16.9370   27.9400   21.4610 C.3   501  AO1501      0.0283
     14  C15       16.7730   30.7700   19.4660 C.ar  501  AO1501     -0.0026
     15  C16       16.0380   32.0180   19.1280 C.ar  501  AO1501     -0.0003
     16  C17       14.5970   32.0100   18.8640 C.ar  501  AO1501     -0.0000
     17  C18       13.8530   30.7560   18.9130 C.ar  501  AO1501     -0.0003
     18  C19       14.5610   29.3950   19.2600 C.ar  501  AO1501     -0.0024
     19  C20       12.4150   30.7800   18.6340 C.ar  501  AO1501     -0.0000
     20  C21       11.6110   29.5330   18.6740 C.ar  501  AO1501     -0.0000
     21  C22       12.2550   28.2310   18.9990 C.ar  501  AO1501     -0.0000
     22  C23       13.7050   28.1490   19.2890 C.ar  501  AO1501     -0.0003
     23  O24       19.7450   26.1250   17.5420 O.3   501  AO1501     -0.2116
     24  N7        20.7050   27.9380   15.6500 N.3   501  AO1501     -0.1297
@<TRIPOS>BOND
     1     3     2    1
     2     3     4    1
     3     2     1    1
     4     4     5    1
     5    24     6    1
     6     6     5    1
     7     6     7    1
     8    12     8    2
     9    23     7    1
    10     7     8    1
    11     8     9   am
    12    19    20   ar
    13    19    17   ar
    14    20    21   ar
    15    16    17   ar
    16    16    15   ar
    17    17    18   ar
    18    21    22   ar
    19    15    14   ar
    20    18    22   ar
    21    18    11   ar
    22     9    10    1
    23    14    11   ar
    24    11    10    1
    25    10    13    1
