@<TRIPOS>MOLECULE
1r5h_AO2_A_1.pdb
 22 23 0 0 0
SMALL
GASTEIGER

@<TRIPOS>ATOM
      1  C1        20.9010   32.3400   16.5720 C.3   501  AO2501      0.0000
      2  C2        20.2150   33.5960   16.0020 C.3   501  AO2501      0.0000
      3  C3        18.6840   33.4570   15.8950 C.3   501  AO2501      0.0000
      4  C4        18.2570   32.1840   15.1410 C.3   501  AO2501      0.0000
      5  C5        18.9230   30.9000   15.6740 C.3   501  AO2501      0.0000
      6  C6        20.4660   31.0170   15.8890 C.3   501  AO2501      0.0015
      7  C7        21.1260   29.7950   16.5690 C.3   501  AO2501      0.0222
      8  C8        20.4430   28.4390   16.3310 C.3   501  AO2501      0.1312
      9  N9        21.4470   27.7750   15.6210 N.3   501  AO2501     -0.1297
     10  C10       20.0640   27.6310   17.7040 C.3   501  AO2501      0.2480
     11  O11       20.0680   26.1760   17.6010 O.3   501  AO2501     -0.2115
     12  C12       18.7110   28.2140   18.1190 C.2   501  AO2501      0.2926
     13  O13       18.5400   29.3630   18.4610 O.2   501  AO2501     -0.2688
     14  N14       17.6320   27.2680   18.0740 N.am  501  AO2501     -0.0883
     15  N15       16.2470   27.5620   18.4180 N.pl3 501  AO2501     -0.1253
     16  C16       15.6510   28.0170   19.5800 C.ar  501  AO2501      0.0892
     17  C17       14.3770   28.7120   19.6130 C.ar  501  AO2501      0.0177
     18  C18       13.8220   29.1530   20.8440 C.ar  501  AO2501     -0.0029
     19  C19       14.5210   28.9160   22.0850 C.ar  501  AO2501     -0.0218
     20  C20       15.7860   28.2240   22.0560 C.ar  501  AO2501     -0.0029
     21  C21       16.3450   27.7820   20.8320 C.ar  501  AO2501      0.0177
     22  C22       13.9180   29.3910   23.3840 C.3   501  AO2501      0.0310
@<TRIPOS>BOND
     1     4     5    1
     2     4     3    1
     3     9     8    1
     4     5     6    1
     5     6     7    1
     6     6     1    1
     7     3     2    1
     8     2     1    1
     9     8     7    1
    10     8    10    1
    11    11    10    1
    12    10    12    1
    13    14    12   am
    14    14    15    1
    15    12    13    2
    16    15    16    1
    17    16    17   ar
    18    16    21   ar
    19    17    18   ar
    20    21    20   ar
    21    18    19   ar
    22    20    19   ar
    23    19    22    1
