@<TRIPOS>MOLECULE
1r5k_GW5_A_1.pdb
 27 29 0 0 0
SMALL
GASTEIGER

@<TRIPOS>ATOM
      1  C21      -11.7040   48.0230  329.6940 C.ar  600  GW5600     -0.0043
      2  C22      -11.7420   46.9430  328.8130 C.ar  600  GW5600     -0.0003
      3  C23      -11.4390   45.6560  329.2890 C.ar  600  GW5600     -0.0000
      4  C24      -11.0920   45.4210  330.6240 C.ar  600  GW5600     -0.0003
      5  C25      -11.0510   46.5040  331.4950 C.ar  600  GW5600     -0.0043
      6  C20      -11.3430   47.8050  331.0310 C.ar  600  GW5600     -0.0219
      7  C3       -11.3030   48.8900  331.9190 C.3   600  GW5600      0.0304
      8  C2       -12.4460   49.8730  331.9730 C.3   600  GW5600      0.0050
      9  C1       -13.7290   49.0730  332.1280 C.3   600  GW5600      0.0004
     10  C4       -10.2190   49.0280  332.7860 C.3   600  GW5600      0.0486
     11  C5       -10.2640   50.1060  333.6690 C.ar  600  GW5600     -0.0181
     12  C6        -9.2020   51.0010  333.7760 C.ar  600  GW5600     -0.0039
     13  C7        -9.2490   52.0630  334.6770 C.ar  600  GW5600     -0.0003
     14  C8       -10.3600   52.2360  335.4860 C.ar  600  GW5600     -0.0000
     15  C9       -11.4240   51.3470  335.3950 C.ar  600  GW5600     -0.0003
     16  C10      -11.3750   50.2900  334.4860 C.ar  600  GW5600     -0.0039
     17  C11       -8.9400   48.5710  332.4690 C.ar  600  GW5600     -0.0181
     18  C19       -8.0900   48.1830  333.4990 C.ar  600  GW5600     -0.0039
     19  C18       -6.8010   47.7330  333.2360 C.ar  600  GW5600     -0.0003
     20  C12       -8.4910   48.5350  331.1560 C.ar  600  GW5600     -0.0039
     21  C13       -7.2000   48.0900  330.8860 C.ar  600  GW5600     -0.0003
     22  C14       -6.3510   47.6940  331.9170 C.ar  600  GW5600      0.0002
     23  C15       -5.0660   47.2610  331.6170 C.2   600  GW5600      0.0068
     24  C16       -4.1820   46.8710  332.6220 C.2   600  GW5600      0.0861
     25  C17       -2.8900   46.4520  332.2780 C.2   600  GW5600      0.3880
     26  O2        -2.0410   46.1010  333.1070 O.co2 600  GW5600     -0.2405
     27  O1        -2.5780   46.4160  331.0930 O.co2 600  GW5600     -0.2405
@<TRIPOS>BOND
     1     2     3   ar
     2     2     1   ar
     3     3     4   ar
     4     1     6   ar
     5     4     5   ar
     6    21    20   ar
     7    21    22   ar
     8     6     5   ar
     9     6     7    1
    10    27    25   ar
    11    20    17   ar
    12    23    22    1
    13    23    24    2
    14    22    19   ar
    15     7     8    1
    16     7    10    1
    17     8     9    1
    18    25    24    1
    19    25    26   ar
    20    17    10    1
    21    17    18   ar
    22    10    11    1
    23    19    18   ar
    24    11    12   ar
    25    11    16   ar
    26    12    13   ar
    27    16    15   ar
    28    13    14   ar
    29    15    14   ar
