@<TRIPOS>MOLECULE
1r5l_VIV_A_1.pdb
 31 32 0 0 0
SMALL
GASTEIGER

@<TRIPOS>ATOM
      1  O1        -0.9930   63.9060   13.4710 O.3   301  VIV301     -0.4832
      2  O2         3.1650   67.5200   13.2550 O.3   301  VIV301     -0.2873
      3  C1        -0.1210   54.9690   12.8160 C.3   301  VIV301      0.0003
      4  C2         2.3960   65.3200   13.7440 C.ar  301  VIV301      0.0157
      5  C3         1.3500   64.3830   13.8200 C.ar  301  VIV301      0.0107
      6  C4         0.0720   64.7950   13.4480 C.ar  301  VIV301      0.1297
      7  C5        -0.2240   66.0930   13.0310 C.ar  301  VIV301      0.0109
      8  C6         0.8320   67.0350   12.9530 C.ar  301  VIV301      0.0157
      9  C7         2.1210   66.6160   13.3080 C.ar  301  VIV301      0.1873
     10  C8         3.8190   64.9590   14.1380 C.3   301  VIV301      0.0341
     11  C9        -0.7250   62.4830   13.4560 C.3   301  VIV301      0.1335
     12  C10        1.5770   62.9290   14.3050 C.3   301  VIV301      0.0328
     13  C11        0.2660   62.1860   14.5660 C.3   301  VIV301      0.0448
     14  C12       -1.6650   66.4670   12.6800 C.3   301  VIV301      0.0340
     15  C13        0.5600   68.4460   12.4930 C.3   301  VIV301      0.0341
     16  C14       -0.2060   62.0730   12.0520 C.3   301  VIV301      0.0436
     17  C15       -2.0920   61.8030   13.7010 C.3   301  VIV301      0.0400
     18  C16       -2.0040   60.2660   13.8390 C.3   301  VIV301      0.0036
     19  C17       -3.4330   59.6860   14.0170 C.3   301  VIV301      0.0001
     20  C18       -3.4530   58.1690   14.0380 C.3   301  VIV301      0.0000
     21  C19       -4.8920   57.6990   13.9440 C.3   301  VIV301      0.0000
     22  C20       -2.7620   57.6800   15.3250 C.3   301  VIV301      0.0000
     23  C21       -2.5690   56.1930   15.4870 C.3   301  VIV301      0.0000
     24  C22       -1.8980   55.4740   14.3980 C.3   301  VIV301      0.0003
     25  C23       -0.4570   55.8290   13.9990 C.3   301  VIV301      0.0043
     26  C24        0.5580   55.6910   15.1440 C.3   301  VIV301      0.0257
     27  C25        1.9830   56.1880   14.6960 C.2   301  VIV301     -0.0307
     28  C26        1.9940   57.5050   13.8840 C.2   301  VIV301     -0.0310
     29  C27        3.3440   58.0660   13.4860 C.3   301  VIV301      0.0217
     30  C28        3.8550   57.3440   12.2280 C.3   301  VIV301      0.0047
     31  C29        3.2460   59.5270   13.2750 C.3   301  VIV301      0.0047
@<TRIPOS>BOND
     1    16    11    1
     2    30    29    1
     3    15     8    1
     4    14     7    1
     5     3    25    1
     6     8     7   ar
     7     8     9   ar
     8     7     6   ar
     9     2     9    1
    10    31    29    1
    11     9     4   ar
    12     6     1    1
    13     6     5   ar
    14    11     1    1
    15    11    17    1
    16    11    13    1
    17    29    28    1
    18    17    18    1
    19     4     5   ar
    20     4    10    1
    21     5    12    1
    22    18    19    1
    23    28    27    2
    24    21    20    1
    25    25    24    1
    26    25    26    1
    27    19    20    1
    28    20    22    1
    29    12    13    1
    30    24    23    1
    31    27    26    1
    32    22    23    1
