@<TRIPOS>MOLECULE
1r5n_GDP_A_1.pdb
 28 30 0 0 0
SMALL
GASTEIGER

@<TRIPOS>ATOM
      1  PB       100.9650   13.7230   62.3260 P.3   663  GDP663      0.5373
      2  O1B      100.4700   13.2410   63.6510 O.3   663  GDP663     -0.1143
      3  O2B      100.2410   14.9890   61.8530 O.2   663  GDP663     -0.2221
      4  O3B      102.4900   13.9540   62.2960 O.3   663  GDP663     -0.1143
      5  O3A      100.6670   12.6160   61.2060 O.3   663  GDP663     -0.2261
      6  PA       100.9480   12.9670   59.6610 P.3   663  GDP663      0.2231
      7  O1A      100.0630   12.2850   58.6940 O.2   663  GDP663     -0.5169
      8  O2A      101.1340   14.4630   59.3680 O.3   663  GDP663     -0.4370
      9  O5'      102.3980   12.3320   59.4670 O.3   663  GDP663     -0.3111
     10  C5'      102.5670   10.9550   59.6420 C.3   663  GDP663      0.1813
     11  C4'      103.2690   10.2810   58.4730 C.3   663  GDP663      0.1799
     12  O4'      102.7190    8.9890   58.3260 O.3   663  GDP663     -0.3326
     13  C3'      103.1000   10.9710   57.1340 C.3   663  GDP663      0.2158
     14  O3'      104.2920   10.8260   56.4010 O.3   663  GDP663     -0.2175
     15  C2'      101.9780   10.2240   56.4560 C.3   663  GDP663      0.2310
     16  O2'      102.1260   10.1270   55.0590 O.3   663  GDP663     -0.2158
     17  C1'      102.0540    8.8500   57.0830 C.3   663  GDP663      0.2293
     18  N9       100.6930    8.2970   57.2020 N.pl3 663  GDP663     -0.2354
     19  C8        99.6190    8.8180   57.8750 C.3   663  GDP663      0.2246
     20  N7        98.5660    7.9840   57.7110 N.2   663  GDP663     -0.2322
     21  C5        98.9570    6.9470   56.9390 C.2   663  GDP663      0.2182
     22  C6        98.2980    5.8170   56.4600 C.1   663  GDP663      0.2372
     23  O6        97.1330    5.5860   56.7710 O.2   663  GDP663     -0.2069
     24  N1        98.9900    4.9160   55.6710 N.2   663  GDP663     -0.2485
     25  C2       100.3180    5.1270   55.3590 C.1   663  GDP663      0.2531
     26  N2       101.0350    4.1170   54.8720 N.pl3 663  GDP663     -0.0226
     27  N3       100.9620    6.2520   55.8370 N.2   663  GDP663     -0.3074
     28  C4       100.2930    7.1380   56.6130 C.2   663  GDP663      0.2300
@<TRIPOS>BOND
     1    26    25    1
     2    16    15    1
     3    25    24    2
     4    25    27    2
     5    24    22    2
     6    27    28    2
     7    14    13    1
     8    15    17    1
     9    15    13    1
    10    22    23    2
    11    22    21    1
    12    28    21    1
    13    28    18    1
    14    21    20    2
    15    17    18    1
    16    17    12    1
    17    13    11    1
    18    18    19    1
    19    20    19    1
    20    12    11    1
    21    11    10    1
    22     7     6    2
    23     8     6    1
    24     9    10    1
    25     9     6    1
    26     6     5    1
    27     5     1    1
    28     3     1    2
    29     4     1    1
    30     1     2    1
