@<TRIPOS>MOLECULE
1r5o_GNP_A_1.pdb
 32 34 0 0 0
SMALL
GASTEIGER

@<TRIPOS>ATOM
      1  PG       100.2410   16.7100   63.4120 P.3   1986  GNP1986     0.4884
      2  O1G      100.3050   17.9150   62.5380 O.2   1986  GNP1986    -0.2331
      3  O2G       98.9030   16.4160   63.9730 O.3   1986  GNP1986    -0.1240
      4  O3G      101.3850   16.8620   64.4110 O.3   1986  GNP1986    -0.1240
      5  N3B      100.5670   15.4420   62.5190 N.3   1986  GNP1986    -0.0163
      6  PB       101.2420   14.1330   63.1300 P.3   1986  GNP1986     0.4669
      7  O1B      102.4630   14.4840   63.8900 O.3   1986  GNP1986    -0.1253
      8  O2B      100.1700   13.4240   63.8590 O.2   1986  GNP1986    -0.2351
      9  O3A      101.6660   13.2080   61.9820 O.3   1986  GNP1986    -0.2360
     10  PA       101.3130   13.4250   60.5060 P.3   1986  GNP1986     0.2220
     11  O1A       99.8530   13.2670   60.3470 O.3   1986  GNP1986    -0.4370
     12  O2A      101.8850   14.6980   60.0080 O.2   1986  GNP1986    -0.5170
     13  O5'      102.0170   12.2620   59.6990 O.3   1986  GNP1986    -0.3111
     14  C5'      103.4430   12.1380   59.7110 C.3   1986  GNP1986     0.1813
     15  C4'      103.9460   11.3310   58.5320 C.3   1986  GNP1986     0.1799
     16  O4'      103.3110   10.0320   58.5270 O.3   1986  GNP1986    -0.3326
     17  C3'      103.6440   11.9620   57.1780 C.3   1986  GNP1986     0.2158
     18  O3'      104.7730   12.7150   56.7140 O.3   1986  GNP1986    -0.2175
     19  C2'      103.2840   10.7860   56.2600 C.3   1986  GNP1986     0.2310
     20  O2'      104.2900   10.4750   55.3100 O.3   1986  GNP1986    -0.2158
     21  C1'      103.0360    9.6030   57.2050 C.3   1986  GNP1986     0.2293
     22  N9       101.6570    9.1000   57.1480 N.pl3 1986  GNP1986    -0.2354
     23  C8       100.5500    9.7610   57.6240 C.3   1986  GNP1986     0.2246
     24  N7        99.4340    9.1090   57.4530 N.2   1986  GNP1986    -0.2322
     25  C5        99.8060    7.9380   56.8140 C.2   1986  GNP1986     0.2182
     26  C6        99.0030    6.8470   56.3810 C.1   1986  GNP1986     0.2372
     27  O6        97.7780    6.7110   56.4840 O.2   1986  GNP1986    -0.2069
     28  N1        99.7640    5.8430   55.7790 N.2   1986  GNP1986    -0.2485
     29  C2       101.1360    5.9010   55.6250 C.1   1986  GNP1986     0.2531
     30  N2       101.7020    4.8430   55.0210 N.pl3 1986  GNP1986    -0.0226
     31  N3       101.9010    6.9190   56.0300 N.2   1986  GNP1986    -0.3074
     32  C4       101.1760    7.9130   56.6160 C.2   1986  GNP1986     0.2300
@<TRIPOS>BOND
     1    30    29    1
     2    20    19    1
     3    29    28    2
     4    29    31    2
     5    28    26    2
     6    31    32    2
     7    19    17    1
     8    19    21    1
     9    26    27    2
    10    26    25    1
    11    32    25    1
    12    32    22    1
    13    18    17    1
    14    25    24    2
    15    22    21    1
    16    22    23    1
    17    17    15    1
    18    21    16    1
    19    24    23    1
    20    16    15    1
    21    15    14    1
    22    13    14    1
    23    13    10    1
    24    12    10    2
    25    11    10    1
    26    10     9    1
    27     9     6    1
    28     5     6    1
    29     5     1    1
    30     2     1    2
    31     6     8    2
    32     6     7    1
    33     1     3    1
    34     1     4    1
