@<TRIPOS>MOLECULE
1r5y_DQU_A_1.pdb
 13 14 0 0 0
SMALL
GASTEIGER

@<TRIPOS>ATOM
      1  C6        18.2500   16.9450   19.2760 C.2   900  DQU900      0.0864
      2  N4        19.2200   17.3220   18.2010 N.pl3 900  DQU900     -0.1284
      3  C1        16.9740   16.5060   18.9080 C.2   900  DQU900      0.0201
      4  C2        16.0290   16.2140   19.8680 C.2   900  DQU900      0.0314
      5  C3        16.3140   16.4910   21.2240 C.2   900  DQU900      0.1432
      6  N3        15.3500   16.3200   22.1950 N.2   900  DQU900     -0.3283
      7  C8        15.5880   16.5350   23.4610 C.1   900  DQU900      0.2512
      8  N2        14.6290   16.3330   24.4490 N.pl3 900  DQU900     -0.0226
      9  N1        16.8210   17.0520   23.9220 N.2   900  DQU900     -0.2537
     10  C7        17.8280   17.3260   22.9730 C.1   900  DQU900      0.2018
     11  O1        18.9640   17.6720   23.3330 O.2   900  DQU900     -0.2127
     12  C4        17.5640   17.0440   21.5690 C.3   900  DQU900      0.1951
     13  C5        18.5000   17.3140   20.5770 C.2   900  DQU900      0.0163
@<TRIPOS>BOND
     1     2     1    1
     2     3     1    1
     3     3     4    2
     4     1    13    2
     5     4     5    1
     6    13    12    1
     7     5    12    1
     8     5     6    2
     9    12    10    1
    10     6     7    2
    11    10    11    2
    12    10     9    2
    13     7     9    2
    14     7     8    1
