@<TRIPOS>MOLECULE
1r66_NAD_A_1.pdb
 44 48 0 0 0
SMALL
GASTEIGER

@<TRIPOS>ATOM
      1  PA        62.9100   14.3290   37.9980 P.3   900  NAD900      0.2189
      2  O1A       64.3040   14.5800   38.4890 O.3   900  NAD900     -0.4371
      3  O2A       61.8830   15.4600   37.8900 O.2   900  NAD900     -0.5170
      4  O5B       62.2230   13.2660   38.9280 O.3   900  NAD900     -0.3112
      5  C5B       62.8610   12.0470   39.3390 C.3   900  NAD900      0.1813
      6  C4B       61.9830   11.4440   40.4330 C.3   900  NAD900      0.1821
      7  O4B       62.5750   10.1770   40.8910 O.3   900  NAD900     -0.3135
      8  C3B       61.8300   12.2790   41.7130 C.3   900  NAD900      0.2184
      9  O3B       60.4240   12.3940   42.1000 O.3   900  NAD900     -0.2174
     10  C2B       62.7730   11.5470   42.7170 C.3   900  NAD900      0.2570
     11  O2B       62.3500   11.7480   44.0930 O.3   900  NAD900     -0.2130
     12  C1B       62.5620   10.1000   42.2890 C.3   900  NAD900      0.3186
     13  N9A       63.6600    9.2300   42.6800 N.pl3 900  NAD900     -0.1439
     14  C8A       64.9680    9.4890   42.5160 C.3   900  NAD900      0.3377
     15  N7A       65.7250    8.4920   43.0190 N.2   900  NAD900     -0.2095
     16  C5A       64.8360    7.5350   43.4810 C.2   900  NAD900      0.2526
     17  C6A       65.0410    6.2580   44.1030 C.2   900  NAD900      0.4393
     18  N6A       66.2310    5.6800   44.3680 N.pl3 900  NAD900      0.2180
     19  N1A       63.8980    5.6060   44.4810 N.2   900  NAD900      0.0021
     20  C2A       62.6830    6.1920   44.2160 C.3   900  NAD900      0.5254
     21  N3A       62.4090    7.3510   43.6560 N.2   900  NAD900     -0.0055
     22  C4A       63.5420    7.9840   43.2720 C.2   900  NAD900      0.3518
     23  O3        63.0100   13.5340   36.6510 O.3   900  NAD900     -0.2703
     24  PN        62.0550   13.6320   35.3240 P.3   900  NAD900      0.2189
     25  O1N       60.6000   13.4790   35.7680 O.3   900  NAD900     -0.4371
     26  O2N       62.5830   14.7830   34.5030 O.2   900  NAD900     -0.5170
     27  O5D       62.5190   12.2730   34.5730 O.3   900  NAD900     -0.3112
     28  C5D       61.7960   11.0600   34.8250 C.3   900  NAD900      0.1813
     29  C4D       62.4730   10.0110   33.9590 C.3   900  NAD900      0.1799
     30  O4D       62.4010   10.3700   32.5600 O.3   900  NAD900     -0.3327
     31  C3D       63.9270    9.7280   34.2730 C.3   900  NAD900      0.2158
     32  O3D       64.1080    8.3090   34.0780 O.3   900  NAD900     -0.2175
     33  C2D       64.6280   10.5250   33.1450 C.3   900  NAD900      0.2309
     34  O2D       65.8940    9.8890   32.8350 O.3   900  NAD900     -0.2158
     35  C1D       63.6770   10.2730   31.9830 C.3   900  NAD900      0.2263
     36  N1N       63.7200   11.3230   30.9790 N.pl3 900  NAD900     -0.2787
     37  C2N       63.5840   12.6670   31.3180 C.3   900  NAD900      0.1244
     38  C3N       63.7130   13.7360   30.2910 C.2   900  NAD900      0.0544
     39  C7N       63.4890   15.1510   30.6630 C.2   900  NAD900      0.2818
     40  O7N       63.6720   15.9500   29.7230 O.2   900  NAD900     -0.2670
     41  N7N       63.1170   15.5780   31.8930 N.am  900  NAD900     -0.0839
     42  C4N       63.8740   13.3610   28.8630 C.2   900  NAD900      0.0033
     43  C5N       63.7280   11.8840   28.6560 C.2   900  NAD900      0.0157
     44  C6N       63.7880   10.9820   29.6230 C.2   900  NAD900      0.0633
@<TRIPOS>BOND
     1    43    42    1
     2    43    44    2
     3    42    38    2
     4    44    36    1
     5    40    39    2
     6    38    39    1
     7    38    37    1
     8    39    41   am
     9    36    37    1
    10    36    35    1
    11    35    30    1
    12    35    33    1
    13    30    29    1
    14    34    33    1
    15    33    31    1
    16    29    31    1
    17    29    28    1
    18    32    31    1
    19    26    24    2
    20    27    28    1
    21    27    24    1
    22    24    25    1
    23    24    23    1
    24    23     1    1
    25     3     1    2
    26     1     2    1
    27     1     4    1
    28     4     5    1
    29     5     6    1
    30     6     7    1
    31     6     8    1
    32     7    12    1
    33     8     9    1
    34     8    10    1
    35    12    13    1
    36    12    10    1
    37    14    13    1
    38    14    15    1
    39    13    22    1
    40    10    11    1
    41    15    16    2
    42    22    16    1
    43    22    21    2
    44    16    17    1
    45    21    20    1
    46    17    18    1
    47    17    19    2
    48    20    19    1
