@<TRIPOS>MOLECULE
1r66_TYD_A_1.pdb
 25 26 0 0 0
SMALL
GASTEIGER

@<TRIPOS>ATOM
      1  PA        69.4290   20.7540   30.7050 P.3   901  TYD901      0.2231
      2  O1A       68.1250   21.3670   31.1120 O.2   901  TYD901     -0.5169
      3  O2A       70.3870   20.5290   31.8170 O.3   901  TYD901     -0.4370
      4  O3A       69.0750   19.3370   29.9970 O.3   901  TYD901     -0.2261
      5  PB        69.9730   18.3000   29.1660 P.3   901  TYD901      0.5373
      6  O1B       69.8650   18.4620   27.5790 O.2   901  TYD901     -0.2221
      7  O2B       69.4620   16.9500   29.5700 O.3   901  TYD901     -0.1143
      8  O3B       71.4180   18.4910   29.5880 O.3   901  TYD901     -0.1143
      9  O5'       70.2060   21.6060   29.5760 O.3   901  TYD901     -0.3111
     10  C5'       69.5400   21.8330   28.3360 C.3   901  TYD901      0.1812
     11  C4'       70.5260   22.5580   27.4790 C.3   901  TYD901      0.1773
     12  O4'       70.6520   23.8810   28.0740 O.3   901  TYD901     -0.3339
     13  C3'       71.9190   21.9290   27.4420 C.3   901  TYD901      0.1857
     14  O3'       72.5540   22.1320   26.1640 O.3   901  TYD901     -0.2203
     15  C2'       72.6320   22.7120   28.5590 C.3   901  TYD901      0.0874
     16  C1'       72.0100   24.1090   28.4170 C.3   901  TYD901      0.2090
     17  N1        72.0160   24.9210   29.6580 N.am  901  TYD901     -0.1794
     18  C2        72.5180   26.2040   29.6760 C.1   901  TYD901      0.2844
     19  O2        73.0030   26.7760   28.7120 O.2   901  TYD901     -0.1918
     20  N3        72.4140   26.8140   30.9020 N.2   901  TYD901     -0.2455
     21  C4        71.8630   26.2720   32.0580 C.1   901  TYD901      0.2134
     22  O4        71.8830   26.9450   33.0750 O.2   901  TYD901     -0.2088
     23  C5        71.3740   24.9400   31.9490 C.2   901  TYD901      0.0891
     24  C5M       70.7510   24.2080   33.1460 C.3   901  TYD901      0.0462
     25  C6        71.4490   24.3440   30.7840 C.2   901  TYD901      0.0877
@<TRIPOS>BOND
     1    14    13    1
     2    13    11    1
     3    13    15    1
     4    11    12    1
     5    11    10    1
     6     6     5    2
     7    12    16    1
     8    10     9    1
     9    16    15    1
    10    16    17    1
    11    19    18    2
    12     5     7    1
    13     5     8    1
    14     5     4    1
    15     9     1    1
    16    17    18   am
    17    17    25    1
    18    18    20    2
    19     4     1    1
    20     1     2    2
    21     1     3    1
    22    25    23    2
    23    20    21    2
    24    23    21    1
    25    23    24    1
    26    21    22    2
