@<TRIPOS>MOLECULE
1r6a_SAH_A_1.pdb
 26 28 0 0 0
SMALL
GASTEIGER

@<TRIPOS>ATOM
      1  N          9.9820  -45.9600   -1.2410 N.3   887  SAH887     -0.1245
      2  CA        11.2790  -46.6350   -1.2740 C.3   887  SAH887      0.1844
      3  CB        11.9150  -46.6210    0.1240 C.3   887  SAH887      0.0388
      4  CG        13.0770  -45.7890    0.2050 C.3   887  SAH887      0.0594
      5  SD        13.8430  -45.7570    1.8440 S.3   887  SAH887     -0.1376
      6  C         11.1710  -48.1060   -1.7810 C.3   887  SAH887      0.4429
      7  O         10.0200  -48.4730   -2.0810 O.2   887  SAH887     -0.2654
      8  OXT       12.0160  -48.3460   -2.6990 O.2   887  SAH887     -0.2654
      9  C5'       14.1340  -43.9890    1.9900 C.3   887  SAH887      0.0899
     10  C4'       15.3390  -43.4400    1.2450 C.3   887  SAH887      0.1630
     11  O4'       15.4540  -42.0260    1.4910 O.3   887  SAH887     -0.3153
     12  C3'       16.6800  -44.0290    1.6750 C.3   887  SAH887      0.2168
     13  O3'       17.0880  -44.9730    0.6650 O.3   887  SAH887     -0.2175
     14  C2'       17.6590  -42.8470    1.7770 C.3   887  SAH887      0.2569
     15  O2'       18.8960  -42.9550    1.1000 O.3   887  SAH887     -0.2130
     16  C1'       16.7900  -41.6780    1.3260 C.3   887  SAH887      0.3185
     17  N9        17.0650  -40.4020    1.9910 N.pl3 887  SAH887     -0.1439
     18  C8        17.2590  -40.1350    3.3220 C.3   887  SAH887      0.3377
     19  N7        17.4830  -38.8710    3.5820 N.2   887  SAH887     -0.2095
     20  C5        17.4390  -38.2510    2.3440 C.2   887  SAH887      0.2526
     21  C6        17.5970  -36.8920    1.9180 C.2   887  SAH887      0.4393
     22  N6        17.8470  -35.8900    2.7440 N.pl3 887  SAH887      0.2180
     23  N1        17.4910  -36.6130    0.5770 N.2   887  SAH887      0.0021
     24  C2        17.2390  -37.6350   -0.2390 C.3   887  SAH887      0.5254
     25  N3        17.0670  -38.9520    0.0450 N.2   887  SAH887     -0.0055
     26  C4        17.1750  -39.1970    1.3410 C.2   887  SAH887      0.3518
@<TRIPOS>BOND
     1     8     6    1
     2     7     6    1
     3     6     2    1
     4     2     1    1
     5     2     3    1
     6    24    25    1
     7    24    23    1
     8    25    26    2
     9     3     4    1
    10     4     5    1
    11    23    21    2
    12    13    12    1
    13    15    14    1
    14    10    11    1
    15    10    12    1
    16    10     9    1
    17    16    11    1
    18    16    14    1
    19    16    17    1
    20    26    17    1
    21    26    20    1
    22    12    14    1
    23     5     9    1
    24    21    20    1
    25    21    22    1
    26    17    18    1
    27    20    19    2
    28    18    19    1
