@<TRIPOS>MOLECULE
1r6a_RVP_A_1.pdb
 21 22 0 0 0
SMALL
GASTEIGER

@<TRIPOS>ATOM
      1  P         15.9480  -52.4920   12.8070 P.3   300  RVP300      0.5327
      2  O1P       16.2800  -51.7970   11.2920 O.2   300  RVP300     -0.2224
      3  O2P       15.3290  -53.8240   12.6470 O.3   300  RVP300     -0.1145
      4  O3P       17.4040  -52.3900   13.4460 O.3   300  RVP300     -0.1145
      5  O5'       14.8870  -51.7020   13.8540 O.3   300  RVP300     -0.2675
      6  C5'       15.2300  -50.3330   14.1900 C.3   300  RVP300      0.1859
      7  C4'       14.9300  -50.2680   15.8020 C.3   300  RVP300      0.1801
      8  O4'       14.4420  -51.3360   16.7090 O.3   300  RVP300     -0.3317
      9  C3'       16.0760  -49.7130   16.5590 C.3   300  RVP300      0.2159
     10  O3'       16.2820  -48.3430   16.2870 O.3   300  RVP300     -0.2175
     11  C2'       15.8470  -50.0100   18.0890 C.3   300  RVP300      0.2323
     12  O2'       15.1590  -49.0700   18.7630 O.3   300  RVP300     -0.2157
     13  C1'       15.1420  -51.4790   17.9960 C.3   300  RVP300      0.2437
     14  N9        16.2280  -52.6680   18.0900 N.pl3 300  RVP300     -0.1720
     15  C8        17.1860  -53.0740   17.0920 C.3   300  RVP300      0.2500
     16  N7        17.8000  -54.1220   17.7630 N.2   300  RVP300     -0.1909
     17  C5        17.3130  -54.3870   19.0630 C.1   300  RVP300      0.1072
     18  C6        17.7010  -55.3120   19.9350 C.2   300  RVP300      0.3485
     19  O6        18.5530  -56.2640   20.0400 O.2   300  RVP300     -0.2552
     20  N1        16.8910  -55.2670   21.2750 N.am  300  RVP300     -0.0743
     21  N4        16.3270  -53.4550   19.2330 N.2   300  RVP300     -0.1198
@<TRIPOS>BOND
     1     2     1    2
     2     3     1    1
     3     1     4    1
     4     1     5    1
     5     5     6    1
     6     6     7    1
     7     7     9    1
     8     7     8    1
     9    10     9    1
    10     9    11    1
    11     8    13    1
    12    15    16    1
    13    15    14    1
    14    16    17    2
    15    13    11    1
    16    13    14    1
    17    11    12    1
    18    14    21    1
    19    17    21    2
    20    17    18    1
    21    18    19    2
    22    18    20   am
