@<TRIPOS>MOLECULE
1r6b_ADP_X_1.pdb
 27 29 0 0 0
SMALL
GASTEIGER

@<TRIPOS>ATOM
      1  PB       131.1560   28.2680   18.4670 P.3   780  ADP780      0.5373
      2  O1B      132.0340   27.6510   17.4660 O.2   780  ADP780     -0.2221
      3  O2B      131.8750   28.3440   19.8280 O.3   780  ADP780     -0.1143
      4  O3B      129.8690   27.4670   18.6110 O.3   780  ADP780     -0.1143
      5  PA       131.1870   30.3130   16.6180 P.3   780  ADP780      0.2231
      6  O1A      132.6640   30.2660   16.3910 O.3   780  ADP780     -0.4370
      7  O2A      130.3850   29.5960   15.5430 O.2   780  ADP780     -0.5169
      8  O3A      130.8180   29.7450   18.0380 O.3   780  ADP780     -0.2261
      9  O5'      130.7130   31.7930   16.7570 O.3   780  ADP780     -0.3111
     10  C5'      129.3350   32.0970   16.7960 C.3   780  ADP780      0.1813
     11  C4'      129.0760   33.2900   15.8740 C.3   780  ADP780      0.1821
     12  O4'      129.6560   34.4570   16.4410 O.3   780  ADP780     -0.3135
     13  C3'      129.7340   33.1140   14.5180 C.3   780  ADP780      0.2184
     14  O3'      129.0370   33.9210   13.7050 O.3   780  ADP780     -0.2174
     15  C2'      131.0380   33.7750   14.6530 C.3   780  ADP780      0.2570
     16  O2'      131.4320   34.2860   13.4380 O.3   780  ADP780     -0.2130
     17  C1'      130.7380   34.9110   15.6350 C.3   780  ADP780      0.3186
     18  N9       131.8770   35.2100   16.4890 N.pl3 780  ADP780     -0.1439
     19  C8       132.2630   34.5240   17.6290 C.3   780  ADP780      0.3377
     20  N7       133.3600   35.1480   18.1390 N.2   780  ADP780     -0.2095
     21  C5       133.6430   36.1970   17.3560 C.2   780  ADP780      0.2526
     22  C6       134.6310   37.1480   17.4020 C.2   780  ADP780      0.4393
     23  N6       135.4830   37.2110   18.4530 N.pl3 780  ADP780      0.2180
     24  N1       134.6590   38.1130   16.4240 N.2   780  ADP780      0.0021
     25  C2       133.7090   38.1220   15.4450 C.3   780  ADP780      0.5254
     26  N3       132.7430   37.1810   15.4080 N.2   780  ADP780     -0.0055
     27  C4       132.7040   36.2320   16.3280 C.2   780  ADP780      0.3518
@<TRIPOS>BOND
     1    16    15    1
     2    14    13    1
     3    13    15    1
     4    13    11    1
     5    15    17    1
     6    26    25    1
     7    26    27    2
     8    25    24    1
     9     7     5    2
    10    17    12    1
    11    17    18    1
    12    11    12    1
    13    11    10    1
    14    27    18    1
    15    27    21    1
    16     6     5    1
    17    24    22    2
    18    18    19    1
    19     5     9    1
    20     5     8    1
    21     9    10    1
    22    21    22    1
    23    21    20    2
    24    22    23    1
    25     2     1    2
    26    19    20    1
    27     8     1    1
    28     1     4    1
    29     1     3    1
