@<TRIPOS>MOLECULE
1r6d_NAD_A_1.pdb
 44 48 0 0 0
SMALL
GASTEIGER

@<TRIPOS>ATOM
      1  PA        24.2400   15.0610   17.1770 P.3   400  NAD400      0.2189
      2  O1A       25.6640   15.3140   17.5780 O.3   400  NAD400     -0.4371
      3  O2A       23.2150   16.1830   16.9790 O.2   400  NAD400     -0.5170
      4  O5B       23.5340   14.1050   18.2390 O.3   400  NAD400     -0.3112
      5  C5B       24.1030   12.8320   18.6420 C.3   400  NAD400      0.1813
      6  C4B       23.0930   12.2520   19.6160 C.3   400  NAD400      0.1821
      7  O4B       23.4860   10.9200   20.0180 O.3   400  NAD400     -0.3135
      8  C3B       22.9650   13.0440   20.9100 C.3   400  NAD400      0.2184
      9  O3B       21.5860   13.2510   21.2490 O.3   400  NAD400     -0.2174
     10  C2B       23.7680   12.2110   21.9300 C.3   400  NAD400      0.2570
     11  O2B       23.3510   12.4260   23.2970 O.3   400  NAD400     -0.2130
     12  C1B       23.4550   10.8030   21.4440 C.3   400  NAD400      0.3186
     13  N9A       24.5450    9.8950   21.8440 N.pl3 400  NAD400     -0.1439
     14  C8A       25.8950   10.0810   21.6920 C.3   400  NAD400      0.3377
     15  N7A       26.5950    9.0240   22.1350 N.2   400  NAD400     -0.2095
     16  C5A       25.6290    8.1510   22.6710 C.2   400  NAD400      0.2526
     17  C6A       25.7380    6.8650   23.2830 C.2   400  NAD400      0.4393
     18  N6A       26.9090    6.2460   23.5340 N.pl3 400  NAD400      0.2180
     19  N1A       24.5490    6.2530   23.6060 N.2   400  NAD400      0.0021
     20  C2A       23.3680    6.8910   23.3570 C.3   400  NAD400      0.5254
     21  N3A       23.1680    8.0710   22.8330 N.2   400  NAD400     -0.0055
     22  C4A       24.3590    8.6560   22.4920 C.2   400  NAD400      0.3518
     23  O3        24.2670   14.2230   15.8420 O.3   400  NAD400     -0.2703
     24  PN        23.3210   14.3790   14.5440 P.3   400  NAD400      0.2189
     25  O1N       21.8920   14.4130   14.9330 O.3   400  NAD400     -0.4371
     26  O2N       23.9490   15.4810   13.6710 O.2   400  NAD400     -0.5170
     27  O5D       23.7320   12.9910   13.8410 O.3   400  NAD400     -0.3112
     28  C5D       22.8310   11.8580   13.9240 C.3   400  NAD400      0.1813
     29  C4D       23.4400   10.7230   13.1600 C.3   400  NAD400      0.1799
     30  O4D       23.4380   11.0680   11.7610 O.3   400  NAD400     -0.3327
     31  C3D       24.9020   10.3560   13.5000 C.3   400  NAD400      0.2158
     32  O3D       25.1150    8.9210   13.4060 O.3   400  NAD400     -0.2175
     33  C2D       25.7070   11.0750   12.3960 C.3   400  NAD400      0.2309
     34  O2D       26.9620   10.3700   12.1940 O.3   400  NAD400     -0.2158
     35  C1D       24.7460   10.9260   11.2330 C.3   400  NAD400      0.2263
     36  N1N       24.9290   11.9420   10.1950 N.pl3 400  NAD400     -0.2787
     37  C2N       24.9030   13.2660   10.4660 C.3   400  NAD400      0.1244
     38  C3N       24.9350   14.2940    9.4240 C.2   400  NAD400      0.0544
     39  C7N       24.9030   15.7250    9.8340 C.2   400  NAD400      0.2818
     40  O7N       25.0000   16.5490    8.9130 O.2   400  NAD400     -0.2670
     41  N7N       24.7630   16.1110   11.1340 N.am  400  NAD400     -0.0839
     42  C4N       25.0620   13.9000    8.0010 C.2   400  NAD400      0.0033
     43  C5N       25.1130   12.4330    7.8570 C.2   400  NAD400      0.0157
     44  C6N       25.0670   11.5600    8.8520 C.2   400  NAD400      0.0633
@<TRIPOS>BOND
     1    43    42    1
     2    43    44    2
     3    42    38    2
     4    44    36    1
     5    40    39    2
     6    38    39    1
     7    38    37    1
     8    39    41   am
     9    36    37    1
    10    36    35    1
    11    35    30    1
    12    35    33    1
    13    30    29    1
    14    34    33    1
    15    33    31    1
    16    29    31    1
    17    29    28    1
    18    32    31    1
    19    26    24    2
    20    27    28    1
    21    27    24    1
    22    24    25    1
    23    24    23    1
    24    23     1    1
    25     3     1    2
    26     1     2    1
    27     1     4    1
    28     4     5    1
    29     5     6    1
    30     6     7    1
    31     6     8    1
    32     7    12    1
    33     8     9    1
    34     8    10    1
    35    12    13    1
    36    12    10    1
    37    14    13    1
    38    14    15    1
    39    13    22    1
    40    10    11    1
    41    15    16    2
    42    22    16    1
    43    22    21    2
    44    16    17    1
    45    21    20    1
    46    17    18    1
    47    17    19    2
    48    20    19    1
