@<TRIPOS>MOLECULE
1r6d_DAU_A_1.pdb
 36 38 0 0 0
SMALL
GASTEIGER

@<TRIPOS>ATOM
      1  O6        28.9900   15.4800    5.3970 O.3   401  DAU401     -0.2176
      2  C6        28.1920   14.7610    6.3850 C.3   401  DAU401      0.2142
      3  C5        28.7130   15.3210    7.7130 C.3   401  DAU401      0.1835
      4  O5        28.3220   16.7230    7.7790 O.3   401  DAU401     -0.3254
      5  C4        28.1650   14.5730    8.8930 C.3   401  DAU401      0.2144
      6  O4        28.6030   13.2150    8.8120 O.3   401  DAU401     -0.2176
      7  C3        28.7740   15.2460   10.1080 C.3   401  DAU401      0.2198
      8  O3        28.3050   14.5500   11.2740 O.3   401  DAU401     -0.2174
      9  C2        28.3610   16.7290   10.1450 C.3   401  DAU401      0.2409
     10  O2        28.9180   17.3470   11.3050 O.3   401  DAU401     -0.2149
     11  C1        28.8990   17.4370    8.8890 C.3   401  DAU401      0.2742
     12  O1        30.4270   17.3320    8.7680 O.3   401  DAU401     -0.2857
     13  P2        31.2550   18.5460    8.4090 P.3   401  DAU401      0.2208
     14  O3P       31.1640   18.8360    6.8630 O.2   401  DAU401     -0.5170
     15  O4P       32.6520   18.3160    8.9730 O.3   401  DAU401     -0.4371
     16  OPP       30.5210   19.7230    9.1970 O.3   401  DAU401     -0.2703
     17  P         30.9820   21.0590   10.0480 P.3   401  DAU401      0.2189
     18  O1P       31.9010   20.8100   11.1680 O.3   401  DAU401     -0.4371
     19  O2P       29.7190   21.7130   10.4830 O.2   401  DAU401     -0.5170
     20  O5'       31.7870   21.8930    8.9450 O.3   401  DAU401     -0.3112
     21  C5'       31.2190   22.1650    7.6850 C.3   401  DAU401      0.1812
     22  C4'       32.2860   22.8380    6.8700 C.3   401  DAU401      0.1773
     23  O4'       32.5370   24.1430    7.4220 O.3   401  DAU401     -0.3339
     24  C3'       33.6300   22.1510    6.8890 C.3   401  DAU401      0.1857
     25  O3'       34.2320   22.2980    5.6220 O.3   401  DAU401     -0.2203
     26  C2'       34.4710   22.8830    7.9360 C.3   401  DAU401      0.0874
     27  C1'       33.8840   24.2860    7.8310 C.3   401  DAU401      0.2090
     28  N11       33.8820   25.0420    9.0870 N.am  401  DAU401     -0.1794
     29  C61       33.2650   24.4740   10.1880 C.2   401  DAU401      0.0877
     30  C51       33.1930   25.0840   11.3460 C.2   401  DAU401      0.0891
     31  C5A       32.4970   24.3770   12.5130 C.3   401  DAU401      0.0462
     32  C21       34.4550   26.2950    9.1250 C.1   401  DAU401      0.2844
     33  O21       34.9860   26.8560    8.1820 O.2   401  DAU401     -0.1918
     34  N31       34.3680   26.8910   10.3500 N.2   401  DAU401     -0.2455
     35  C41       33.7700   26.3760   11.4980 C.1   401  DAU401      0.2134
     36  O41       33.8130   27.0420   12.5230 O.2   401  DAU401     -0.2088
@<TRIPOS>BOND
     1     1     2    1
     2    25    24    1
     3     2     3    1
     4    14    13    2
     5    22    24    1
     6    22    23    1
     7    22    21    1
     8    24    26    1
     9    23    27    1
    10    21    20    1
    11     3     4    1
    12     3     5    1
    13     4    11    1
    14    27    26    1
    15    27    28    1
    16    33    32    2
    17    13    12    1
    18    13    15    1
    19    13    16    1
    20    12    11    1
    21     6     5    1
    22    11     9    1
    23     5     7    1
    24    20    17    1
    25    28    32   am
    26    28    29    1
    27    32    34    2
    28    16    17    1
    29    17    19    2
    30    17    18    1
    31     7     9    1
    32     7     8    1
    33     9    10    1
    34    29    30    2
    35    34    35    2
    36    30    35    1
    37    30    31    1
    38    35    36    2
