@<TRIPOS>MOLECULE
1r6g_442_A_1.pdb
 31 33 0 0 0
SMALL
GASTEIGER

@<TRIPOS>ATOM
      1  O3        44.1220    2.7280   17.5560 O.co2 500  442500     -0.2453
      2  C8        45.3060    3.1580   17.6040 C.2   500  442500      0.3692
      3  O2        46.2680    2.4890   18.0550 O.co2 500  442500     -0.2453
      4  C7        45.5010    4.5660   17.0710 C.3   500  442500      0.1404
      5  C5        46.9000    4.5970   16.4620 C.ar  500  442500     -0.0098
      6  C6        47.0470    4.0480   15.1910 C.ar  500  442500      0.0061
      7  C4        48.0360    5.0120   17.1770 C.ar  500  442500      0.0061
      8  C3        49.3180    4.9200   16.6270 C.ar  500  442500      0.0692
      9 BR2        50.9260    5.4350   17.4480 Br    500  442500     -0.0458
     10  C2        49.5040    4.3530   15.2940 C.ar  500  442500      0.1575
     11  C1        48.2950    3.9200   14.5880 C.ar  500  442500      0.0692
     12 BR1        48.4830    3.1900   12.8760 Br    500  442500     -0.0458
     13  O4        50.7590    4.2800   14.7330 O.3   500  442500     -0.4525
     14  C11       51.1400    5.2740   13.8500 C.ar  500  442500      0.1457
     15  C12       52.0960    5.0160   12.8600 C.ar  500  442500      0.0453
     16  C13       52.4820    6.0230   11.9810 C.ar  500  442500      0.0972
     17  C14       51.8560    7.3640   12.1160 C.ar  500  442500      0.2003
     18  C15       50.9130    7.5830   13.1010 C.ar  500  442500      0.0453
     19  C16       50.5560    6.5490   13.9560 C.ar  500  442500      0.0408
     20  O         52.1660    8.3590   11.2990 O.3   500  442500     -0.2864
     21  C17       53.4910    5.7690   10.8870 C.2   500  442500      0.2719
     22  O1        54.3530    4.8870   10.9630 O.2   500  442500     -0.2679
     23  N28       53.4300    6.5340    9.8090 N.am  500  442500     -0.1784
     24  C29       54.6850    6.9700    9.2530 C.2   500  442500      0.0672
     25  C30       54.6220    7.9450    8.0690 C.3   500  442500      0.0705
     26  C31       54.7720    9.2350    8.8120 C.ar  500  442500     -0.0164
     27  C36       56.0370    9.6020    9.2270 C.ar  500  442500     -0.0039
     28  C35       56.1990   10.7180   10.0290 C.ar  500  442500     -0.0003
     29  C32       53.6540    9.9360    9.2290 C.ar  500  442500     -0.0039
     30  C33       53.8180   11.0500   10.0450 C.ar  500  442500     -0.0003
     31  C34       55.0950   11.4440   10.4430 C.ar  500  442500     -0.0000
@<TRIPOS>BOND
     1    25    26    1
     2    25    24    1
     3    26    27   ar
     4    26    29   ar
     5    27    28   ar
     6    29    30   ar
     7    24    23    2
     8    23    21    1
     9    28    31   ar
    10    30    31   ar
    11    21    22    2
    12    21    16    1
    13    20    17    1
    14    16    17   ar
    15    16    15   ar
    16    17    18   ar
    17    15    14   ar
    18    12    11    1
    19    18    19   ar
    20    14    19   ar
    21    14    13    1
    22    11     6   ar
    23    11    10   ar
    24    13    10    1
    25     6     5   ar
    26    10     8   ar
    27     5     4    1
    28     5     7   ar
    29     8     7   ar
    30     8     9    1
    31     4     2    1
    32     1     2   ar
    33     2     3   ar
