@<TRIPOS>MOLECULE
1r6n_434_A_1.pdb
 41 46 0 0 0
SMALL
GASTEIGER

@<TRIPOS>ATOM
      1  C1        54.7630    3.8610    2.5120 C.3   1111  4341111     0.1476
      2  C2        55.2350    3.4530    3.9070 C.ar  1111  4341111     0.0059
      3  O4        55.5630    4.8430    1.8900 O.3   1111  4341111    -0.3409
      4  C5        54.8600    5.3850    0.7940 C.3   1111  4341111     0.2125
      5  C6        53.4010    4.9130    0.8810 C.3   1111  4341111     0.1537
      6  C8        53.3280    4.3140    2.2830 C.3   1111  4341111     0.1237
      7  C10       55.0730    6.8780    0.8480 C.2   1111  4341111     0.2049
      8  C11       55.8120    7.2950   -0.3460 C.ar  1111  4341111     0.0400
      9  O12       54.6930    7.6050    1.7350 O.2   1111  4341111    -0.2884
     10  C13       55.5260    4.9840   -0.4890 C.2   1111  4341111     0.2049
     11  O14       55.5990    3.8600   -0.9290 O.2   1111  4341111    -0.2884
     12  C15       56.2280    8.5840   -0.7190 C.ar  1111  4341111    -0.0012
     13  C17       56.9380    8.7080   -1.9340 C.ar  1111  4341111    -0.0218
     14  C19       57.2090    7.5780   -2.7280 C.ar  1111  4341111    -0.0042
     15  C21       56.7760    6.2900   -2.3270 C.ar  1111  4341111     0.0027
     16  C23       56.0790    6.1840   -1.1300 C.ar  1111  4341111     0.0403
     17  C24       52.3520    5.9820    0.5590 C.2   1111  4341111     0.3681
     18  O25       51.2460    6.0980    1.0650 O.co2 1111  4341111    -0.2455
     19  O26       52.7500    6.7900   -0.3170 O.co2 1111  4341111    -0.2455
     20  C28       52.6750    4.9780    3.4900 C.2   1111  4341111     0.2485
     21  O29       51.8010    4.5150    4.1830 O.2   1111  4341111    -0.2729
     22  N30       53.2620    6.2280    3.6630 N.am  1111  4341111    -0.1791
     23  C31       52.7790    7.1330    4.6580 C.ar  1111  4341111     0.0734
     24  C33       52.9590    8.5110    4.5000 C.ar  1111  4341111     0.0166
     25  C35       52.5000    9.4070    5.4570 C.ar  1111  4341111     0.0026
     26  C37       51.8440    8.9530    6.6110 C.ar  1111  4341111     0.0161
     27  C38       51.3800    9.9250    7.6070 C.2   1111  4341111     0.0913
     28  C39       51.6600    7.5650    6.7720 C.ar  1111  4341111     0.0026
     29  C41       52.1200    6.6700    5.8100 C.ar  1111  4341111     0.0166
     30  N43       50.1720   10.5690    7.4770 N.2   1111  4341111    -0.1558
     31  N44       50.0220   11.3840    8.5190 N.pl3 1111  4341111    -0.0836
     32  S46       51.2400   11.4140    9.6270 S.3   1111  4341111     0.0014
     33  C47       52.0980   10.2730    8.7360 C.3   1111  4341111     0.1281
     34  C49       56.5740    3.6450    4.3040 C.ar  1111  4341111     0.0103
     35  C51       57.0150    3.2700    5.5830 C.ar  1111  4341111     0.0680
     36  C53       56.0970    2.6830    6.5090 C.ar  1111  4341111     0.0682
     37  C55       54.7620    2.4910    6.1140 C.ar  1111  4341111     0.0120
     38  C57       54.3340    2.8680    4.8360 C.ar  1111  4341111    -0.0010
     39  C3        57.4210   10.0920   -2.3970 C.3   1111  4341111     0.0310
     40 CL1        58.6500    3.5330    5.9850 Cl    1111  4341111    -0.0814
     41 CL2        56.5820    2.2110    8.0870 Cl    1111  4341111    -0.0814
@<TRIPOS>BOND
     1    14    15   ar
     2    14    13   ar
     3    39    13    1
     4    15    16   ar
     5    13    12   ar
     6    16    10    1
     7    16     8   ar
     8    11    10    2
     9    12     8   ar
    10    10     4    1
    11     8     7    1
    12    19    17   ar
    13    17     5    1
    14    17    18   ar
    15     4     7    1
    16     4     5    1
    17     4     3    1
    18     7     9    2
    19     5     6    1
    20     3     1    1
    21     6     1    1
    22     6    20    1
    23     1     2    1
    24    20    22   am
    25    20    21    2
    26    22    23    1
    27     2    34   ar
    28     2    38   ar
    29    34    35   ar
    30    24    23   ar
    31    24    25   ar
    32    23    29   ar
    33    38    37   ar
    34    25    26   ar
    35    35    40    1
    36    35    36   ar
    37    29    28   ar
    38    37    36   ar
    39    36    41    1
    40    26    28   ar
    41    26    27    1
    42    30    27    2
    43    30    31    1
    44    27    33    1
    45    31    32    1
    46    33    32    1
