@<TRIPOS>MOLECULE
1r6o_YBT_A_1.pdb
 15 18 0 0 0
SMALL
GASTEIGER

@<TRIPOS>ATOM
      1  Y1        32.3900   15.8600   13.3800 Y     412  YBT412      0.0000
      2  O1        30.7740   17.5320   13.2290 O.3   412  YBT412      0.0000
      3  O2        30.3630   14.9160   12.6300 O.3   412  YBT412      0.0000
      4  O3        27.6860   17.3380   15.8350 O.3   412  YBT412      0.0000
      5  O4        32.5660   13.9640   14.7380 O.3   412  YBT412      0.0000
      6  O5        32.9150   17.0100   15.3240 O.3   412  YBT412      0.0000
      7  N1        30.4210   15.5660   15.5220 N.4   412  YBT412      0.0000
      8  C1        29.3410   16.0310   14.5850 C.3   412  YBT412      0.0000
      9  C2        29.6270   17.4830   14.0920 C.3   412  YBT412      0.0000
     10  C3        29.1550   15.0910   13.3680 C.3   412  YBT412      0.0000
     11  C4        28.0040   16.0290   15.3540 C.3   412  YBT412      0.0000
     12  C5        30.4280   14.1440   15.9700 C.3   412  YBT412      0.0000
     13  C6        31.3830   13.2680   15.0960 C.3   412  YBT412      0.0000
     14  C7        30.8880   16.5590   16.5090 C.3   412  YBT412      0.0000
     15  C8        32.4160   16.5100   16.5420 C.3   412  YBT412      0.0000
@<TRIPOS>BOND
     1     3    10    1
     2     3     1    1
     3     2     1    1
     4     2     9    1
     5    10     8    1
     6     1     5    1
     7     1     6    1
     8     1     7    1
     9     9     8    1
    10     8    11    1
    11     8     7    1
    12     5    13    1
    13    13    12    1
    14     6    15    1
    15    11     4    1
    16     7    12    1
    17     7    14    1
    18    14    15    1
