@<TRIPOS>MOLECULE
1r6q_YBT_A_1.pdb
 15 18 0 0 0
SMALL
GASTEIGER

@<TRIPOS>ATOM
      1  Y1        33.0400   15.3930   14.0750 Y     144  YBT144      0.0000
      2  O1        31.4150   17.0500   13.9120 O.3   144  YBT144      0.0000
      3  O2        30.9790   14.4210   13.4490 O.3   144  YBT144      0.0000
      4  O3        28.1980   16.9590   16.2890 O.3   144  YBT144      0.0000
      5  O4        33.2970   13.5900   15.5230 O.3   144  YBT144      0.0000
      6  O5        33.6170   16.6700   15.9330 O.3   144  YBT144      0.0000
      7  N1        31.1700   15.2140   16.2890 N.4   144  YBT144      0.0000
      8  C1        30.0410   15.6120   15.3890 C.3   144  YBT144      0.0000
      9  C2        30.2900   17.0320   14.8080 C.3   144  YBT144      0.0000
     10  C3        29.8040   14.6180   14.2340 C.3   144  YBT144      0.0000
     11  C4        28.7530   15.6390   16.2400 C.3   144  YBT144      0.0000
     12  C5        31.2180   13.8230   16.8180 C.3   144  YBT144      0.0000
     13  C6        32.1370   12.9110   15.9530 C.3   144  YBT144      0.0000
     14  C7        31.6370   16.2640   17.2070 C.3   144  YBT144      0.0000
     15  C8        33.1600   16.2500   17.2000 C.3   144  YBT144      0.0000
@<TRIPOS>BOND
     1     3     1    1
     2     3    10    1
     3     2     1    1
     4     2     9    1
     5     1     5    1
     6     1     6    1
     7     1     7    1
     8    10     8    1
     9     9     8    1
    10     8    11    1
    11     8     7    1
    12     5    13    1
    13     6    15    1
    14    13    12    1
    15    11     4    1
    16     7    12    1
    17     7    14    1
    18    15    14    1
