@<TRIPOS>MOLECULE
1r6t_TYM_A_1.pdb
 37 41 0 0 0
SMALL
GASTEIGER

@<TRIPOS>ATOM
      1  P         43.1270   42.0760   47.0430 P.3   501  TYM501      0.2723
      2  O1P       42.6430   42.2900   45.6490 O.2   501  TYM501     -0.5082
      3  O2P       42.7410   40.8370   47.7670 O.3   501  TYM501     -0.4273
      4  O5'       42.6340   43.3130   47.9270 O.3   501  TYM501     -0.3024
      5  C5'       43.0550   44.6480   47.6140 C.3   501  TYM501      0.1823
      6  C4'       43.2220   45.4780   48.8630 C.3   501  TYM501      0.1822
      7  O4'       42.0010   45.4450   49.6550 O.3   501  TYM501     -0.3135
      8  C1'       42.2830   45.0290   50.9860 C.3   501  TYM501      0.3186
      9  N9        41.0870   44.3130   51.4650 N.pl3 501  TYM501     -0.1439
     10  C4        40.2700   44.7160   52.4980 C.2   501  TYM501      0.3518
     11  N3        40.4110   45.8280   53.2750 N.2   501  TYM501     -0.0055
     12  C2        39.4310   45.9240   54.1920 C.3   501  TYM501      0.5254
     13  N1        38.3940   45.0790   54.3950 N.2   501  TYM501      0.0021
     14  C6        38.2700   43.9650   53.5980 C.2   501  TYM501      0.4393
     15  N6        37.2330   43.1490   53.8160 N.pl3 501  TYM501      0.2180
     16  C5        39.2570   43.7490   52.5850 C.2   501  TYM501      0.2526
     17  N7        39.4400   42.7590   51.6320 N.2   501  TYM501     -0.2095
     18  C8        40.5310   43.1330   50.9940 C.3   501  TYM501      0.3377
     19  C2'       43.5950   44.2300   50.8690 C.3   501  TYM501      0.2570
     20  O2'       44.2800   44.1300   52.1060 O.3   501  TYM501     -0.2130
     21  C3'       44.3360   45.0280   49.8050 C.3   501  TYM501      0.2184
     22  O3'       44.9420   46.1760   50.3800 O.3   501  TYM501     -0.2174
     23  NH3       47.8160   40.2440   45.8460 N.3   501  TYM501     -0.1206
     24  CA        47.0890   41.3880   46.3830 C.3   501  TYM501      0.1943
     25  CB        47.3530   42.6130   45.4970 C.3   501  TYM501      0.0547
     26  CG        48.5540   43.4330   45.8520 C.2   501  TYM501     -0.0138
     27  CD2       48.6900   44.3460   46.9550 C.3   501  TYM501      0.0819
     28  CE2       50.0070   44.8950   46.8770 C.2   501  TYM501      0.0665
     29  CE3       47.8300   44.7650   48.0240 C.2   501  TYM501     -0.0164
     30  CD1       49.7420   43.4660   45.1750 C.2   501  TYM501      0.0907
     31  NE1       50.6160   44.3370   45.7820 N.2   501  TYM501     -0.2482
     32  CZ2       50.4890   45.8490   47.8210 C.2   501  TYM501      0.0153
     33  CZ3       48.3050   45.7080   48.9600 C.2   501  TYM501     -0.0038
     34  CH2       49.6270   46.2390   48.8520 C.2   501  TYM501      0.0009
     35  C         45.5830   41.1480   46.3910 C.2   501  TYM501      0.3389
     36  O         45.1090   40.0970   45.9380 O.2   501  TYM501     -0.2482
     37  OPP       44.7330   42.1520   46.9940 O.3   501  TYM501     -0.4091
@<TRIPOS>BOND
     1    30    31    1
     2    30    26    2
     3    25    26    1
     4    25    24    1
     5     2     1    2
     6    31    28    2
     7    23    24    1
     8    26    27    1
     9    36    35    2
    10    24    35    1
    11    35    37    1
    12    28    27    1
    13    28    32    1
    14    27    29    1
    15    37     1    1
    16     1     3    1
    17     1     4    1
    18     5     4    1
    19     5     6    1
    20    32    34    2
    21    29    33    2
    22    34    33    1
    23     6     7    1
    24     6    21    1
    25     7     8    1
    26    21    22    1
    27    21    19    1
    28    19     8    1
    29    19    20    1
    30     8     9    1
    31    18     9    1
    32    18    17    1
    33     9    10    1
    34    17    16    2
    35    10    16    1
    36    10    11    2
    37    16    14    1
    38    11    12    1
    39    14    15    1
    40    14    13    2
    41    12    13    1
