@<TRIPOS>MOLECULE
1r6u_TYM_A_1.pdb
 37 41 0 0 0
SMALL
GASTEIGER

@<TRIPOS>ATOM
      1  P          5.1570   53.6180   43.0400 P.3   501  TYM501      0.2723
      2  O1P        6.5180   53.8900   42.5190 O.2   501  TYM501     -0.5082
      3  O2P        4.4820   52.3470   42.6420 O.3   501  TYM501     -0.4273
      4  O5'        4.2120   54.8230   42.5800 O.3   501  TYM501     -0.3024
      5  C5'        4.5720   56.1870   42.8370 C.3   501  TYM501      0.1823
      6  C4'        3.3400   57.0330   43.1010 C.3   501  TYM501      0.1822
      7  O4'        2.4920   57.0360   41.9180 O.3   501  TYM501     -0.3135
      8  C1'        1.1710   56.6460   42.2520 C.3   501  TYM501      0.3186
      9  N9         0.6310   55.8460   41.1360 N.pl3 501  TYM501     -0.1439
     10  C4        -0.4760   56.1560   40.3740 C.2   501  TYM501      0.3518
     11  N3        -1.2960   57.2500   40.4920 N.2   501  TYM501     -0.0055
     12  C2        -2.2890   57.2340   39.5730 C.3   501  TYM501      0.5254
     13  N1        -2.5230   56.3010   38.6170 N.2   501  TYM501      0.0021
     14  C6        -1.6800   55.2140   38.5230 C.2   501  TYM501      0.4393
     15  N6        -1.9240   54.3080   37.5770 N.pl3 501  TYM501      0.2180
     16  C5        -0.5920   55.1170   39.4430 C.2   501  TYM501      0.2526
     17  N7         0.4140   54.1780   39.6190 N.2   501  TYM501     -0.2095
     18  C8         1.1110   54.6500   40.6270 C.3   501  TYM501      0.3377
     19  C2'        1.2610   55.9020   43.5890 C.3   501  TYM501      0.2570
     20  O2'        0.0530   56.0110   44.3100 O.3   501  TYM501     -0.2130
     21  C3'        2.4650   56.5530   44.2680 C.3   501  TYM501      0.2184
     22  O3'        2.0550   57.6690   45.0660 O.3   501  TYM501     -0.2174
     23  NH3        6.6780   51.7500   47.6060 N.3   501  TYM501     -0.1206
     24  CA         6.0630   52.9030   46.9490 C.3   501  TYM501      0.1943
     25  CB         6.9650   54.1350   47.1020 C.3   501  TYM501      0.0547
     26  CG         6.6350   55.0120   48.2730 C.2   501  TYM501     -0.0138
     27  CD2        5.4790   55.8690   48.4370 C.3   501  TYM501      0.0819
     28  CE2        5.6150   56.5050   49.7130 C.2   501  TYM501      0.0665
     29  CE3        4.3260   56.1790   47.6360 C.2   501  TYM501     -0.0164
     30  CD1        7.3880   55.1560   49.4080 C.2   501  TYM501      0.0907
     31  NE1        6.7900   56.0440   50.2750 N.2   501  TYM501     -0.2482
     32  CZ2        4.6480   57.4330   50.2110 C.2   501  TYM501      0.0153
     33  CZ3        3.3680   57.0980   48.1310 C.2   501  TYM501     -0.0038
     34  CH2        3.5390   57.7140   49.4100 C.2   501  TYM501      0.0009
     35  C          5.8330   52.6420   45.4520 C.2   501  TYM501      0.3389
     36  O          6.1660   51.5680   44.9460 O.2   501  TYM501     -0.2482
     37  OPP        5.2150   53.6650   44.6480 O.3   501  TYM501     -0.4091
@<TRIPOS>BOND
     1    15    14    1
     2    14    13    2
     3    14    16    1
     4    13    12    1
     5    16    17    2
     6    16    10    1
     7    12    11    1
     8    17    18    1
     9    10    11    2
    10    10     9    1
    11    18     9    1
    12     9     8    1
    13     7     8    1
    14     7     6    1
    15     8    19    1
    16     2     1    2
    17     4     5    1
    18     4     1    1
    19     3     1    1
    20     5     6    1
    21     1    37    1
    22     6    21    1
    23    19    21    1
    24    19    20    1
    25    21    22    1
    26    37    35    1
    27    36    35    2
    28    35    24    1
    29    24    25    1
    30    24    23    1
    31    25    26    1
    32    29    33    2
    33    29    27    1
    34    33    34    1
    35    26    27    1
    36    26    30    2
    37    27    28    1
    38    30    31    1
    39    34    32    2
    40    28    32    1
    41    28    31    2
