@<TRIPOS>MOLECULE
1r6w_164_A_1.pdb
 17 17 0 0 0
SMALL
GASTEIGER

@<TRIPOS>ATOM
      1  O1        30.0890   21.1370   12.4530 O.co2 735  164735     -0.2404
      2  C7        30.1650   20.4470   13.6050 C.2   735  164735      0.3909
      3  O2        31.4600   20.4210   14.0940 O.co2 735  164735     -0.2404
      4  C2        28.9090   19.7550   14.3190 C.ar  735  164735      0.1213
      5  C3        29.2110   19.8540   15.7320 C.ar  735  164735      0.2021
      6  C4        28.5120   20.7760   16.6750 C.ar  735  164735      0.0423
      7  C5        27.3720   21.4820   16.2910 C.ar  735  164735      0.0034
      8  C6        26.8830   21.3630   14.8340 C.ar  735  164735      0.0033
      9  O9        28.7000   18.4960   16.1140 O.3   735  164735     -0.2863
     10  C1        27.6080   20.4950   13.8540 C.ar  735  164735      0.0442
     11  C8        27.1370   20.2730   12.5070 C.2   735  164735      0.1739
     12  O3        27.6010   19.3950   11.7400 O.2   735  164735     -0.2913
     13  C9        25.8840   21.1420   12.1690 C.3   735  164735      0.0810
     14  C10       25.3380   20.7750   10.8020 C.3   735  164735      0.1222
     15  C11       26.2620   21.2830    9.6610 C.2   735  164735      0.3653
     16  O5        27.2240   22.0770    9.8200 O.co2 735  164735     -0.2456
     17  O4        25.9750   20.7760    8.5520 O.co2 735  164735     -0.2456
@<TRIPOS>BOND
     1    17    15   ar
     2    15    16   ar
     3    15    14    1
     4    14    13    1
     5    12    11    2
     6    13    11    1
     7     1     2   ar
     8    11    10    1
     9     2     3   ar
    10     2     4    1
    11    10     4   ar
    12    10     8   ar
    13     4     5   ar
    14     8     7   ar
    15     5     9    1
    16     5     6   ar
    17     7     6   ar
