@<TRIPOS>MOLECULE
1r6z_MAL_A_1.pdb
 23 24 0 0 0
SMALL
GASTEIGER

@<TRIPOS>ATOM
      1  C1        -3.1210   67.1520   -9.3070 C.3   727  MAL727      0.2695
      2  C2        -2.7070   68.5730   -8.7910 C.3   727  MAL727      0.2406
      3  C3        -3.7300   69.6080   -9.2600 C.3   727  MAL727      0.2198
      4  C4        -3.7880   69.5470  -10.8130 C.3   727  MAL727      0.2144
      5  C5        -4.1740   68.1450  -11.2720 C.3   727  MAL727      0.1835
      6  C6        -4.0680   68.0110  -12.7710 C.3   727  MAL727      0.2142
      7  O1        -4.3410   66.9230   -8.6750 O.3   727  MAL727     -0.3257
      8  O2        -2.5900   68.5750   -7.3370 O.3   727  MAL727     -0.2149
      9  O3        -3.3860   70.9460   -8.8630 O.3   727  MAL727     -0.2174
     10  O4        -4.7310   70.4980  -11.3440 O.3   727  MAL727     -0.2176
     11  O5        -3.2410   67.1940  -10.6900 O.3   727  MAL727     -0.3256
     12  O6        -4.7760   66.8140  -13.2790 O.3   727  MAL727     -0.2176
     13  C1'       -6.2450   64.0620   -6.2300 C.3   727  MAL727      0.3023
     14  C2'       -4.8250   64.4680   -5.8600 C.3   727  MAL727      0.2433
     15  C3'       -4.4980   65.8000   -6.5440 C.3   727  MAL727      0.2168
     16  C4'       -4.6000   65.6400   -8.0470 C.3   727  MAL727      0.1804
     17  C5'       -6.1130   65.3270   -8.4000 C.3   727  MAL727      0.1804
     18  C6'       -6.3100   65.0590   -9.9270 C.3   727  MAL727      0.2141
     19  O1'       -7.1320   64.8680   -5.6180 O.3   727  MAL727     -0.1869
     20  O2'       -4.7520   64.6240   -4.4550 O.3   727  MAL727     -0.2148
     21  O3'       -3.1500   66.1070   -6.1870 O.3   727  MAL727     -0.2175
     22  O5'       -6.5870   64.2460   -7.5700 O.3   727  MAL727     -0.3237
     23  O6'       -7.7240   64.8230  -10.0640 O.3   727  MAL727     -0.2176
@<TRIPOS>BOND
     1    12     6    1
     2     6     5    1
     3    10     4    1
     4     5     4    1
     5     5    11    1
     6     4     3    1
     7    11     1    1
     8    23    18    1
     9    18    17    1
    10     1     2    1
    11     1     7    1
    12     3     9    1
    13     3     2    1
    14     2     8    1
    15     7    16    1
    16    17    16    1
    17    17    22    1
    18    16    15    1
    19    22    13    1
    20    15    21    1
    21    15    14    1
    22    13    14    1
    23    13    19    1
    24    14    20    1
