@<TRIPOS>MOLECULE
1r78_FMD_A_1.pdb
 28 30 0 0 0
SMALL
GASTEIGER

@<TRIPOS>ATOM
      1  F17       16.8200   -6.2940   12.7790 F     299  FMD299     -0.2078
      2  C1        16.0240   -7.2080   13.3630 C.2   299  FMD299      0.1297
      3  C2        14.8770   -7.6070   12.6580 C.3   299  FMD299      0.1384
      4  C18       14.5880   -7.0390   11.4020 C.1   299  FMD299     -0.0781
      5  C19       14.3260   -6.5710   10.3330 C.1   299  FMD299     -0.0566
      6  C20       13.9630   -6.0270    9.0860 C.3   299  FMD299      0.2348
      7  O27       14.1610   -4.6110    9.1400 O.3   299  FMD299     -0.2071
      8  C23       14.6030   -6.7310    7.8620 C.3   299  FMD299      0.1647
      9  N28       15.0060   -8.1160    8.1400 N.3   299  FMD299     -0.1264
     10  C24       13.5260   -6.7260    6.7610 C.3   299  FMD299      0.1731
     11  O26       14.0860   -6.7570    5.4410 O.3   299  FMD299     -0.2215
     12  C25       12.5500   -5.5320    6.8670 C.3   299  FMD299      0.0372
     13  C3        14.0350   -8.6160   13.3210 C.2   299  FMD299      0.0308
     14  C4        14.4160   -9.1250   14.6010 C.2   299  FMD299      0.1241
     15  N9        13.4400  -10.0330   14.9620 N.2   299  FMD299     -0.3375
     16  C8        12.4300  -10.2030   13.9990 C.1   299  FMD299      0.2004
     17  O10       11.4920  -10.9640   14.1290 O.2   299  FMD299     -0.2096
     18  C5        15.5580   -8.6850   15.2550 C.3   299  FMD299      0.0877
     19  C6        16.3660   -7.7200   14.6230 C.2   299  FMD299      0.0078
     20  C7        12.8870   -9.2350   12.9440 C.2   299  FMD299      0.0777
     21  C11       12.1510   -9.0080   11.6890 C.3   299  FMD299      0.0831
     22  C12       10.8900   -9.5210   11.1570 C.2   299  FMD299      0.0730
     23  C13       10.2570   -9.2220    9.9660 C.3   299  FMD299      0.1748
     24  O21       10.7020   -8.3290    9.0100 O.3   299  FMD299     -0.3435
     25  C22       10.2500   -8.4690    7.6530 C.3   299  FMD299      0.1750
     26  C14        9.0360  -10.0210    9.9770 C.2   299  FMD299      0.0292
     27  C15        9.0230  -10.7450   11.1260 C.2   299  FMD299      0.0964
     28  N16       10.1410  -10.4580   11.8400 N.2   299  FMD299     -0.2496
@<TRIPOS>BOND
     1    11    10    1
     2    10    12    1
     3    10     8    1
     4    25    24    1
     5     8     9    1
     6     8     6    1
     7    24    23    1
     8     6     7    1
     9     6     5    1
    10    23    26    1
    11    23    22    1
    12    26    27    2
    13     5     4    3
    14    27    28    1
    15    22    21    1
    16    22    28    2
    17     4     3    1
    18    21    20    1
    19     3    13    1
    20     3     2    1
    21     1     2    1
    22    20    13    2
    23    20    16    1
    24    13    14    1
    25     2    19    2
    26    16    17    2
    27    16    15    2
    28    14    15    2
    29    14    18    1
    30    19    18    1
