@<TRIPOS>MOLECULE
1r7r_ADP_A_1.pdb
 27 29 0 0 0
SMALL
GASTEIGER

@<TRIPOS>ATOM
      1  PB       120.9400   21.0340   58.1920 P.3   817  ADP817      0.5373
      2  O1B      120.8430   20.1320   59.3960 O.3   817  ADP817     -0.1143
      3  O2B      121.2170   20.1740   56.9460 O.2   817  ADP817     -0.2221
      4  O3B      122.1770   22.0510   58.2890 O.3   817  ADP817     -0.1143
      5  PA       118.5960   22.4590   59.2320 P.3   817  ADP817      0.2231
      6  O1A      117.2020   22.2000   58.9050 O.2   817  ADP817     -0.5169
      7  O2A      118.9950   22.0810   60.6690 O.3   817  ADP817     -0.4370
      8  O3A      119.5510   21.8820   58.0450 O.3   817  ADP817     -0.2261
      9  O5'      118.8530   23.9900   59.0400 O.3   817  ADP817     -0.3111
     10  C5'      118.4570   24.5360   57.8240 C.3   817  ADP817      0.1813
     11  C4'      118.0970   25.9640   58.0990 C.3   817  ADP817      0.1821
     12  O4'      117.7790   26.5190   56.7960 O.3   817  ADP817     -0.3135
     13  C3'      116.8280   25.9360   58.8900 C.3   817  ADP817      0.2184
     14  O3'      117.1650   26.1900   60.2200 O.3   817  ADP817     -0.2174
     15  C2'      115.9650   27.0050   58.2100 C.3   817  ADP817      0.2570
     16  O2'      116.2200   28.2400   58.8990 O.3   817  ADP817     -0.2130
     17  C1'      116.4350   26.9970   56.7280 C.3   817  ADP817      0.3186
     18  N9       115.6450   26.1130   55.8040 N.pl3 817  ADP817     -0.1439
     19  C8       116.0840   25.0700   55.0580 C.3   817  ADP817      0.3377
     20  N7       115.0730   24.5340   54.4090 N.2   817  ADP817     -0.2095
     21  C5       113.9770   25.2450   54.7570 C.2   817  ADP817      0.2526
     22  C6       112.6320   25.1630   54.3910 C.2   817  ADP817      0.4393
     23  N6       112.1380   24.2150   53.5520 N.pl3 817  ADP817      0.2180
     24  N1       111.7870   26.0710   54.9370 N.2   817  ADP817      0.0021
     25  C2       112.2520   27.0010   55.8020 C.3   817  ADP817      0.5254
     26  N3       113.5300   27.0860   56.1570 N.2   817  ADP817     -0.0055
     27  C4       114.3410   26.2160   55.6230 C.2   817  ADP817      0.3518
@<TRIPOS>BOND
     1    23    22    1
     2    22    21    1
     3    22    24    2
     4    20    21    2
     5    20    19    1
     6    21    27    1
     7    24    25    1
     8    19    18    1
     9    27    18    1
    10    27    26    2
    11    25    26    1
    12    18    17    1
    13    17    12    1
    14    17    15    1
    15    12    11    1
    16     3     1    2
    17    10    11    1
    18    10     9    1
    19     8     1    1
    20     8     5    1
    21    11    13    1
    22     1     4    1
    23     1     2    1
    24    15    13    1
    25    15    16    1
    26    13    14    1
    27     6     5    2
    28     9     5    1
    29     5     7    1
