@<TRIPOS>MOLECULE
1r7t_FUC_A_1.pdb
 10 10 0 0 0
SMALL
GASTEIGER

@<TRIPOS>ATOM
      1  C1        14.5830   62.6210   45.3240 C.3   453  FUC453      0.1776
      2  C2        13.2110   62.8970   45.9530 C.3   453  FUC453      0.2141
      3  C3        12.8870   64.3950   45.8990 C.3   453  FUC453      0.2172
      4  C4        13.0250   64.9140   44.4650 C.3   453  FUC453      0.2116
      5  C5        14.4230   64.5860   43.9310 C.3   453  FUC453      0.1483
      6  C6        14.6150   65.0190   42.4870 C.3   453  FUC453      0.0349
      7  O2        13.2240   62.4640   47.3060 O.3   453  FUC453     -0.2176
      8  O3        11.5630   64.6210   46.3660 O.3   453  FUC453     -0.2175
      9  O4        12.0420   64.3050   43.6380 O.3   453  FUC453     -0.2177
     10  O5        14.6470   63.1550   43.9850 O.3   453  FUC453     -0.3508
@<TRIPOS>BOND
     1     6     5    1
     2     9     4    1
     3     5    10    1
     4     5     4    1
     5    10     1    1
     6     4     3    1
     7     1     2    1
     8     3     2    1
     9     3     8    1
    10     2     7    1
