@<TRIPOS>MOLECULE
1r7t_DLG_A_1.pdb
 17 17 0 0 0
SMALL
GASTEIGER

@<TRIPOS>ATOM
      1  C1        17.8780   64.0290   46.1440 C.3   452  DLG452      0.2668
      2  C2        16.9440   62.8720   45.7600 C.3   452  DLG452      0.2105
      3  C3        17.3620   61.6060   46.5130 C.3   452  DLG452      0.0737
      4  C4        18.8360   61.3090   46.2330 C.3   452  DLG452      0.1843
      5  C5        19.6930   62.5280   46.5940 C.3   452  DLG452      0.1809
      6  C6        21.1570   62.3290   46.2540 C.3   452  DLG452      0.2141
      7  O1        17.5510   65.2020   45.3960 O.3   452  DLG452     -0.3286
      8  O2        15.5810   63.2110   46.0940 O.3   452  DLG452     -0.2176
      9  O4        19.0000   61.0060   44.8560 O.3   452  DLG452     -0.2204
     10  O5        19.2420   63.6840   45.8530 O.3   452  DLG452     -0.3258
     11  O6        21.9780   63.2640   46.9430 O.3   452  DLG452     -0.2176
     12  C11       17.8690   66.4270   46.1320 C.3   452  DLG452      0.1449
     13  C12       17.6520   67.4680   45.0100 C.3   452  DLG452      0.0322
     14  C13       18.2020   68.9360   45.2950 C.3   452  DLG452      0.0026
     15  C14       19.7520   69.0050   45.7710 C.3   452  DLG452      0.0001
     16  C15       20.5630   70.3570   45.6970 C.3   452  DLG452      0.0000
     17  C16       21.5140   70.4850   44.5150 C.3   452  DLG452      0.0000
@<TRIPOS>BOND
     1    17    16    1
     2     9     4    1
     3    13    14    1
     4    13    12    1
     5    14    15    1
     6     7    12    1
     7     7     1    1
     8    16    15    1
     9     2     8    1
    10     2     1    1
    11     2     3    1
    12    10     1    1
    13    10     5    1
    14     4     3    1
    15     4     5    1
    16     6     5    1
    17     6    11    1
