@<TRIPOS>MOLECULE
1r7u_FUC_A_1.pdb
 10 10 0 0 0
SMALL
GASTEIGER

@<TRIPOS>ATOM
      1  C1        14.6110   62.5710   45.4310 C.3   453  FUC453      0.1776
      2  C2        13.2620   62.8520   46.1030 C.3   453  FUC453      0.2141
      3  C3        13.0060   64.3610   46.1560 C.3   453  FUC453      0.2172
      4  C4        13.1340   64.9670   44.7550 C.3   453  FUC453      0.2116
      5  C5        14.4940   64.6000   44.1450 C.3   453  FUC453      0.1483
      6  C6        14.6400   65.0910   42.7200 C.3   453  FUC453      0.0349
      7  O2        13.2820   62.3290   47.4220 O.3   453  FUC453     -0.2176
      8  O3        11.7060   64.6120   46.6710 O.3   453  FUC453     -0.2175
      9  O4        12.0940   64.4710   43.9250 O.3   453  FUC453     -0.2177
     10  O5        14.6550   63.1620   44.1180 O.3   453  FUC453     -0.3508
@<TRIPOS>BOND
     1     6     5    1
     2     9     4    1
     3    10     5    1
     4    10     1    1
     5     5     4    1
     6     4     3    1
     7     1     2    1
     8     2     3    1
     9     2     7    1
    10     3     8    1
