@<TRIPOS>MOLECULE
1r7u_DLG_A_1.pdb
 17 17 0 0 0
SMALL
GASTEIGER

@<TRIPOS>ATOM
      1  C1        17.9210   63.9640   46.1090 C.3   452  DLG452      0.2668
      2  C2        16.9790   62.8040   45.7630 C.3   452  DLG452      0.2105
      3  C3        17.4570   61.5160   46.4380 C.3   452  DLG452      0.0737
      4  C4        18.9170   61.2500   46.0710 C.3   452  DLG452      0.1843
      5  C5        19.7580   62.4670   46.4510 C.3   452  DLG452      0.1809
      6  C6        21.2230   62.3140   46.0870 C.3   452  DLG452      0.2141
      7  O1        17.5520   65.1330   45.3730 O.3   452  DLG452     -0.3286
      8  O2        15.6400   63.1110   46.1970 O.3   452  DLG452     -0.2176
      9  O4        19.0130   61.0290   44.6730 O.3   452  DLG452     -0.2204
     10  O5        19.2700   63.6280   45.7520 O.3   452  DLG452     -0.3258
     11  O6        21.9570   63.4830   46.4280 O.3   452  DLG452     -0.2176
     12  C11       18.2780   66.3280   45.8130 C.3   452  DLG452      0.1449
     13  C12       17.0900   67.2640   46.1340 C.3   452  DLG452      0.0322
     14  C13       16.1510   66.8300   47.3390 C.3   452  DLG452      0.0026
     15  C14       15.2090   68.0060   47.9150 C.3   452  DLG452      0.0001
     16  C15       14.1360   67.7040   49.0260 C.3   452  DLG452      0.0000
     17  C16       12.9780   68.6820   49.0910 C.3   452  DLG452      0.0000
@<TRIPOS>BOND
     1     9     4    1
     2     7    12    1
     3     7     1    1
     4    10     1    1
     5    10     5    1
     6     2     1    1
     7     2     8    1
     8     2     3    1
     9    12    13    1
    10     4     3    1
    11     4     5    1
    12     6    11    1
    13     6     5    1
    14    13    14    1
    15    14    15    1
    16    15    16    1
    17    16    17    1
