@<TRIPOS>MOLECULE
1r7v_AIG_A_1.pdb
 18 18 0 0 0
SMALL
GASTEIGER

@<TRIPOS>ATOM
      1  C1        18.2510   64.4790   46.1990 C.3   452  AIG452      0.2683
      2  O1        17.9000   65.5860   45.3650 O.3   452  AIG452     -0.3286
      3  C2        17.2580   63.3310   45.9860 C.3   452  AIG452      0.2279
      4  O2        15.9370   63.7450   46.3860 O.3   452  AIG452     -0.2161
      5  C3        17.6830   62.1000   46.7910 C.3   452  AIG452      0.1599
      6  C4        19.1180   61.7280   46.4310 C.3   452  AIG452      0.2017
      7  O4        19.1620   61.3090   45.0740 O.3   452  AIG452     -0.2188
      8  C5        20.0390   62.9400   46.6330 C.3   452  AIG452      0.1824
      9  O5        19.5780   64.0590   45.8430 O.3   452  AIG452     -0.3257
     10  C6        21.4700   62.6660   46.2200 C.3   452  AIG452      0.2142
     11  O6        22.3150   63.7570   46.5500 O.3   452  AIG452     -0.2176
     12  N3        16.8010   60.9880   46.4960 N.3   452  AIG452     -0.1272
     13  C1'       18.2010   66.8770   45.9790 C.3   452  AIG452      0.1449
     14  C2'       17.0780   67.7310   45.3480 C.3   452  AIG452      0.0322
     15  C3'       17.2840   68.1650   43.8330 C.3   452  AIG452      0.0026
     16  C4'       16.5640   67.2060   42.7460 C.3   452  AIG452      0.0001
     17  C5'       15.0020   66.9690   42.7820 C.3   452  AIG452      0.0000
     18  C6'       14.5170   65.6970   42.1160 C.3   452  AIG452      0.0000
@<TRIPOS>BOND
     1    18    17    1
     2    16    17    1
     3    16    15    1
     4    15    14    1
     5     7     6    1
     6    14    13    1
     7     2    13    1
     8     2     1    1
     9     9     1    1
    10     9     8    1
    11     3     1    1
    12     3     4    1
    13     3     5    1
    14    10    11    1
    15    10     8    1
    16     6     8    1
    17     6     5    1
    18    12     5    1
