@<TRIPOS>MOLECULE
1r7x_AIG_A_1.pdb
 18 18 0 0 0
SMALL
GASTEIGER

@<TRIPOS>ATOM
      1  C1        17.6890   63.4580   46.3540 C.3   452  AIG452      0.2683
      2  O1        16.9670   64.3790   45.5400 O.3   452  AIG452     -0.3286
      3  C2        17.0380   62.0710   46.2250 C.3   452  AIG452      0.2279
      4  O2        15.7670   62.0720   46.9040 O.3   452  AIG452     -0.2161
      5  C3        17.9250   60.9810   46.8190 C.3   452  AIG452      0.1599
      6  C4        19.2950   61.0710   46.1780 C.3   452  AIG452      0.2017
      7  O4        19.1550   60.9490   44.7660 O.3   452  AIG452     -0.2188
      8  C5        19.8680   62.4370   46.5040 C.3   452  AIG452      0.1824
      9  O5        19.0510   63.4510   45.8800 O.3   452  AIG452     -0.3257
     10  C6        21.2830   62.6030   45.9800 C.3   452  AIG452      0.2142
     11  O6        21.8010   63.8860   46.2990 O.3   452  AIG452     -0.2176
     12  N3        17.3450   59.6760   46.5700 N.3   452  AIG452     -0.1272
     13  C1'       16.7890   65.6900   46.1510 C.3   452  AIG452      0.1449
     14  C2'       15.5220   66.1320   45.3800 C.3   452  AIG452      0.0322
     15  C3'       15.6980   66.3850   43.8200 C.3   452  AIG452      0.0026
     16  C4'       14.3900   66.0870   42.9110 C.3   452  AIG452      0.0001
     17  C5'       13.9320   64.6140   42.5970 C.3   452  AIG452      0.0000
     18  C6'       13.2710   64.4070   41.2410 C.3   452  AIG452      0.0000
@<TRIPOS>BOND
     1    18    17    1
     2    17    16    1
     3    16    15    1
     4    15    14    1
     5     7     6    1
     6    14    13    1
     7     2    13    1
     8     2     1    1
     9     9     1    1
    10     9     8    1
    11    10    11    1
    12    10     8    1
    13     6     8    1
    14     6     5    1
    15     3     1    1
    16     3     5    1
    17     3     4    1
    18    12     5    1
