@<TRIPOS>MOLECULE
1r7y_UDP_A_1.pdb
 25 26 0 0 0
SMALL
GASTEIGER

@<TRIPOS>ATOM
      1  N1         9.9760   51.2520   47.2470 N.am  475  UDP475     -0.1766
      2  C2         8.9710   50.2900   47.4580 C.1   475  UDP475      0.2845
      3  N3         8.5990   50.0510   48.7740 N.2   475  UDP475     -0.2452
      4  C4         9.1220   50.6680   49.9270 C.1   475  UDP475      0.2182
      5  C5        10.2510   51.7440   49.6500 C.2   475  UDP475      0.1242
      6  C6        10.5700   51.9340   48.3470 C.2   475  UDP475      0.0929
      7  O2         8.4320   49.6750   46.5290 O.2   475  UDP475     -0.1918
      8  O4         8.6700   50.3290   51.0230 O.2   475  UDP475     -0.2085
      9  C1'       10.4200   51.5460   45.8470 C.3   475  UDP475      0.2401
     10  C2'        9.4780   52.4320   44.9990 C.3   475  UDP475      0.2319
     11  O2'        9.3410   51.9050   43.6980 O.3   475  UDP475     -0.2157
     12  C3'       10.1790   53.7990   45.0160 C.3   475  UDP475      0.2158
     13  C4'       11.6270   53.4040   45.0040 C.3   475  UDP475      0.1799
     14  O4'       11.6800   52.2420   45.8740 O.3   475  UDP475     -0.3320
     15  O3'        9.8370   54.4890   43.8130 O.3   475  UDP475     -0.2175
     16  C5'       12.5760   54.4830   45.5550 C.3   475  UDP475      0.1813
     17  O5'       12.1160   54.9150   46.8260 O.3   475  UDP475     -0.3111
     18  PA        11.5160   56.2740   47.3660 P.3   475  UDP475      0.2231
     19  O1A       10.3610   56.6490   46.5050 O.2   475  UDP475     -0.5169
     20  O2A       11.2300   56.0670   48.8280 O.3   475  UDP475     -0.4370
     21  O3A       12.7790   57.1920   47.0410 O.3   475  UDP475     -0.2261
     22  PB        12.9370   58.6240   46.3380 P.3   475  UDP475      0.5373
     23  O1B       14.4830   59.0210   46.6010 O.3   475  UDP475     -0.1143
     24  O2B       11.9920   59.4610   47.1170 O.3   475  UDP475     -0.1143
     25  O3B       12.8320   58.5810   44.8560 O.2   475  UDP475     -0.2221
@<TRIPOS>BOND
     1    11    10    1
     2    15    12    1
     3    25    22    2
     4    10    12    1
     5    10     9    1
     6    13    12    1
     7    13    16    1
     8    13    14    1
     9    16    17    1
    10     9    14    1
    11     9     1    1
    12    22    23    1
    13    22    21    1
    14    22    24    1
    15    19    18    2
    16     7     2    2
    17    17    18    1
    18    21    18    1
    19     1     2   am
    20     1     6    1
    21    18    20    1
    22     2     3    2
    23     6     5    2
    24     3     4    2
    25     5     4    1
    26     4     8    2
