@<TRIPOS>MOLECULE
1r7y_AIG_A_1.pdb
 18 18 0 0 0
SMALL
GASTEIGER

@<TRIPOS>ATOM
      1  C1        17.8990   63.8930   46.1780 C.3   452  AIG452      0.2683
      2  O1        17.3210   65.0350   45.5220 O.3   452  AIG452     -0.3286
      3  C2        17.0190   62.6410   45.9970 C.3   452  AIG452      0.2279
      4  O2        15.7370   62.8820   46.6220 O.3   452  AIG452     -0.2161
      5  C3        17.7050   61.4390   46.6670 C.3   452  AIG452      0.1599
      6  C4        19.1400   61.2800   46.1510 C.3   452  AIG452      0.2017
      7  O4        19.1010   60.8990   44.7860 O.3   452  AIG452     -0.2188
      8  C5        19.9150   62.5990   46.2940 C.3   452  AIG452      0.1824
      9  O5        19.2060   63.6680   45.6290 O.3   452  AIG452     -0.3257
     10  C6        21.3250   62.5570   45.7080 C.3   452  AIG452      0.2142
     11  O6        22.0960   63.6560   46.1770 O.3   452  AIG452     -0.2176
     12  N3        16.9500   60.2380   46.3750 N.3   452  AIG452     -0.1272
     13  C1'       17.8240   66.3040   46.0740 C.3   452  AIG452      0.1449
     14  C2'       16.6620   67.2720   45.7500 C.3   452  AIG452      0.0322
     15  C3'       16.3780   67.5220   44.2230 C.3   452  AIG452      0.0026
     16  C4'       15.1510   66.6080   43.6790 C.3   452  AIG452      0.0001
     17  C5'       14.4530   66.9200   42.3070 C.3   452  AIG452      0.0000
     18  C6'       13.7610   65.8840   41.8520 C.3   452  AIG452      0.0000
@<TRIPOS>BOND
     1    18    17    1
     2    17    16    1
     3    16    15    1
     4    15    14    1
     5     7     6    1
     6     2    13    1
     7     2     1    1
     8     9     1    1
     9     9     8    1
    10    10    11    1
    11    10     8    1
    12    14    13    1
    13     3     1    1
    14     3     4    1
    15     3     5    1
    16     6     8    1
    17     6     5    1
    18    12     5    1
