@<TRIPOS>MOLECULE
1r80_UDP_A_1.pdb
 25 26 0 0 0
SMALL
GASTEIGER

@<TRIPOS>ATOM
      1  N1         9.9080   51.6260   47.3720 N.am  475  UDP475     -0.1766
      2  C2         8.8420   50.7510   47.6440 C.1   475  UDP475      0.2845
      3  N3         8.4230   50.6630   48.9610 N.2   475  UDP475     -0.2452
      4  C4         8.9500   51.3570   50.0640 C.1   475  UDP475      0.2182
      5  C5        10.1490   52.3350   49.7220 C.2   475  UDP475      0.1242
      6  C6        10.5140   52.3780   48.4170 C.2   475  UDP475      0.0929
      7  O2         8.2910   50.0810   46.7590 O.2   475  UDP475     -0.1918
      8  O4         8.4500   51.1530   51.1710 O.2   475  UDP475     -0.2085
      9  C1'       10.3940   51.7500   45.9600 C.3   475  UDP475      0.2401
     10  C2'        9.5140   52.6010   45.0170 C.3   475  UDP475      0.2319
     11  O2'        9.4030   51.9890   43.7520 O.3   475  UDP475     -0.2157
     12  C3'       10.2620   53.9380   44.9660 C.3   475  UDP475      0.2158
     13  C4'       11.6990   53.4900   45.0110 C.3   475  UDP475      0.1799
     14  O4'       11.6930   52.3740   45.9430 O.3   475  UDP475     -0.3320
     15  O3'        9.9630   54.5650   43.7170 O.3   475  UDP475     -0.2175
     16  C5'       12.6680   54.5620   45.5340 C.3   475  UDP475      0.1813
     17  O5'       12.1710   55.0800   46.7590 O.3   475  UDP475     -0.3111
     18  PA        11.5800   56.4800   47.1820 P.3   475  UDP475      0.2231
     19  O1A       10.4690   56.8190   46.2510 O.2   475  UDP475     -0.5169
     20  O2A       11.2320   56.3870   48.6400 O.3   475  UDP475     -0.4370
     21  O3A       12.8740   57.3330   46.8410 O.3   475  UDP475     -0.2261
     22  PB        13.0730   58.8310   46.3320 P.3   475  UDP475      0.5373
     23  O1B       14.6240   59.1420   46.6540 O.3   475  UDP475     -0.1143
     24  O2B       12.1320   59.5680   47.2070 O.3   475  UDP475     -0.1143
     25  O3B       12.9830   58.9890   44.8580 O.2   475  UDP475     -0.2221
@<TRIPOS>BOND
     1    15    12    1
     2    11    10    1
     3    25    22    2
     4    12    13    1
     5    12    10    1
     6    13    16    1
     7    13    14    1
     8    10     9    1
     9    16    17    1
    10    14     9    1
    11     9     1    1
    12    19    18    2
    13    22    23    1
    14    22    21    1
    15    22    24    1
    16     7     2    2
    17    17    18    1
    18    21    18    1
    19    18    20    1
    20     1     2   am
    21     1     6    1
    22     2     3    2
    23     6     5    2
    24     3     4    2
    25     5     4    1
    26     4     8    2
