@<TRIPOS>MOLECULE
1r80_AIG_A_1.pdb
 18 18 0 0 0
SMALL
GASTEIGER

@<TRIPOS>ATOM
      1  C1        17.6720   63.9520   46.1090 C.3   452  AIG452      0.2683
      2  O1        17.0710   64.8310   45.1560 O.3   452  AIG452     -0.3282
      3  C2        16.8870   62.6250   46.1270 C.3   452  AIG452      0.2279
      4  O2        15.6630   62.8500   46.8600 O.3   452  AIG452     -0.2161
      5  C3        17.6770   61.4770   46.7920 C.3   452  AIG452      0.1599
      6  C4        19.1250   61.4390   46.3090 C.3   452  AIG452      0.2017
      7  O4        19.1600   61.1070   44.9270 O.3   452  AIG452     -0.2188
      8  C5        19.7440   62.8070   46.5170 C.3   452  AIG452      0.1824
      9  O5        19.0410   63.7650   45.7080 O.3   452  AIG452     -0.3257
     10  C6        21.2060   62.8460   46.1030 C.3   452  AIG452      0.2142
     11  O6        21.8350   64.0400   46.5430 O.3   452  AIG452     -0.2176
     12  N3        17.0490   60.2040   46.4980 N.3   452  AIG452     -0.1272
     13  C1'       16.4240   65.9940   45.7520 C.3   452  AIG452      0.1495
     14  C2'       16.0210   66.7380   44.4560 C.3   452  AIG452      0.0582
     15  C3'       14.7150   66.2220   43.7100 C.2   452  AIG452     -0.0235
     16  C4'       14.9600   65.1610   42.5130 C.2   452  AIG452     -0.0045
     17  C5'       13.7570   64.3250   41.9160 C.2   452  AIG452     -0.0003
     18  C6'       13.3480   64.6740   40.6860 C.2   452  AIG452     -0.0000
@<TRIPOS>BOND
     1    18    17    2
     2    17    16    1
     3    16    15    2
     4    15    14    1
     5    14    13    1
     6     7     6    1
     7     2    13    1
     8     2     1    1
     9     9     1    1
    10     9     8    1
    11    10     8    1
    12    10    11    1
    13     1     3    1
    14     3     5    1
    15     3     4    1
    16     6     8    1
    17     6     5    1
    18    12     5    1
