@<TRIPOS>MOLECULE
1r81_UD2_A_1.pdb
 25 26 0 0 0
SMALL
GASTEIGER

@<TRIPOS>ATOM
      1  O1'        9.9620   51.9720   50.8720 O.2   475  UD2475     -0.2221
      2  N1        10.6420   52.9050   45.8780 N.am  475  UD2475     -0.1766
      3  C2         9.9370   52.2510   44.8620 C.1   475  UD2475      0.2845
      4  N3         9.1850   51.1450   45.2310 N.2   475  UD2475     -0.2452
      5  C4         9.0530   50.6050   46.5270 C.1   475  UD2475      0.2182
      6  C5         9.8640   51.3710   47.6510 C.2   475  UD2475      0.1242
      7  C6        10.5780   52.4400   47.2260 C.2   475  UD2475      0.0929
      8  O2         9.9750   52.6330   43.6850 O.2   475  UD2475     -0.1918
      9  O4         8.3410   49.6120   46.6740 O.2   475  UD2475     -0.2085
     10  C1B       11.4680   54.1010   45.5170 C.3   475  UD2475      0.2401
     11  C2B       10.7730   55.4780   45.6200 C.3   475  UD2475      0.2319
     12  O2'       11.1150   56.2900   44.5100 O.3   475  UD2475     -0.2157
     13  C3B       11.2910   56.0400   46.9550 C.3   475  UD2475      0.2158
     14  C4B       12.6930   55.4720   47.0270 C.3   475  UD2475      0.1799
     15  O4B       12.6150   54.1690   46.3790 O.3   475  UD2475     -0.3320
     16  O3B       11.3250   57.4680   46.8450 O.3   475  UD2475     -0.2175
     17  C5B       13.2250   55.2460   48.4560 C.3   475  UD2475      0.1813
     18  O5B       12.1850   55.4540   49.4070 O.3   475  UD2475     -0.3111
     19  PA        11.9940   55.0960   50.9360 P.3   475  UD2475      0.2231
     20  O1A       13.1680   55.6570   51.6590 O.3   475  UD2475     -0.4370
     21  O2A       10.6430   55.6230   51.3280 O.2   475  UD2475     -0.5169
     22  O3A       12.0990   53.4900   50.7990 O.3   475  UD2475     -0.2261
     23  PB        11.3020   52.2320   51.4610 P.3   475  UD2475      0.5373
     24  O1B       10.9500   52.6850   52.9830 O.3   475  UD2475     -0.1143
     25  O2B       12.3210   51.1540   51.4160 O.3   475  UD2475     -0.1143
@<TRIPOS>BOND
     1     8     3    2
     2    12    11    1
     3     3     4    2
     4     3     2   am
     5     4     5    2
     6    10    11    1
     7    10     2    1
     8    10    15    1
     9    11    13    1
    10     2     7    1
    11    15    14    1
    12     5     9    2
    13     5     6    1
    14    16    13    1
    15    13    14    1
    16    14    17    1
    17     7     6    2
    18    17    18    1
    19    18    19    1
    20    22    19    1
    21    22    23    1
    22     1    23    2
    23    19    21    2
    24    19    20    1
    25    25    23    1
    26    23    24    1
