@<TRIPOS>MOLECULE
1r81_AIG_A_1.pdb
 18 18 0 0 0
SMALL
GASTEIGER

@<TRIPOS>ATOM
      1  C1        17.9140   63.7760   46.6610 C.3   452  AIG452      0.2683
      2  O1        17.4540   65.0420   46.1940 O.3   452  AIG452     -0.3286
      3  C2        17.0230   62.6390   46.1490 C.3   452  AIG452      0.2279
      4  O2        15.6580   62.8510   46.5730 O.3   452  AIG452     -0.2161
      5  C3        17.5630   61.3220   46.7210 C.3   452  AIG452      0.1599
      6  C4        19.0370   61.1540   46.3270 C.3   452  AIG452      0.2017
      7  O4        19.1350   60.9920   44.9210 O.3   452  AIG452     -0.2188
      8  C5        19.8480   62.3850   46.7580 C.3   452  AIG452      0.1824
      9  O5        19.2600   63.5840   46.2090 O.3   452  AIG452     -0.3257
     10  C6        21.2890   62.3420   46.2900 C.3   452  AIG452      0.2142
     11  O6        21.9890   63.5150   46.6840 O.3   452  AIG452     -0.2176
     12  N3        16.7840   60.2000   46.2350 N.3   452  AIG452     -0.1272
     13  C1'       17.4260   66.0190   47.2860 C.3   452  AIG452      0.1449
     14  C2'       17.0200   67.2860   46.5100 C.3   452  AIG452      0.0325
     15  C3'       18.1440   67.9410   45.6050 C.3   452  AIG452      0.0072
     16  C4'       17.9460   67.6980   44.0250 C.3   452  AIG452      0.0261
     17  C5'       16.6660   68.2430   43.2830 C.2   452  AIG452     -0.0261
     18  C6'       15.9130   67.3140   42.6830 C.2   452  AIG452     -0.0049
@<TRIPOS>BOND
     1    18    17    2
     2    17    16    1
     3    16    15    1
     4     7     6    1
     5    15    14    1
     6     3     4    1
     7     3     1    1
     8     3     5    1
     9     2     1    1
    10     2    13    1
    11     9     1    1
    12     9     8    1
    13    12     5    1
    14    10    11    1
    15    10     8    1
    16     6     5    1
    17     6     8    1
    18    14    13    1
