@<TRIPOS>MOLECULE
1r82_AOG_A_1.pdb
 20 20 0 0 0
SMALL
GASTEIGER

@<TRIPOS>ATOM
      1  C1        17.6340   63.4510   46.4170 C.3   452  AOG452      0.2683
      2  O1        16.8740   64.4200   45.6970 O.3   452  AOG452     -0.3286
      3  C2        17.0170   62.0570   46.2170 C.3   452  AOG452      0.2279
      4  O2        15.7200   62.0010   46.8420 O.3   452  AOG452     -0.2161
      5  C3        17.9170   60.9800   46.8200 C.3   452  AOG452      0.1599
      6  C4        19.3220   61.1150   46.2440 C.3   452  AOG452      0.2017
      7  O4        19.2730   60.9090   44.8400 O.3   452  AOG452     -0.2188
      8  C5        19.8480   62.5180   46.5280 C.3   452  AOG452      0.1824
      9  O5        18.9820   63.4960   45.9140 O.3   452  AOG452     -0.3257
     10  C6        21.2370   62.7220   45.9500 C.3   452  AOG452      0.2142
     11  O6        21.8850   63.8390   46.5380 O.3   452  AOG452     -0.2176
     12  N3        17.3840   59.6640   46.5250 N.3   452  AOG452     -0.1272
     13  C1'       16.5870   65.6100   46.4930 C.3   452  AOG452      0.1449
     14  C2'       16.3030   66.6160   45.3580 C.3   452  AOG452      0.0325
     15  C3'       15.0000   66.3530   44.4910 C.3   452  AOG452      0.0072
     16  C4'       15.2890   66.0180   42.9400 C.3   452  AOG452      0.0258
     17  C5'       14.2180   65.7560   42.0320 C.2   452  AOG452     -0.0307
     18  C6'       13.8520   64.3220   41.7090 C.2   452  AOG452     -0.0307
     19  C7'       12.6600   64.1510   40.6900 C.3   452  AOG452      0.0257
     20  C8'       12.7270   62.8470   39.8020 C.3   452  AOG452      0.0050
@<TRIPOS>BOND
     1    20    19    1
     2    19    18    1
     3    18    17    2
     4    17    16    1
     5    16    15    1
     6    15    14    1
     7     7     6    1
     8    14    13    1
     9     2     1    1
    10     2    13    1
    11     9     1    1
    12     9     8    1
    13    10     8    1
    14    10    11    1
    15     3     1    1
    16     3     5    1
    17     3     4    1
    18     6     8    1
    19     6     5    1
    20    12     5    1
