@<TRIPOS>MOLECULE
1r82_GDU_A_1.pdb
 25 26 0 0 0
SMALL
GASTEIGER

@<TRIPOS>ATOM
      1  N1        10.8450   53.1640   46.0510 N.am  475  GDU475     -0.1766
      2  C2        10.1780   52.6230   44.9430 C.1   475  GDU475      0.2845
      3  N3         9.2630   51.5960   45.1900 N.2   475  GDU475     -0.2452
      4  C4         8.9100   51.0100   46.4340 C.1   475  GDU475      0.2182
      5  C5         9.5800   51.5510   47.5780 C.2   475  GDU475      0.1242
      6  C6        10.5740   52.6640   47.3390 C.2   475  GDU475      0.0929
      7  O2        10.3770   53.0260   43.7890 O.2   475  GDU475     -0.1918
      8  O4         8.0760   50.1100   46.4300 O.2   475  GDU475     -0.2085
      9  C1D       11.8370   54.2640   45.8540 C.3   475  GDU475      0.2401
     10  C2D       11.2460   55.6920   45.8250 C.3   475  GDU475      0.2319
     11  O2D       11.3010   56.2400   44.5260 O.3   475  GDU475     -0.2157
     12  C3D       12.1040   56.4830   46.8470 C.3   475  GDU475      0.2158
     13  C4D       13.2730   55.5850   47.1630 C.3   475  GDU475      0.1799
     14  O4D       12.7670   54.2540   46.9390 O.3   475  GDU475     -0.3320
     15  O3D       12.5590   57.6880   46.2240 O.3   475  GDU475     -0.2175
     16  C5D       13.7090   55.7670   48.6290 C.3   475  GDU475      0.1813
     17  O5D       14.3300   54.6160   49.2260 O.3   475  GDU475     -0.3111
     18  PA        13.9310   53.1060   49.5560 P.3   475  GDU475      0.2231
     19  O1A       13.5150   52.4190   48.3070 O.2   475  GDU475     -0.5169
     20  O2A       15.1090   52.4880   50.2510 O.3   475  GDU475     -0.4370
     21  O3A       12.6590   53.4310   50.4760 O.3   475  GDU475     -0.2261
     22  PB        12.3390   54.5530   51.5800 P.3   475  GDU475      0.5373
     23  O1B       11.9970   53.7120   52.9190 O.3   475  GDU475     -0.1143
     24  O2B       11.1490   55.2200   51.0020 O.2   475  GDU475     -0.2221
     25  O3B       13.5180   55.3690   51.9740 O.3   475  GDU475     -0.1143
@<TRIPOS>BOND
     1     7     2    2
     2    11    10    1
     3     2     3    2
     4     2     1   am
     5     3     4    2
     6    10     9    1
     7    10    12    1
     8     9     1    1
     9     9    14    1
    10     1     6    1
    11    15    12    1
    12     8     4    2
    13     4     5    1
    14    12    13    1
    15    14    13    1
    16    13    16    1
    17     6     5    2
    18    19    18    2
    19    16    17    1
    20    17    18    1
    21    18    20    1
    22    18    21    1
    23    21    22    1
    24    24    22    2
    25    22    25    1
    26    22    23    1
