@<TRIPOS>MOLECULE
1r84_RET_A_1.pdb
 48 48 0 0 0
SMALL
GASTEIGER

@<TRIPOS>ATOM
      1  C1        -6.1140   -7.5050    1.8250 C.3   999  RET999     -0.0130
      2  C2        -6.7610   -8.7850    2.4250 C.3   999  RET999     -0.0441
      3  C3        -7.9270   -9.2900    1.5820 C.3   999  RET999     -0.0515
      4  C4        -9.0000   -8.2200    1.6690 C.3   999  RET999     -0.0431
      5  C5        -8.5320   -6.8050    1.3630 C.3   999  RET999     -0.0012
      6  C6        -7.1500   -6.4560    1.3470 C.2   999  RET999     -0.0572
      7  C7        -6.7920   -5.1570    0.8690 C.2   999  RET999     -0.0612
      8  C8        -5.4860   -4.6340    0.7260 C.2   999  RET999     -0.0588
      9  C9        -5.1640   -3.3420    0.2530 C.2   999  RET999     -0.0504
     10  C10       -3.7900   -3.0320    0.1660 C.2   999  RET999     -0.0588
     11  C11       -3.2420   -1.8490   -0.3620 C.2   999  RET999     -0.0613
     12  C12       -1.8400   -1.7170   -0.3710 C.2   999  RET999     -0.0588
     13  C13       -1.1470   -0.5680   -0.7970 C.2   999  RET999     -0.0504
     14  C14        0.2550   -0.4960   -0.7450 C.2   999  RET999     -0.0588
     15  C15        1.0570   -1.6480   -0.7930 C.2   999  RET999     -0.0615
     16  C16       -5.2480   -7.0150    3.0040 C.3   999  RET999     -0.0561
     17  C17       -5.2050   -7.9990    0.6800 C.3   999  RET999     -0.0561
     18  C18       -9.6270   -5.7630    1.2160 C.3   999  RET999     -0.0550
     19  C19       -6.2300   -2.3490   -0.1860 C.3   999  RET999     -0.0397
     20  C20       -1.9000    0.6570   -1.2440 C.3   999  RET999     -0.0397
     21  H21       -7.1430   -8.5740    3.4260 H     999  RET999      0.0273
     22  H22       -6.0240   -9.5820    2.5290 H     999  RET999      0.0273
     23  H31       -7.6260   -9.4420    0.5470 H     999  RET999      0.0266
     24  H32       -8.3040  -10.2270    1.9950 H     999  RET999      0.0266
     25  H41       -9.3940   -8.2300    2.6810 H     999  RET999      0.0274
     26  H42       -9.8110   -8.4920    0.9970 H     999  RET999      0.0274
     27  H7        -7.5870   -4.5100    0.5440 H     999  RET999      0.0618
     28  H8        -4.6370   -5.2470    0.9510 H     999  RET999      0.0620
     29  H10       -3.0890   -3.7850    0.5030 H     999  RET999      0.0620
     30  H11       -3.8750   -1.0670   -0.7560 H     999  RET999      0.0618
     31  H12       -1.2870   -2.5420    0.0460 H     999  RET999      0.0620
     32  H14        0.7320    0.4710   -0.7950 H     999  RET999      0.0620
     33  H15        0.5850   -2.5900   -1.0240 H     999  RET999      0.0618
     34 H161       -4.5840   -6.2090    2.7260 H     999  RET999      0.0238
     35 H162       -5.8910   -6.6610    3.8110 H     999  RET999      0.0238
     36 H163       -4.6200   -7.8210    3.3740 H     999  RET999      0.0238
     37 H171       -4.5050   -7.2340    0.3690 H     999  RET999      0.0238
     38 H172       -4.6170   -8.8600    0.9940 H     999  RET999      0.0238
     39 H173       -5.8080   -8.2850   -0.1800 H     999  RET999      0.0238
     40 H181      -10.5960   -6.2160    1.4120 H     999  RET999      0.0238
     41 H182       -9.4660   -4.9610    1.9360 H     999  RET999      0.0238
     42 H183       -9.6330   -5.3600    0.2050 H     999  RET999      0.0238
     43 H191       -6.4740   -2.5220   -1.2340 H     999  RET999      0.0278
     44 H192       -7.1270   -2.4510    0.4150 H     999  RET999      0.0278
     45 H193       -5.8870   -1.3260   -0.0520 H     999  RET999      0.0278
     46 H201       -2.5790    0.3800   -2.0470 H     999  RET999      0.0278
     47 H202       -2.4510    1.0700   -0.4050 H     999  RET999      0.0278
     48 H203       -1.2000    1.3980   -1.6230 H     999  RET999      0.0278
@<TRIPOS>BOND
     1    46    20    1
     2    48    20    1
     3    20    13    1
     4    20    47    1
     5    43    19    1
     6    33    15    1
     7    13    14    1
     8    13    12    2
     9    32    14    1
    10    15    14    2
    11    30    11    1
    12    12    11    1
    13    12    31    1
    14    11    10    2
    15    19    45    1
    16    19     9    1
    17    19    44    1
    18    39    17    1
    19    10     9    1
    20    10    29    1
    21    42    18    1
    22     9     8    2
    23    37    17    1
    24    27     7    1
    25    23     3    1
    26    17    38    1
    27    17     1    1
    28     8     7    1
    29     8    28    1
    30     7     6    2
    31    26     4    1
    32    18     5    1
    33    18    40    1
    34    18    41    1
    35     6     5    1
    36     6     1    1
    37     5     4    1
    38     3     4    1
    39     3    24    1
    40     3     2    1
    41     4    25    1
    42     1     2    1
    43     1    16    1
    44     2    22    1
    45     2    21    1
    46    34    16    1
    47    16    36    1
    48    16    35    1
