@<TRIPOS>MOLECULE
1r87_XYP_A_1.pdb
 10 10 0 0 0
SMALL
GASTEIGER

@<TRIPOS>ATOM
      1  O4A       77.8910  -90.9250  -31.9480 O.3   448  XYP448     -0.1869
      2  C1B       77.2990  -90.0780  -31.0260 C.3   448  XYP448      0.3024
      3  C2B       75.8080  -90.3430  -31.0460 C.3   448  XYP448      0.2434
      4  C3B       75.0890  -89.6650  -29.8750 C.3   448  XYP448      0.2199
      5  C4B       75.7760  -90.0080  -28.5730 C.3   448  XYP448      0.2143
      6  C5B       77.2400  -89.5810  -28.6520 C.3   448  XYP448      0.1804
      7  O2B       75.3060  -89.8280  -32.2720 O.3   448  XYP448     -0.2148
      8  O3B       73.7280  -90.0910  -29.7850 O.3   448  XYP448     -0.2174
      9  O4B       75.1020  -89.3180  -27.5020 O.3   448  XYP448     -0.2176
     10  O5B       77.8930  -90.3120  -29.7190 O.3   448  XYP448     -0.3237
@<TRIPOS>BOND
     1     7     3    1
     2     1     2    1
     3     3     2    1
     4     3     4    1
     5     2    10    1
     6     4     8    1
     7     4     5    1
     8    10     6    1
     9     6     5    1
    10     5     9    1
