@<TRIPOS>MOLECULE
1r89_CTP_A_1.pdb
 29 30 0 0 0
SMALL
GASTEIGER

@<TRIPOS>ATOM
      1  N1        19.3530   15.5890   34.6540 N.am  501  CTP501     -0.1778
      2  C2        20.5090   16.1630   34.2360 C.1   501  CTP501      0.2756
      3  N3        21.6430   15.4400   34.0650 N.2   501  CTP501     -0.3024
      4  C4        21.6560   14.1140   34.3120 C.2   501  CTP501      0.2346
      5  C5        20.4840   13.5020   34.7390 C.2   501  CTP501      0.0687
      6  C6        19.3320   14.2670   34.9040 C.2   501  CTP501      0.0836
      7  O2        20.5890   17.3800   33.9910 O.2   501  CTP501     -0.1925
      8  N4        22.7750   13.4080   34.1460 N.pl3 501  CTP501     -0.0921
      9  C1'       18.1040   16.3990   34.8860 C.3   501  CTP501      0.2400
     10  C2'       17.1130   16.4200   33.7220 C.3   501  CTP501      0.2319
     11  O2'       17.2740   17.5570   32.8950 O.3   501  CTP501     -0.2157
     12  C3'       15.7460   16.3920   34.3930 C.3   501  CTP501      0.2158
     13  C4'       16.0000   15.7930   35.7800 C.3   501  CTP501      0.1799
     14  O4'       17.4010   15.8710   36.0120 O.3   501  CTP501     -0.3320
     15  O3'       15.1950   17.6860   34.5120 O.3   501  CTP501     -0.2175
     16  C5'       15.5190   14.3520   35.8970 C.3   501  CTP501      0.1813
     17  O5'       16.3450   13.5180   35.1050 O.3   501  CTP501     -0.3112
     18  PA        15.8300   12.0850   34.5650 P.3   501  CTP501      0.2189
     19  O1A       15.4480   11.2000   35.6720 O.3   501  CTP501     -0.4371
     20  O2A       16.9090   11.5180   33.6200 O.2   501  CTP501     -0.5170
     21  O3A       14.5910   12.5360   33.6380 O.3   501  CTP501     -0.2700
     22  PB        13.0530   12.0790   33.7690 P.3   501  CTP501      0.2277
     23  O1B       12.3040   13.2080   33.1910 O.2   501  CTP501     -0.5168
     24  O2B       12.6010   11.7920   35.2070 O.3   501  CTP501     -0.4368
     25  O3B       12.7810   10.8700   32.7500 O.3   501  CTP501     -0.2258
     26  PG        12.8320    9.3130   33.0630 P.3   501  CTP501      0.5373
     27  O1G       11.3340    8.8120   33.0120 O.3   501  CTP501     -0.1143
     28  O2G       13.6570    8.6240   31.8910 O.2   501  CTP501     -0.2221
     29  O3G       13.5210    9.0470   34.4520 O.3   501  CTP501     -0.1143
@<TRIPOS>BOND
     1    28    26    2
     2    25    26    1
     3    25    22    1
     4    11    10    1
     5    27    26    1
     6    26    29    1
     7    23    22    2
     8    20    18    2
     9    21    22    1
    10    21    18    1
    11    10    12    1
    12    10     9    1
    13    22    24    1
    14     7     2    2
    15     3     2    2
    16     3     4    2
    17     8     4    1
    18     2     1   am
    19     4     5    1
    20    12    15    1
    21    12    13    1
    22    18    17    1
    23    18    19    1
    24     1     9    1
    25     1     6    1
    26     5     6    2
    27     9    14    1
    28    17    16    1
    29    13    16    1
    30    13    14    1
