@<TRIPOS>MOLECULE
1r8b_ATP_A_1.pdb
 31 33 0 0 0
SMALL
GASTEIGER

@<TRIPOS>ATOM
      1  PG        12.7830    9.2060   32.9200 P.3   501  ATP501      0.5373
      2  O1G       11.3550    8.8190   32.8280 O.3   501  ATP501     -0.1143
      3  O2G       13.6160    8.5680   31.7890 O.2   501  ATP501     -0.2221
      4  O3G       13.3330    8.8270   34.2930 O.3   501  ATP501     -0.1143
      5  PB        12.9190   12.0320   33.7010 P.3   501  ATP501      0.2277
      6  O1B       12.1410   13.1640   33.0930 O.2   501  ATP501     -0.5168
      7  O2B       12.5100   11.8160   35.1540 O.3   501  ATP501     -0.4368
      8  O3B       12.7640   10.7880   32.6840 O.3   501  ATP501     -0.2258
      9  PA        15.6980   12.0140   34.4550 P.3   501  ATP501      0.2189
     10  O1A       15.3720   11.0350   35.5300 O.3   501  ATP501     -0.4371
     11  O2A       16.8550   11.5330   33.5380 O.2   501  ATP501     -0.5170
     12  O3A       14.4540   12.4830   33.5500 O.3   501  ATP501     -0.2700
     13  O5'       16.0660   13.4260   35.1190 O.3   501  ATP501     -0.3112
     14  C5'       15.1870   14.1460   35.9720 C.3   501  ATP501      0.1813
     15  C4'       15.6900   15.5900   36.0310 C.3   501  ATP501      0.1821
     16  O4'       17.0260   15.6020   36.5290 O.3   501  ATP501     -0.3135
     17  C3'       15.7190   16.2620   34.6500 C.3   501  ATP501      0.2184
     18  O3'       15.1020   17.5240   34.6680 O.3   501  ATP501     -0.2174
     19  C2'       17.1970   16.3950   34.3160 C.3   501  ATP501      0.2570
     20  O2'       17.5480   17.5910   33.6610 O.3   501  ATP501     -0.2130
     21  C1'       17.8840   16.3500   35.6740 C.3   501  ATP501      0.3186
     22  N9        19.2890   15.8580   35.5950 N.pl3 501  ATP501     -0.1439
     23  C8        20.0340   15.6900   34.4480 C.3   501  ATP501      0.3377
     24  N7        21.2610   15.2500   34.7950 N.2   501  ATP501     -0.2095
     25  C5        21.3290   15.1440   36.1340 C.2   501  ATP501      0.2526
     26  C6        22.3620   14.7440   36.9790 C.2   501  ATP501      0.4393
     27  N6        23.5900   14.6400   36.4740 N.pl3 501  ATP501      0.2180
     28  N1        22.1550   14.7260   38.3540 N.2   501  ATP501      0.0021
     29  C2        20.9270   15.1170   38.8590 C.3   501  ATP501      0.5254
     30  N3        19.9110   15.5180   38.0050 N.2   501  ATP501     -0.0055
     31  C4        20.1010   15.5290   36.6590 C.2   501  ATP501      0.3518
@<TRIPOS>BOND
     1     3     1    2
     2     8     1    1
     3     8     5    1
     4     2     1    1
     5     1     4    1
     6     6     5    2
     7    11     9    2
     8    12     5    1
     9    12     9    1
    10    20    19    1
    11     5     7    1
    12    19    17    1
    13    19    21    1
    14    23    24    1
    15    23    22    1
    16     9    13    1
    17     9    10    1
    18    17    18    1
    19    17    15    1
    20    24    25    2
    21    13    14    1
    22    22    21    1
    23    22    31    1
    24    21    16    1
    25    14    15    1
    26    15    16    1
    27    25    31    1
    28    25    26    1
    29    27    26    1
    30    31    30    2
    31    26    28    2
    32    30    29    1
    33    28    29    1
