@<TRIPOS>MOLECULE
1r8c_UTP_A_1.pdb
 29 30 0 0 0
SMALL
GASTEIGER

@<TRIPOS>ATOM
      1  PA        15.2030   11.6030   34.5940 P.3   501  UTP501      0.2189
      2  O1A       14.8490   10.5230   35.5840 O.3   501  UTP501     -0.4371
      3  O2A       16.0360   11.2880   33.3660 O.2   501  UTP501     -0.5170
      4  O3A       13.8910   12.3380   34.0080 O.3   501  UTP501     -0.2700
      5  O5'       15.9090   12.8390   35.3660 O.3   501  UTP501     -0.3112
      6  PB        12.3930   11.7650   33.9330 P.3   501  UTP501      0.2277
      7  O1B       11.6800   12.9140   33.2660 O.2   501  UTP501     -0.5168
      8  O2B       11.9350   11.3260   35.3000 O.3   501  UTP501     -0.4368
      9  O3B       12.2970   10.6010   32.8220 O.3   501  UTP501     -0.2258
     10  PG        12.2970    9.0030   33.0000 P.3   501  UTP501      0.5373
     11  O1G       10.8500    8.6220   32.8300 O.3   501  UTP501     -0.1143
     12  O2G       13.1930    8.5440   31.8480 O.2   501  UTP501     -0.2221
     13  O3G       12.8700    8.7450   34.3710 O.3   501  UTP501     -0.1143
     14  C5'       15.2160   13.7570   36.2300 C.3   501  UTP501      0.1813
     15  C4'       15.6060   15.2260   35.9810 C.3   501  UTP501      0.1799
     16  O4'       16.9870   15.4960   36.2930 O.3   501  UTP501     -0.3320
     17  C1'       17.6860   16.1410   35.2020 C.3   501  UTP501      0.2401
     18  C2'       16.7020   16.2520   34.0390 C.3   501  UTP501      0.2319
     19  O2'       16.5630   17.5960   33.6180 O.3   501  UTP501     -0.2157
     20  C3'       15.3800   15.7060   34.5430 C.3   501  UTP501      0.2158
     21  O3'       14.4110   16.7430   34.5240 O.3   501  UTP501     -0.2175
     22  N1        18.9920   15.5240   34.8410 N.am  501  UTP501     -0.1766
     23  C6        20.0770   16.3240   34.7990 C.2   501  UTP501      0.0929
     24  C2        19.1330   14.2040   34.5680 C.1   501  UTP501      0.2845
     25  O2        18.1620   13.4230   34.5930 O.2   501  UTP501     -0.1918
     26  N3        20.3370   13.6660   34.2500 N.2   501  UTP501     -0.2452
     27  C4        21.4420   14.4380   34.1940 C.1   501  UTP501      0.2182
     28  O4        22.6220   13.9040   33.8770 O.2   501  UTP501     -0.2085
     29  C5        21.3240   15.7960   34.4720 C.2   501  UTP501      0.1242
@<TRIPOS>BOND
     1    12    10    2
     2     9    10    1
     3     9     6    1
     4    11    10    1
     5    10    13    1
     6     7     6    2
     7     3     1    2
     8    19    18    1
     9    28    27    2
    10     6     4    1
    11     6     8    1
    12     4     1    1
    13    18    20    1
    14    18    17    1
    15    27    26    2
    16    27    29    1
    17    26    24    2
    18    29    23    2
    19    21    20    1
    20    20    15    1
    21    24    25    2
    22    24    22   am
    23     1     5    1
    24     1     2    1
    25    23    22    1
    26    22    17    1
    27    17    16    1
    28     5    14    1
    29    15    14    1
    30    15    16    1
