@<TRIPOS>MOLECULE
1r8e_P4P_A_1.pdb
 25 28 0 0 0
SMALL
GASTEIGER

@<TRIPOS>ATOM
      1  P         37.5480  -27.2480   10.9910 P.3   400  P4P400     -0.0109
      2  C1A       37.9150  -28.9070   10.3440 C.ar  400  P4P400      0.0017
      3  C2A       36.8990  -29.8970   10.2090 C.ar  400  P4P400      0.0005
      4  C3A       37.2040  -31.2050    9.6980 C.ar  400  P4P400      0.0000
      5  C4A       38.4940  -31.5300    9.3310 C.ar  400  P4P400      0.0000
      6  C5A       39.5340  -30.5780    9.4540 C.ar  400  P4P400      0.0000
      7  C6A       39.2470  -29.2690    9.9550 C.ar  400  P4P400      0.0005
      8  C1C       38.9510  -26.1460   11.0260 C.ar  400  P4P400      0.0017
      9  C6C       39.7820  -26.0120    9.8600 C.ar  400  P4P400      0.0005
     10  C5C       40.8940  -25.1370    9.8500 C.ar  400  P4P400      0.0000
     11  C4C       41.2030  -24.3650   11.0110 C.ar  400  P4P400      0.0000
     12  C3C       40.3990  -24.4770   12.1700 C.ar  400  P4P400      0.0000
     13  C2C       39.2840  -25.3580   12.1810 C.ar  400  P4P400      0.0005
     14  C1D       37.0120  -27.5170   12.6450 C.ar  400  P4P400      0.0017
     15  C6D       35.9150  -26.7490   13.1650 C.ar  400  P4P400      0.0005
     16  C5D       35.4570  -26.9400   14.5010 C.ar  400  P4P400      0.0000
     17  C4D       36.0910  -27.9000   15.3320 C.ar  400  P4P400      0.0000
     18  C3D       37.1850  -28.6730   14.8340 C.ar  400  P4P400      0.0000
     19  C2D       37.6350  -28.4810   13.5090 C.ar  400  P4P400      0.0005
     20  C6B       35.0240  -27.0060    9.8680 C.ar  400  P4P400      0.0005
     21  C5B       33.9870  -26.3190    9.1800 C.ar  400  P4P400      0.0000
     22  C4B       34.1970  -24.9850    8.7290 C.ar  400  P4P400      0.0000
     23  C3B       35.4270  -24.3420    8.9570 C.ar  400  P4P400      0.0000
     24  C2B       36.4530  -25.0190    9.6390 C.ar  400  P4P400      0.0005
     25  C1B       36.2760  -26.3640   10.1090 C.ar  400  P4P400      0.0017
@<TRIPOS>BOND
     1    22    23   ar
     2    22    21   ar
     3    23    24   ar
     4    21    20   ar
     5     5     6   ar
     6     5     4   ar
     7     6     7   ar
     8    24    25   ar
     9     4     3   ar
    10    10     9   ar
    11    10    11   ar
    12     9     8   ar
    13    20    25   ar
    14     7     2   ar
    15    25     1    1
    16     3     2   ar
    17     2     1    1
    18     1     8    1
    19     1    14    1
    20    11    12   ar
    21     8    13   ar
    22    12    13   ar
    23    14    15   ar
    24    14    19   ar
    25    15    16   ar
    26    19    18   ar
    27    16    17   ar
    28    18    17   ar
