@<TRIPOS>MOLECULE
1r8q_AFB_A_1.pdb
 20 21 0 0 0
SMALL
GASTEIGER

@<TRIPOS>ATOM
      1  OC7       10.0910    6.8570   32.0840 O.3   403  AFB403     -0.2231
      2  C7         8.7250    7.2320   31.9100 C.3   403  AFB403      0.1524
      3  C8         7.9640    6.1570   31.2310 C.3   403  AFB403      0.0373
      4  C6         8.0890    7.2920   33.3370 C.3   403  AFB403      0.0357
      5  C5         6.5380    7.0670   33.0360 C.3   403  AFB403      0.0371
      6  C9         6.5060    6.6790   31.5660 C.3   403  AFB403      0.0267
      7  C10        5.5020    5.5280   31.3330 C.2   403  AFB403     -0.0309
      8  C11        4.5110    5.6510   30.3590 C.2   403  AFB403     -0.0307
      9  C12        3.5790    4.4910   30.1500 C.3   403  AFB403      0.0258
     10  C13        2.0900    4.8720   30.6080 C.3   403  AFB403      0.0084
     11  C14        1.4940    6.0920   29.8490 C.3   403  AFB403      0.0440
     12  C15        0.7970    7.0430   30.8690 C.3   403  AFB403      0.1690
     13  C16        0.1650    8.0980   29.9060 C.3   403  AFB403      0.0473
     14  O16        1.9860    7.7240   31.3940 O.3   403  AFB403     -0.4523
     15  C1         1.9720    8.1170   32.6590 C.2   403  AFB403      0.3169
     16  OC1        0.8730    8.3170   33.1860 O.2   403  AFB403     -0.2501
     17  C2         3.1900    8.4720   33.3190 C.3   403  AFB403      0.1122
     18  C3         4.3400    8.2000   32.5760 C.3   403  AFB403      0.0445
     19  C4         5.7730    8.4290   33.1600 C.3   403  AFB403      0.1529
     20  OC4        5.7460    8.8330   34.5550 O.3   403  AFB403     -0.2231
@<TRIPOS>BOND
     1    11    10    1
     2    11    12    1
     3    13    12    1
     4     9     8    1
     5     9    10    1
     6     8     7    2
     7    12    14    1
     8     3     6    1
     9     3     2    1
    10     7     6    1
    11    14    15    1
    12     6     5    1
    13     2     1    1
    14     2     4    1
    15    18    19    1
    16    18    17    1
    17    15    16    2
    18    15    17    1
    19     5    19    1
    20     5     4    1
    21    19    20    1
