@<TRIPOS>MOLECULE
1r8q_G3D_A_1.pdb
 32 34 0 0 0
SMALL
GASTEIGER

@<TRIPOS>ATOM
      1  PB         6.0890   14.2770   44.9550 P.3   401  G3D401      0.5373
      2  O1B        6.3660   15.4410   44.0120 O.2   401  G3D401     -0.2221
      3  O2B        4.8710   13.3430   44.4850 O.3   401  G3D401     -0.1143
      4  O3B        7.2970   13.3450   45.2240 O.3   401  G3D401     -0.1143
      5  PA         4.6000   14.6680   47.4710 P.3   401  G3D401      0.2231
      6  O3A        5.8060   14.9400   46.4770 O.3   401  G3D401     -0.2261
      7  O1A        3.4170   15.3790   47.0580 O.2   401  G3D401     -0.5169
      8  O2A        4.6930   13.1630   47.7580 O.3   401  G3D401     -0.4370
      9  O5'        5.1190   15.5360   48.5240 O.3   401  G3D401     -0.3111
     10  C5'        6.3360   15.3620   49.2550 C.3   401  G3D401      0.1812
     11  C4'        6.1870   15.6390   50.8530 C.3   401  G3D401      0.1772
     12  O4'        6.1480   17.1020   50.9260 O.3   401  G3D401     -0.3327
     13  C3'        4.8840   15.1440   51.4770 C.3   401  G3D401      0.1902
     14  O3'        5.2640   15.0240   52.9100 O.3   401  G3D401     -0.2674
     15  C2'        3.9630   16.3040   51.3200 C.3   401  G3D401      0.2283
     16  O2'        3.0100   16.3290   52.3850 O.3   401  G3D401     -0.2159
     17  C1'        4.9620   17.4510   51.5470 C.3   401  G3D401      0.2292
     18  N9         4.3820   18.6500   50.9260 N.pl3 401  G3D401     -0.2354
     19  C8         3.7890   18.7210   49.5940 C.3   401  G3D401      0.2246
     20  N7         3.5080   20.0710   49.5190 N.2   401  G3D401     -0.2322
     21  C5         3.8570   20.7430   50.5990 C.2   401  G3D401      0.2182
     22  C6         3.7710   22.0530   50.9790 C.1   401  G3D401      0.2372
     23  O6         3.2510   23.0650   50.2990 O.2   401  G3D401     -0.2069
     24  N1         4.2440   22.4150   52.2000 N.2   401  G3D401     -0.2485
     25  C2         4.8280   21.5290   53.0330 C.1   401  G3D401      0.2531
     26  N2         5.2490   22.0020   54.2110 N.pl3 401  G3D401     -0.0226
     27  N3         4.9190   20.2870   52.6560 N.2   401  G3D401     -0.3074
     28  C4         4.3880   19.8660   51.4870 C.2   401  G3D401      0.2300
     29  P1         5.5400   13.5630   53.4710 P.3   401  G3D401      0.5327
     30  O4P        6.5290   12.6450   52.7970 O.2   401  G3D401     -0.2224
     31  O5P        4.0430   13.0550   53.5020 O.3   401  G3D401     -0.1145
     32  O6P        5.8850   13.9290   54.9700 O.3   401  G3D401     -0.1145
@<TRIPOS>BOND
     1     2     1    2
     2     3     1    1
     3     1     4    1
     4     1     6    1
     5     6     5    1
     6     7     5    2
     7     5     8    1
     8     5     9    1
     9     9    10    1
    10    10    11    1
    11    20    19    1
    12    20    21    2
    13    19    18    1
    14    23    22    2
    15    21    22    1
    16    21    28    1
    17    11    12    1
    18    11    13    1
    19    18    28    1
    20    18    17    1
    21    12    17    1
    22    22    24    2
    23    15    13    1
    24    15    17    1
    25    15    16    1
    26    13    14    1
    27    28    27    2
    28    24    25    2
    29    27    25    2
    30    30    29    2
    31    14    29    1
    32    25    26    1
    33    29    31    1
    34    29    32    1
