@<TRIPOS>MOLECULE
1r8s_GDP_A_1.pdb
 28 30 0 0 0
SMALL
GASTEIGER

@<TRIPOS>ATOM
      1  PB        33.6650   34.5890  -10.0150 P.3   401  GDP401      0.5373
      2  O1B       32.6050   33.6500   -9.8690 O.3   401  GDP401     -0.1143
      3  O2B       33.9660   35.0030  -11.4380 O.2   401  GDP401     -0.2221
      4  O3B       34.9520   34.2550   -9.2380 O.3   401  GDP401     -0.1143
      5  O3A       33.1450   35.9830   -9.3450 O.3   401  GDP401     -0.2261
      6  PA        31.9630   36.2740   -8.3380 P.3   401  GDP401      0.2231
      7  O1A       30.6580   36.2170   -8.9730 O.2   401  GDP401     -0.5169
      8  O2A       32.1290   35.3630   -7.1050 O.3   401  GDP401     -0.4370
      9  O5'       32.2280   37.7860   -7.9640 O.3   401  GDP401     -0.3111
     10  C5'       33.4380   38.2360   -7.3800 C.3   401  GDP401      0.1813
     11  C4'       33.2330   39.4910   -6.5430 C.3   401  GDP401      0.1799
     12  O4'       32.8510   40.5400   -7.4490 O.3   401  GDP401     -0.3326
     13  C3'       32.1140   39.3580   -5.5290 C.3   401  GDP401      0.2158
     14  O3'       32.4520   40.0870   -4.3540 O.3   401  GDP401     -0.2175
     15  C2'       30.9170   39.9640   -6.2250 C.3   401  GDP401      0.2310
     16  O2'       29.9160   40.4990   -5.3820 O.3   401  GDP401     -0.2158
     17  C1'       31.6210   41.0430   -7.0370 C.3   401  GDP401      0.2293
     18  N9        30.8930   41.4490   -8.2480 N.pl3 401  GDP401     -0.2354
     19  C8        30.3650   40.6370   -9.1940 C.3   401  GDP401      0.2246
     20  N7        29.7850   41.3530  -10.1780 N.2   401  GDP401     -0.2322
     21  C5        29.9350   42.6510   -9.8190 C.2   401  GDP401      0.2182
     22  C6        29.5310   43.8740  -10.4190 C.1   401  GDP401      0.2372
     23  O6        28.9810   43.9840  -11.5480 O.2   401  GDP401     -0.2069
     24  N1        29.8930   45.0170   -9.7490 N.2   401  GDP401     -0.2485
     25  C2        30.5860   45.0420   -8.5510 C.1   401  GDP401      0.2531
     26  N2        30.8850   46.1900   -7.9550 N.pl3 401  GDP401     -0.0226
     27  N3        30.9680   43.8580   -7.9580 N.2   401  GDP401     -0.3074
     28  C4        30.6210   42.7300   -8.6010 C.2   401  GDP401      0.2300
@<TRIPOS>BOND
     1    23    22    2
     2     3     1    2
     3    22    21    1
     4    22    24    2
     5    20    21    2
     6    20    19    1
     7     1     2    1
     8     1     5    1
     9     1     4    1
    10    21    28    1
    11    24    25    2
    12     5     6    1
    13    19    18    1
    14     7     6    2
    15    28    18    1
    16    28    27    2
    17    25    27    2
    18    25    26    1
    19     6     9    1
    20     6     8    1
    21    18    17    1
    22     9    10    1
    23    12    17    1
    24    12    11    1
    25    10    11    1
    26    17    15    1
    27    11    13    1
    28    15    13    1
    29    15    16    1
    30    13    14    1
