@<TRIPOS>MOLECULE
1r9j_TPP_A_1.pdb
 26 27 0 0 0
SMALL
GASTEIGER

@<TRIPOS>ATOM
      1  N1'       31.0910    1.2890   42.4850 N.2   1671  TPP1671    -0.1861
      2  C2'       30.1930    1.8150   43.3520 C.1   1671  TPP1671     0.0663
      3  CM2       29.0390    2.5230   42.8200 C.3   1671  TPP1671     0.1291
      4  N3'       30.3540    1.6750   44.6630 N.2   1671  TPP1671    -0.3368
      5  C4'       31.4640    0.9880   45.1790 C.2   1671  TPP1671     0.2292
      6  N4'       31.5170    0.9110   46.5100 N.pl3 1671  TPP1671    -0.0925
      7  C5'       32.4530    0.4010   44.2930 C.2   1671  TPP1671     0.0654
      8  C6'       32.2050    0.5990   42.9560 C.2   1671  TPP1671     0.1115
      9  C7'       33.6750   -0.3680   44.7700 C.3   1671  TPP1671     0.1237
     10  N3        34.6170    0.5340   45.5790 N.pl3 1671  TPP1671    -0.2970
     11  C2        34.5880    0.6780   46.9190 C.3   1671  TPP1671     0.1543
     12  S1        35.7700    1.7370   47.5250 S.3   1671  TPP1671    -0.0951
     13  C5        36.3160    1.9950   45.9470 C.2   1671  TPP1671     0.0164
     14  C4        35.5840    1.2630   45.0270 C.2   1671  TPP1671     0.0279
     15  CM4       35.8070    1.2590   43.5550 C.3   1671  TPP1671     0.0473
     16  C6        37.4610    2.9210   45.7000 C.3   1671  TPP1671     0.0661
     17  C7        37.1380    4.3130   46.0290 C.3   1671  TPP1671     0.1544
     18  O7        38.3940    4.9000   46.3840 O.3   1671  TPP1671    -0.3134
     19  PA        38.3400    6.2160   47.1760 P.3   1671  TPP1671     0.2230
     20  O1A       36.9830    6.7630   47.5670 O.3   1671  TPP1671    -0.4370
     21  O2A       39.1430    6.9710   46.2380 O.2   1671  TPP1671    -0.5169
     22  O3A       39.4210    6.1370   48.3720 O.3   1671  TPP1671    -0.2261
     23  PB        40.5010    5.2290   49.1460 P.3   1671  TPP1671     0.5373
     24  O1B       41.3230    6.3630   49.5930 O.3   1671  TPP1671    -0.1143
     25  O2B       39.7750    4.6010   50.2560 O.3   1671  TPP1671    -0.1143
     26  O3B       41.0760    4.2400   48.2050 O.2   1671  TPP1671    -0.2221
@<TRIPOS>BOND
     1     1     8    1
     2     1     2    2
     3     3     2    1
     4     8     7    2
     5     2     4    2
     6    15    14    1
     7     7     9    1
     8     7     5    1
     9     4     5    2
    10     9    10    1
    11    14    10    1
    12    14    13    2
    13     5     6    1
    14    10    11    1
    15    16    13    1
    16    16    17    1
    17    13    12    1
    18    17    18    1
    19    21    19    2
    20    18    19    1
    21    11    12    1
    22    19    20    1
    23    19    22    1
    24    26    23    2
    25    22    23    1
    26    23    24    1
    27    23    25    1
