@<TRIPOS>MOLECULE
1r9n_III_E_1.pdb
 34 35 0 0 0
SMALL
GASTEIGER

@<TRIPOS>ATOM
      1  N         19.6080   -4.1330   18.4240 N.3   1001  TYR1001    -0.1228
      2  CA        18.9630   -3.4660   17.2580 C.3   1001  TYR1001     0.1721
      3  C         20.0120   -2.5520   16.6130 C.2   1001  TYR1001     0.2437
      4  O         20.3540   -1.5220   17.1670 O.2   1001  TYR1001    -0.2733
      5  CB        17.7110   -2.6980   17.7330 C.3   1001  TYR1001     0.0547
      6  CG        16.8290   -2.1660   16.6410 C.ar  1001  TYR1001    -0.0200
      7  CD1       16.3990   -2.9910   15.6060 C.ar  1001  TYR1001    -0.0009
      8  CD2       16.4010   -0.8270   16.6440 C.ar  1001  TYR1001    -0.0009
      9  CE1       15.5870   -2.5060   14.5820 C.ar  1001  TYR1001     0.0417
     10  CE2       15.5740   -0.3270   15.6150 C.ar  1001  TYR1001     0.0417
     11  CZ        15.1820   -1.1800   14.5840 C.ar  1001  TYR1001     0.1957
     12  OH        14.3740   -0.7400   13.5550 O.3   1001  TYR1001    -0.2866
     13  N         20.5670   -2.9540   15.4540 N.am  1002  PRO1002    -0.2718
     14  CA        21.6230   -2.1410   14.8860 C.3   1002  PRO1002     0.1535
     15  C         20.9830   -0.9750   14.1570 C.2   1002  PRO1002     0.2599
     16  O         20.8050   -1.0250   12.9370 O.2   1002  PRO1002    -0.2715
     17  CB        22.3200   -3.0840   13.8890 C.3   1002  PRO1002     0.0310
     18  CG        21.6000   -4.3960   13.9760 C.3   1002  PRO1002     0.0237
     19  CD        20.2720   -4.1110   14.6010 C.3   1002  PRO1002     0.0939
     20  N         20.6380    0.0620   14.9110 N.am  1003  SER1003    -0.1936
     21  CA        19.8110    1.1180   14.3910 C.3   1003  SER1003     0.2055
     22  C         19.9780    2.3430   15.2760 C.2   1003  SER1003     0.2642
     23  O         19.8520    2.2450   16.5020 O.2   1003  SER1003    -0.2714
     24  CB        18.3530    0.6420   14.3710 C.3   1003  SER1003     0.2130
     25  OG        17.5370    1.4760   13.5820 O.3   1003  SER1003    -0.2179
     26  N         20.3030    3.4800   14.6510 N.am  1004  LYS1004    -0.1977
     27  CA        20.4650    4.7690   15.3560 C.3   1004  LYS1004     0.1596
     28  C         19.1550    5.1250   16.0700 C.2   1004  LYS1004     0.2287
     29  O         18.0590    4.9330   15.5070 O.2   1004  LYS1004    -0.2864
     30  CB        20.8340    5.8690   14.3520 C.3   1004  LYS1004     0.0298
     31  CG        20.9440    7.2980   14.9270 C.3   1004  LYS1004     0.0038
     32  CD        20.7240    8.3770   13.8260 C.3   1004  LYS1004     0.0206
     33  CE        21.1940    9.7680   14.2750 C.3   1004  LYS1004     0.1093
     34  NZ        21.0340   10.7970   13.1700 N.3   1004  LYS1004    -0.1314
@<TRIPOS>BOND
     1    16    15    2
     2    34    33    1
     3    12    11    1
     4    25    24    1
     5    32    33    1
     6    32    31    1
     7    17    18    1
     8    17    14    1
     9    18    19    1
    10    15    14    1
    11    15    20   am
    12    30    31    1
    13    30    27    1
    14    24    21    1
    15    21    20    1
    16    21    22    1
    17     9    11   ar
    18     9     7   ar
    19    11    10   ar
    20    19    13    1
    21    26    22   am
    22    26    27    1
    23    14    13    1
    24    22    23    2
    25    27    28    1
    26    13     3   am
    27    29    28    2
    28     7     6   ar
    29    10     8   ar
    30     3     4    2
    31     3     2    1
    32     6     8   ar
    33     6     5    1
    34     2     5    1
    35     2     1    1
