@<TRIPOS>MOLECULE
1r9o_FLP_A_1.pdb
 18 19 0 0 0
SMALL
GASTEIGER

@<TRIPOS>ATOM
      1  C          7.1650   28.8000   -3.4190 C.ar  501  FLP501      0.0000
      2  C1         7.9960   29.9080   -2.9780 C.ar  501  FLP501      0.0001
      3  C2         7.4050   31.1310   -2.4090 C.ar  501  FLP501      0.0022
      4  C3         5.9180   31.1860   -2.3550 C.ar  501  FLP501      0.0001
      5  C4         5.1100   30.0940   -2.7940 C.ar  501  FLP501      0.0000
      6  C5         5.7330   28.9200   -3.3470 C.ar  501  FLP501      0.0000
      7  C6         8.2080   32.2190   -1.9230 C.ar  501  FLP501      0.0275
      8  C7         9.4770   31.9350   -1.1840 C.ar  501  FLP501      0.0019
      9  C8        10.2930   32.9970   -0.6700 C.ar  501  FLP501     -0.0036
     10  C9         9.9840   34.3880   -0.9680 C.ar  501  FLP501     -0.0096
     11  C10        8.7720   34.6890   -1.6770 C.ar  501  FLP501      0.0259
     12  C11        7.9400   33.6530   -2.2260 C.ar  501  FLP501      0.1398
     13  C12       10.8540   35.5880   -0.4360 C.3   501  FLP501      0.1257
     14  C13       10.2100   36.3010    0.8070 C.3   501  FLP501      0.0166
     15  C14       11.1200   36.6260   -1.6110 C.2   501  FLP501      0.3683
     16  O         10.5880   37.7400   -1.5960 O.co2 501  FLP501     -0.2453
     17  O1        11.8690   36.2900   -2.5550 O.co2 501  FLP501     -0.2453
     18  F          6.8130   34.0900   -2.9120 F     501  FLP501     -0.2042
@<TRIPOS>BOND
     1     1     6   ar
     2     1     2   ar
     3     6     5   ar
     4     2     3   ar
     5    18    12    1
     6     5     4   ar
     7    17    15   ar
     8     3     4   ar
     9     3     7    1
    10    12     7   ar
    11    12    11   ar
    12     7     8   ar
    13    11    10   ar
    14    15    16   ar
    15    15    13    1
    16     8     9   ar
    17    10     9   ar
    18    10    13    1
    19    13    14    1
