@<TRIPOS>MOLECULE
1r9o_HEM_A_1.pdb
 43 50 0 0 0
SMALL
GASTEIGER

@<TRIPOS>ATOM
      1  CHA        7.6710   24.9950   -3.8030 C.2   500  HEM500      0.0000
      2  CHB        3.0650   24.0730   -3.0020 C.2   500  HEM500      0.0000
      3  CHC        3.9520   24.6230    1.7030 C.2   500  HEM500      0.0000
      4  CHD        8.5300   25.2220    0.8460 C.2   500  HEM500      0.0000
      5  C1A        6.3620   24.6090   -4.0750 C.ar  500  HEM500      0.0000
      6  C2A        5.7110   24.4700   -5.3730 C.ar  500  HEM500      0.0000
      7  C3A        4.3850   24.1960   -5.1230 C.ar  500  HEM500      0.0000
      8  C4A        4.2540   24.2010   -3.6990 C.ar  500  HEM500      0.0000
      9  CMA        3.2110   23.9370   -6.1490 C.3   500  HEM500      0.0000
     10  CAA        6.3740   24.5820   -6.7320 C.3   500  HEM500      0.0000
     11  CBA        6.9030   23.2950   -7.2600 C.3   500  HEM500      0.0000
     12  CGA        7.5020   23.4140   -8.6500 C.2   500  HEM500      0.0000
     13  O1A        7.0700   22.6680   -9.5370 O.co2 500  HEM500      0.0000
     14  O2A        8.3470   24.2310   -8.8950 O.co2 500  HEM500      0.0000
     15  C1B        2.8510   24.1200   -1.6000 C.2   500  HEM500      0.0000
     16  C2B        1.5810   24.0040   -0.9690 C.2   500  HEM500      0.0000
     17  C3B        1.8270   24.2170    0.3940 C.2   500  HEM500      0.0000
     18  C4B        3.2510   24.4260    0.5020 C.2   500  HEM500      0.0000
     19  CMB        0.2850   23.7320   -1.7510 C.3   500  HEM500      0.0000
     20  CAB        0.9270   24.2120    1.5230 C.3   500  HEM500      0.0000
     21  CBB       -0.4870   23.8740    1.5690 C.3   500  HEM500      0.0000
     22  C1C        5.3320   24.5150    1.9540 C.ar  500  HEM500      0.0000
     23  C2C        5.9190   24.5280    3.2270 C.ar  500  HEM500      0.0000
     24  C3C        7.2880   24.7750    3.0120 C.ar  500  HEM500      0.0000
     25  C4C        7.4100   24.9000    1.5850 C.ar  500  HEM500      0.0000
     26  CMC        5.1970   24.3070    4.5650 C.3   500  HEM500      0.0000
     27  CAC        8.3520   24.9110    3.8850 C.3   500  HEM500      0.0000
     28  CBC        9.3100   23.9790    4.2250 C.3   500  HEM500      0.0000
     29  C1D        8.7040   25.2620   -0.5180 C.2   500  HEM500      0.0000
     30  C2D        9.9330   25.4920   -1.1370 C.2   500  HEM500      0.0000
     31  C3D        9.7310   25.4110   -2.4630 C.2   500  HEM500      0.0000
     32  C4D        8.3510   25.0360   -2.6000 C.2   500  HEM500      0.0000
     33  CMD       11.2550   25.8900   -0.4460 C.3   500  HEM500      0.0000
     34  CAD       10.7300   25.5260   -3.6410 C.3   500  HEM500      0.0000
     35  CBD       11.3550   24.1830   -4.0130 C.3   500  HEM500      0.0000
     36  CGD       12.3050   24.0970   -5.2150 C.2   500  HEM500      0.0000
     37  O1D       12.9950   23.0910   -5.4180 O.co2 500  HEM500      0.0000
     38  O2D       12.3230   25.0570   -6.0050 O.co2 500  HEM500      0.0000
     39  NA         5.4370   24.4380   -3.0830 N.ar  500  HEM500      0.0000
     40  NB         3.8200   24.3700   -0.6920 N.2   500  HEM500      0.0000
     41  NC         6.2140   24.7290    1.0040 N.ar  500  HEM500      0.0000
     42  ND         7.7640   24.9620   -1.4200 N.2   500  HEM500      0.0000
     43 FE          5.8900   24.5680   -1.0580 Fe    500  HEM500      0.0000
@<TRIPOS>BOND
     1    13    12   ar
     2    14    12   ar
     3    12    11    1
     4    11    10    1
     5    10     6    1
     6     9     7    1
     7    38    36   ar
     8    37    36   ar
     9     6     7   ar
    10     6     5   ar
    11    36    35    1
    12     7     8   ar
    13     5     1    2
    14     5    39   ar
    15    35    34    1
    16     1    32    1
    17     8    39   ar
    18     8     2    2
    19    34    31    1
    20    39    43    1
    21     2    15    1
    22    32    31    1
    23    32    42    2
    24    31    30    2
    25    19    16    1
    26    15    16    1
    27    15    40    2
    28    42    43    1
    29    42    29    1
    30    30    29    1
    31    30    33    1
    32    43    40    1
    33    43    41    1
    34    16    17    2
    35    40    18    1
    36    29     4    2
    37    17    18    1
    38    17    20    1
    39    18     3    2
    40     4    25    1
    41    41    25   ar
    42    41    22   ar
    43    20    21    1
    44    25    24   ar
    45     3    22    1
    46    22    23   ar
    47    24    23   ar
    48    24    27    1
    49    23    26    1
    50    27    28    1
