@<TRIPOS>MOLECULE
1r9q_PBE_A_1.pdb
 10 10 0 0 0
SMALL
GASTEIGER

@<TRIPOS>ATOM
      1  N         26.5360   23.0850   73.3090 N.4   1001  PBE1001     0.3955
      2  CD        27.2080   21.9090   73.8730 C.3   1001  PBE1001    -0.0724
      3  CA        25.1990   22.5920   73.2430 C.3   1001  PBE1001     0.0515
      4  CB        25.2310   21.2350   72.6550 C.3   1001  PBE1001    -0.0114
      5  CG        26.5370   20.6980   73.2550 C.3   1001  PBE1001    -0.0238
      6  CE        26.7340   24.2540   74.1840 C.3   1001  PBE1001    -0.0950
      7  CF        27.1530   23.3870   72.0070 C.3   1001  PBE1001    -0.0950
      8  C         24.2470   22.7420   74.1740 C.2   1001  PBE1001     0.3464
      9  O         24.4920   22.3620   75.3070 O.co2 1001  PBE1001    -0.2479
     10  OXT       23.1220   23.1540   73.9430 O.co2 1001  PBE1001    -0.2479
@<TRIPOS>BOND
     1     7     1    1
     2     4     3    1
     3     4     5    1
     4     3     1    1
     5     3     8    1
     6     5     2    1
     7     1     2    1
     8     1     6    1
     9    10     8   ar
    10     8     9   ar
