@<TRIPOS>MOLECULE
1r9s_UTP_R_1.pdb
 29 30 0 0 0
SMALL
GASTEIGER

@<TRIPOS>ATOM
      1  PA         2.0610    0.0480   48.5170 P.3   3000  UTP3000     0.2189
      2  O1A        3.3170    0.6670   48.0220 O.3   3000  UTP3000    -0.4371
      3  O2A        0.8660   -0.0260   47.6330 O.2   3000  UTP3000    -0.5170
      4  O3A        1.6100    0.7380   49.9130 O.3   3000  UTP3000    -0.2700
      5  O5'        2.3490   -1.4010   49.0850 O.3   3000  UTP3000    -0.3112
      6  PB         0.2490    0.6990   50.7180 P.3   3000  UTP3000     0.2277
      7  O1B       -0.8830    1.3660   50.0940 O.2   3000  UTP3000    -0.5168
      8  O2B        0.6070    1.0760   52.0590 O.3   3000  UTP3000    -0.4368
      9  O3B       -0.0440   -0.8650   50.6330 O.3   3000  UTP3000    -0.2258
     10  PG        -1.2700   -1.7180   51.1570 P.3   3000  UTP3000     0.5373
     11  O1G       -1.2690   -3.0340   50.3720 O.2   3000  UTP3000    -0.2221
     12  O2G       -0.9670   -1.8890   52.6240 O.3   3000  UTP3000    -0.1143
     13  O3G       -2.5540   -0.9360   50.9220 O.3   3000  UTP3000    -0.1143
     14  C5'        3.4370   -2.1560   48.5790 C.3   3000  UTP3000     0.1813
     15  C4'        5.0520   -1.7830   48.3340 C.3   3000  UTP3000     0.1799
     16  O4'        6.0830   -1.3740   47.5650 O.3   3000  UTP3000    -0.3320
     17  C1'        7.1700   -1.2030   48.4670 C.3   3000  UTP3000     0.2401
     18  C2'        6.7430   -1.5270   49.8330 C.3   3000  UTP3000     0.2319
     19  O2'        7.0710   -3.0380   49.8850 O.3   3000  UTP3000    -0.2157
     20  C3'        5.1910   -1.4540   49.6720 C.3   3000  UTP3000     0.2158
     21  O3'        4.8930   -2.4160   50.5300 O.3   3000  UTP3000    -0.2175
     22  N1         7.3610    0.3700   48.7320 N.am  3000  UTP3000    -0.1766
     23  C6         6.2430    1.1700   48.6830 C.2   3000  UTP3000     0.0929
     24  C2         8.6070    0.9070   49.0240 C.1   3000  UTP3000     0.2845
     25  O2         9.6290    0.2410   49.0240 O.2   3000  UTP3000    -0.1918
     26  N3         8.6110    2.2550   49.3050 N.2   3000  UTP3000    -0.2452
     27  C4         7.5220    3.1080   49.3020 C.1   3000  UTP3000     0.2182
     28  O4         7.6670    4.2860   49.6520 O.2   3000  UTP3000    -0.2085
     29  C5         6.2790    2.4840   48.9480 C.2   3000  UTP3000     0.1242
@<TRIPOS>BOND
     1    16    15    1
     2    16    17    1
     3     3     1    2
     4     2     1    1
     5    15    14    1
     6    15    20    1
     7    17    22    1
     8    17    18    1
     9     1     5    1
    10     1     4    1
    11    14     5    1
    12    23    22    1
    13    23    29    2
    14    22    24   am
    15    29    27    1
    16    25    24    2
    17    24    26    2
    18    27    26    2
    19    27    28    2
    20    20    18    1
    21    20    21    1
    22    18    19    1
    23     4     6    1
    24     7     6    2
    25    11    10    2
    26     9     6    1
    27     9    10    1
    28     6     8    1
    29    13    10    1
    30    10    12    1
