@<TRIPOS>MOLECULE
1r9t_ATP_B_1.pdb
 31 33 0 0 0
SMALL
GASTEIGER

@<TRIPOS>ATOM
      1  PG        -1.0760   -0.6850   50.9270 P.3   1308  ATP1308     0.5373
      2  O1G       -1.6760   -1.5400   49.8780 O.2   1308  ATP1308    -0.2221
      3  O2G        0.4610   -0.7410   50.8260 O.3   1308  ATP1308    -0.1143
      4  O3G       -1.5540    0.7670   50.7500 O.3   1308  ATP1308    -0.1143
      5  PB        -1.3100   -2.7850   52.7540 P.3   1308  ATP1308     0.2277
      6  O1B       -1.8430   -3.0430   54.1110 O.3   1308  ATP1308    -0.4368
      7  O2B       -1.9550   -3.7210   51.7160 O.2   1308  ATP1308    -0.5168
      8  O3B       -1.5460   -1.2410   52.3630 O.3   1308  ATP1308    -0.2258
      9  PA         1.1140   -3.0010   54.1490 P.3   1308  ATP1308     0.2189
     10  O1A        0.8580   -1.7730   54.9360 O.3   1308  ATP1308    -0.4371
     11  O2A        2.6210   -3.1900   53.8930 O.2   1308  ATP1308    -0.5170
     12  O3A        0.2950   -2.9350   52.7640 O.3   1308  ATP1308    -0.2700
     13  O5'        0.5140   -4.0550   54.8420 O.3   1308  ATP1308    -0.3112
     14  C5'       -0.4060   -4.7940   55.1320 C.3   1308  ATP1308     0.1813
     15  C4'       -1.5920   -5.4380   54.6770 C.3   1308  ATP1308     0.1821
     16  O4'       -1.0050   -6.5930   54.0350 O.3   1308  ATP1308    -0.3135
     17  C3'       -2.1210   -5.7300   56.0350 C.3   1308  ATP1308     0.2184
     18  O3'       -3.2960   -5.0270   56.4070 O.3   1308  ATP1308    -0.2174
     19  C2'       -2.2120   -7.3010   56.0350 C.3   1308  ATP1308     0.2570
     20  O2'       -3.5600   -7.7160   55.8860 O.3   1308  ATP1308    -0.2130
     21  C1'       -1.2900   -7.8070   54.8150 C.3   1308  ATP1308     0.3186
     22  N9         0.0890   -8.3710   55.2200 N.pl3 1308  ATP1308    -0.1439
     23  C8         1.3250   -7.7800   55.3040 C.3   1308  ATP1308     0.3377
     24  N7         2.2180   -8.7080   55.7140 N.2   1308  ATP1308    -0.2095
     25  C5         1.5770   -9.8830   55.8940 C.2   1308  ATP1308     0.2526
     26  C6         2.0170  -11.1390   56.3020 C.2   1308  ATP1308     0.4393
     27  N6         3.3120  -11.3530   56.5190 N.pl3 1308  ATP1308     0.2180
     28  N1         1.1140  -12.1800   56.3990 N.2   1308  ATP1308     0.0021
     29  C2        -0.2190  -11.9690   56.0890 C.3   1308  ATP1308     0.5254
     30  N3        -0.6470  -10.7170   55.6850 N.2   1308  ATP1308    -0.0055
     31  C4         0.2350   -9.6870   55.5880 C.2   1308  ATP1308     0.3518
@<TRIPOS>BOND
     1     2     1    2
     2     4     1    1
     3     3     1    1
     4     1     8    1
     5     7     5    2
     6     8     5    1
     7     5    12    1
     8     5     6    1
     9    12     9    1
    10    11     9    2
    11    16    15    1
    12    16    21    1
    13     9    13    1
    14     9    10    1
    15    15    14    1
    16    15    17    1
    17    21    22    1
    18    21    19    1
    19    13    14    1
    20    22    23    1
    21    22    31    1
    22    23    24    1
    23    31    30    2
    24    31    25    1
    25    30    29    1
    26    24    25    2
    27    20    19    1
    28    25    26    1
    29    19    17    1
    30    17    18    1
    31    29    28    1
    32    26    28    2
    33    26    27    1
