@<TRIPOS>MOLECULE
1ra1_NAP_A_1.pdb
 31 33 0 0 0
SMALL
GASTEIGER

@<TRIPOS>ATOM
      1  PA        18.1540   19.8360    2.6210 P.3   164  NAP164      0.2231
      2  O1A       16.7770   20.3520    2.7000 O.2   164  NAP164     -0.5169
      3  O2A       18.7810   18.6320    3.5390 O.3   164  NAP164     -0.4370
      4  O5B       18.1820   19.1780    1.1210 O.3   164  NAP164     -0.3111
      5  C5B       17.5190   19.8560    0.0870 C.3   164  NAP164      0.1813
      6  C4B       17.6020   18.8890   -1.1580 C.3   164  NAP164      0.1820
      7  O4B       16.4950   17.9410   -0.9380 O.3   164  NAP164     -0.3136
      8  C3B       17.1920   19.5690   -2.5380 C.3   164  NAP164      0.2157
      9  O3B       18.3520   20.0470   -3.0570 O.3   164  NAP164     -0.2175
     10  C2B       16.5890   18.3120   -3.2890 C.3   164  NAP164      0.2314
     11  O2B       17.7040   17.3640   -3.5590 O.3   164  NAP164     -0.2630
     12  C1B       15.7390   17.6490   -2.1890 C.3   164  NAP164      0.3158
     13  N9A       14.4330   18.0770   -2.1030 N.pl3 164  NAP164     -0.1439
     14  C8A       13.8730   18.9760   -1.2300 C.3   164  NAP164      0.3377
     15  N7A       12.6040   19.1470   -1.4280 N.2   164  NAP164     -0.2095
     16  C5A       12.3260   18.3110   -2.5150 C.2   164  NAP164      0.2526
     17  C6A       11.1480   18.0550   -3.2180 C.2   164  NAP164      0.4393
     18  N6A        9.9510   18.6270   -2.9360 N.pl3 164  NAP164      0.2180
     19  N1A       11.2380   17.1850   -4.2440 N.2   164  NAP164      0.0021
     20  C2A       12.4280   16.6370   -4.5450 C.3   164  NAP164      0.5254
     21  N3A       13.5870   16.8070   -3.9490 N.2   164  NAP164     -0.0055
     22  C4A       13.4390   17.6590   -2.9250 C.2   164  NAP164      0.3518
     23  O3        19.0570   21.0690    2.2340 O.3   164  NAP164     -0.2261
     24  PN        19.2360   22.5320    2.9470 P.3   164  NAP164      0.5373
     25  O1N       18.1530   23.2140    2.5350 O.3   164  NAP164     -0.1143
     26  O2N       19.4700   22.3750    4.3590 O.3   164  NAP164     -0.1143
     27  O5D       20.6030   23.0480    2.2970 O.2   164  NAP164     -0.2221
     28  P2B       18.2810   17.3850   -5.1540 P.3   164  NAP164      0.5328
     29  O1X       19.1310   16.0830   -5.1500 O.3   164  NAP164     -0.1145
     30  O2X       17.1240   17.5300   -6.0200 O.2   164  NAP164     -0.2224
     31  O3X       19.1850   18.5140   -5.0980 O.3   164  NAP164     -0.1145
@<TRIPOS>BOND
     1    30    28    2
     2    28    29    1
     3    28    31    1
     4    28    11    1
     5    20    19    1
     6    20    21    1
     7    19    17    2
     8    21    22    2
     9    11    10    1
    10    10     8    1
    11    10    12    1
    12    17    18    1
    13    17    16    1
    14     9     8    1
    15    22    16    1
    16    22    13    1
    17     8     6    1
    18    16    15    2
    19    12    13    1
    20    12     7    1
    21    13    14    1
    22    15    14    1
    23     6     7    1
    24     6     5    1
    25     5     4    1
    26     4     1    1
    27    23     1    1
    28    23    24    1
    29    27    24    2
    30    25    24    1
    31     1     2    2
    32     1     3    1
    33    24    26    1
