@<TRIPOS>MOLECULE
1ra2_FOL_A_1.pdb
 32 34 0 0 0
SMALL
GASTEIGER

@<TRIPOS>ATOM
      1  N1        17.2260   18.1550   15.4800 N.2   161  FOL161     -0.2672
      2  C2        17.8440   18.4030   16.6060 C.1   161  FOL161      0.2609
      3  NA2       17.2550   18.5960   17.7080 N.pl3 161  FOL161     -0.0220
      4  N3        19.2470   18.4600   16.6130 N.2   161  FOL161     -0.2466
      5  C4        20.0260   18.2960   15.5250 C.1   161  FOL161      0.2569
      6  O4        21.2660   18.3910   15.6290 O.2   161  FOL161     -0.2052
      7  C4A       19.3230   18.0090   14.2400 C.2   161  FOL161      0.2988
      8  N5        20.0790   17.5950   13.1420 N.2   161  FOL161     -0.3839
      9  C6        19.3950   17.1190   12.0710 C.2   161  FOL161      0.1356
     10  C7        17.9960   17.0940   12.1290 C.3   161  FOL161      0.1931
     11  N8        17.2450   17.4720   13.1490 N.2   161  FOL161     -0.1992
     12  C8A       17.9700   17.9490   14.2620 C.1   161  FOL161      0.1401
     13  C9        20.1840   16.6850   10.8540 C.3   161  FOL161      0.1683
     14  N10       21.5590   16.3980   11.2010 N.pl3 161  FOL161     -0.2303
     15  C11       22.7490   13.0570   13.4170 C.ar  161  FOL161      0.0551
     16  C12       23.6280   13.9270   12.8580 C.ar  161  FOL161      0.0059
     17  C13       23.2020   15.0010   12.1520 C.ar  161  FOL161      0.0162
     18  C14       21.8130   15.2510   11.9450 C.ar  161  FOL161      0.0658
     19  C15       20.8880   14.4170   12.4580 C.ar  161  FOL161      0.0162
     20  C16       21.3610   13.3090   13.2100 C.ar  161  FOL161      0.0059
     21  C         23.2300   11.9600   14.1360 C.2   161  FOL161      0.2652
     22  O         24.3100   11.4560   13.9810 O.2   161  FOL161     -0.2684
     23  N         22.4540   11.3950   14.9110 N.am  161  FOL161     -0.1918
     24  CA        22.6680   10.0860   15.4880 C.3   161  FOL161      0.1986
     25  CB        23.1030   10.4920   16.8990 C.3   161  FOL161      0.0451
     26  CG        24.2280    9.5900   17.5260 C.3   161  FOL161      0.1164
     27  CD        24.4240   10.3820   18.8020 C.2   161  FOL161      0.3649
     28  OE1       25.5380   11.0730   18.5650 O.co2 161  FOL161     -0.2457
     29  OE2       23.4500   10.4440   19.7300 O.co2 161  FOL161     -0.2457
     30  CT        21.3040    9.3920   15.6960 C.2   161  FOL161      0.3842
     31  O1        20.2630   10.0390   15.8880 O.co2 161  FOL161     -0.2437
     32  O2        21.3250    8.1670   15.9050 O.co2 161  FOL161     -0.2437
@<TRIPOS>BOND
     1    13    14    1
     2    13     9    1
     3    14    18    1
     4    18    17   ar
     5    18    19   ar
     6     9    10    1
     7     9     8    2
     8    10    11    1
     9    17    16   ar
    10    19    20   ar
    11    16    15   ar
    12     8     7    2
    13    11    12    2
    14    20    15   ar
    15    15    21    1
    16    22    21    2
    17    21    23   am
    18     7    12    1
    19     7     5    1
    20    12     1    2
    21    23    24    1
    22     1     2    2
    23    24    30    1
    24    24    25    1
    25     5     6    2
    26     5     4    2
    27    30    31   ar
    28    30    32   ar
    29     2     4    2
    30     2     3    1
    31    25    26    1
    32    26    27    1
    33    28    27   ar
    34    27    29   ar
