@<TRIPOS>MOLECULE
1ra2_NAP_A_1.pdb
 48 52 0 0 0
SMALL
GASTEIGER

@<TRIPOS>ATOM
      1  PA        17.7750   20.0490    2.4010 P.3   164  NAP164      0.2189
      2  O1A       18.4030   19.0100    3.2830 O.3   164  NAP164     -0.4371
      3  O2A       16.4240   20.5450    2.5650 O.2   164  NAP164     -0.5170
      4  O5B       17.9030   19.2830    0.9580 O.3   164  NAP164     -0.3112
      5  C5B       17.4830   19.9690   -0.2370 C.3   164  NAP164      0.1813
      6  C4B       17.4100   18.8680   -1.3190 C.3   164  NAP164      0.1820
      7  O4B       16.2960   17.9470   -1.1410 O.3   164  NAP164     -0.3136
      8  C3B       17.0460   19.4730   -2.6680 C.3   164  NAP164      0.2157
      9  O3B       18.1730   20.0920   -3.2150 O.3   164  NAP164     -0.2175
     10  C2B       16.5040   18.2830   -3.4730 C.3   164  NAP164      0.2314
     11  O2B       17.5270   17.3630   -3.6750 O.3   164  NAP164     -0.2630
     12  C1B       15.6390   17.6460   -2.3620 C.3   164  NAP164      0.3158
     13  N9A       14.2840   18.1000   -2.3210 N.pl3 164  NAP164     -0.1439
     14  C8A       13.7010   18.9900   -1.4760 C.3   164  NAP164      0.3377
     15  N7A       12.4370   19.1290   -1.6990 N.2   164  NAP164     -0.2095
     16  C5A       12.1890   18.2400   -2.7460 C.2   164  NAP164      0.2526
     17  C6A       11.0240   17.9180   -3.4650 C.2   164  NAP164      0.4393
     18  N6A        9.7940   18.4580   -3.2260 N.pl3 164  NAP164      0.2180
     19  N1A       11.1760   17.0310   -4.4590 N.2   164  NAP164      0.0021
     20  C2A       12.3870   16.4990   -4.7050 C.3   164  NAP164      0.5254
     21  N3A       13.5320   16.7330   -4.0940 N.2   164  NAP164     -0.0055
     22  C4A       13.3420   17.6290   -3.1330 C.2   164  NAP164      0.3518
     23  O3        18.7460   21.2590    2.0930 O.3   164  NAP164     -0.2703
     24  PN        18.8850   22.7120    2.6700 P.3   164  NAP164      0.2189
     25  O1N       20.1450   23.2440    2.1070 O.2   164  NAP164     -0.5170
     26  O2N       17.6620   23.5640    2.5800 O.3   164  NAP164     -0.4371
     27  O5D       19.0990   22.3770    4.1980 O.3   164  NAP164     -0.3112
     28  C5D       20.2750   21.4540    4.4010 C.3   164  NAP164      0.1813
     29  C4D       21.1370   22.2350    5.4890 C.3   164  NAP164      0.1799
     30  O4D       20.3760   22.3990    6.7460 O.3   164  NAP164     -0.3327
     31  C3D       22.5720   21.9720    6.1000 C.3   164  NAP164      0.2158
     32  O3D       23.3480   23.0410    6.4950 O.3   164  NAP164     -0.2175
     33  C2D       22.2480   21.0420    7.3210 C.3   164  NAP164      0.2309
     34  O2D       23.2230   20.7550    8.2460 O.3   164  NAP164     -0.2158
     35  C1D       21.1180   21.7730    7.8600 C.3   164  NAP164      0.2263
     36  N1N       20.1240   21.1600    8.8780 N.pl3 164  NAP164     -0.2787
     37  C2N       19.9560   21.5260   10.2190 C.3   164  NAP164      0.1244
     38  C3N       19.1050   21.0570   11.1180 C.2   164  NAP164      0.0544
     39  C7N       19.1360   21.6270   12.4440 C.2   164  NAP164      0.2818
     40  O7N       18.0400   21.2880   12.9930 O.2   164  NAP164     -0.2670
     41  N7N       20.0400   22.4810   13.0320 N.am  164  NAP164     -0.0839
     42  C4N       18.1120   19.9280   10.6200 C.2   164  NAP164      0.0033
     43  C5N       18.3820   19.5960    9.1580 C.2   164  NAP164      0.0157
     44  C6N       19.2860   20.1740    8.4310 C.2   164  NAP164      0.0633
     45  P2B       18.2950   17.3820   -5.2140 P.3   164  NAP164      0.5328
     46  O1X       19.0460   16.0760   -5.1770 O.3   164  NAP164     -0.1145
     47  O2X       19.1430   18.6170   -5.1290 O.3   164  NAP164     -0.1145
     48  O3X       17.1260   17.5370   -6.1750 O.2   164  NAP164     -0.2224
@<TRIPOS>BOND
     1    48    45    2
     2    45    46    1
     3    45    47    1
     4    45    11    1
     5    20    19    1
     6    20    21    1
     7    19    17    2
     8    21    22    2
     9    11    10    1
    10    10     8    1
    11    10    12    1
    12    17    18    1
    13    17    16    1
    14     9     8    1
    15    22    16    1
    16    22    13    1
    17    16    15    2
    18     8     6    1
    19    12    13    1
    20    12     7    1
    21    13    14    1
    22    15    14    1
    23     6     7    1
    24     6     5    1
    25     5     4    1
    26     4     1    1
    27    23     1    1
    28    23    24    1
    29    25    24    2
    30     1     3    2
    31     1     2    1
    32    26    24    1
    33    24    27    1
    34    27    28    1
    35    28    29    1
    36    29    31    1
    37    29    30    1
    38    31    32    1
    39    31    33    1
    40    30    35    1
    41    33    35    1
    42    33    34    1
    43    35    36    1
    44    44    36    1
    45    44    43    2
    46    36    37    1
    47    43    42    1
    48    37    38    1
    49    42    38    2
    50    38    39    1
    51    39    40    2
    52    39    41   am
