@<TRIPOS>MOLECULE
1ra3_MTX_A_1.pdb
 33 35 0 0 0
SMALL
GASTEIGER

@<TRIPOS>ATOM
      1  N1        19.2370   18.2760   16.1850 N.2   161  MTX161     -0.2684
      2  C2        17.9240   18.4110   16.2580 C.1   161  MTX161      0.2519
      3  NA2       17.3180   18.7230   17.3480 N.pl3 161  MTX161     -0.0226
      4  N3        17.0970   18.1880   15.1590 N.2   161  MTX161     -0.3033
      5  C4        17.5980   17.8160   13.9250 C.2   161  MTX161      0.2728
      6  NA4       16.7890   17.6170   12.9430 N.pl3 161  MTX161     -0.0887
      7  C4A       19.0600   17.6720   13.8770 C.2   161  MTX161      0.2518
      8  N5        19.6280   17.1870   12.7180 N.2   161  MTX161     -0.3917
      9  C6        20.9360   16.9730   12.6790 C.2   161  MTX161      0.1330
     10  C7        21.6870   17.2510   13.8520 C.3   161  MTX161      0.1930
     11  N8        21.1520   17.7110   15.0140 N.2   161  MTX161     -0.1998
     12  C8A       19.8120   17.9000   14.9700 C.1   161  MTX161      0.1314
     13  C9        21.4380   16.4640   11.3260 C.3   161  MTX161      0.1481
     14  N10       22.7990   15.9300   11.5240 N.pl3 161  MTX161     -0.2999
     15  CM        23.9530   16.7090   11.0470 C.3   161  MTX161      0.1125
     16  C11       23.5690   12.5120   13.8110 C.ar  161  MTX161      0.0551
     17  C12       24.6150   13.2860   13.2680 C.ar  161  MTX161      0.0058
     18  C13       24.3380   14.4110   12.5050 C.ar  161  MTX161      0.0147
     19  C14       22.9800   14.7870   12.2880 C.ar  161  MTX161      0.0482
     20  C15       21.9200   14.0920   12.7960 C.ar  161  MTX161      0.0147
     21  C16       22.2670   12.9350   13.5740 C.ar  161  MTX161      0.0058
     22  C         23.7490   11.3020   14.6440 C.2   161  MTX161      0.2652
     23  O         24.7750   10.6660   14.7760 O.2   161  MTX161     -0.2684
     24  N         22.7800   10.9630   15.4110 N.am  161  MTX161     -0.1918
     25  CA        22.7220    9.6850   16.1520 C.3   161  MTX161      0.1986
     26  CT        21.3490    9.0950   16.1870 C.2   161  MTX161      0.3842
     27  O1        20.2890    9.7560   15.9660 O.co2 161  MTX161     -0.2437
     28  O2        21.3780    7.8740   16.4560 O.co2 161  MTX161     -0.2437
     29  CB        23.0240   10.0300   17.6030 C.3   161  MTX161      0.0451
     30  CG        24.5680    9.8810   17.7200 C.3   161  MTX161      0.1164
     31  CD        24.9700   10.5610   19.0140 C.2   161  MTX161      0.3649
     32  OE1       24.0020   10.4620   19.8750 O.co2 161  MTX161     -0.2457
     33  OE2       26.0800   11.1750   19.1150 O.co2 161  MTX161     -0.2457
@<TRIPOS>BOND
     1    15    14    1
     2    13    14    1
     3    13     9    1
     4    14    19    1
     5    19    18   ar
     6    19    20   ar
     7    18    17   ar
     8     9     8    2
     9     9    10    1
    10     8     7    2
    11    20    21   ar
    12     6     5    1
    13    17    16   ar
    14    21    16   ar
    15    16    22    1
    16    10    11    1
    17     7     5    1
    18     7    12    1
    19     5     4    2
    20    22    23    2
    21    22    24   am
    22    12    11    2
    23    12     1    2
    24     4     2    2
    25    24    25    1
    26    27    26   ar
    27    25    26    1
    28    25    29    1
    29     1     2    2
    30    26    28   ar
    31     2     3    1
    32    29    30    1
    33    30    31    1
    34    31    33   ar
    35    31    32   ar
