@<TRIPOS>MOLECULE
1ra3_NAP_A_1.pdb
 34 36 0 0 0
SMALL
GASTEIGER

@<TRIPOS>ATOM
      1  PA        18.2000   19.9930    2.5830 P.3   164  NAP164      0.2189
      2  O1A       16.7890   20.3750    2.6190 O.2   164  NAP164     -0.5170
      3  O2A       18.9770   19.0180    3.4090 O.3   164  NAP164     -0.4371
      4  O5B       18.3740   19.3080    1.1440 O.3   164  NAP164     -0.3112
      5  C5B       17.8200   19.8040   -0.0910 C.3   164  NAP164      0.1813
      6  C4B       17.8090   18.7740   -1.2260 C.3   164  NAP164      0.1820
      7  O4B       16.6500   17.9100   -1.0780 O.3   164  NAP164     -0.3136
      8  C3B       17.4230   19.3780   -2.5830 C.3   164  NAP164      0.2157
      9  O3B       18.5020   20.1220   -3.0930 O.3   164  NAP164     -0.2175
     10  C2B       16.8820   18.1990   -3.4110 C.3   164  NAP164      0.2314
     11  O2B       17.9590   17.2960   -3.6430 O.3   164  NAP164     -0.2630
     12  C1B       16.0550   17.5440   -2.2910 C.3   164  NAP164      0.3158
     13  N9A       14.7080   18.0580   -2.2050 N.pl3 164  NAP164     -0.1439
     14  C8A       14.0920   18.9510   -1.3670 C.3   164  NAP164      0.3377
     15  N7A       12.8260   19.0650   -1.6410 N.2   164  NAP164     -0.2095
     16  C5A       12.6420   18.2160   -2.7310 C.2   164  NAP164      0.2526
     17  C6A       11.5170   17.9180   -3.4950 C.2   164  NAP164      0.4393
     18  N6A       10.3030   18.4360   -3.2920 N.pl3 164  NAP164      0.2180
     19  N1A       11.6740   17.0400   -4.4990 N.2   164  NAP164      0.0021
     20  C2A       12.8800   16.5170   -4.6880 C.3   164  NAP164      0.5254
     21  N3A       13.9990   16.7060   -4.0180 N.2   164  NAP164     -0.0055
     22  C4A       13.7760   17.6170   -3.0570 C.2   164  NAP164      0.3518
     23  O3        19.2140   21.1950    2.4200 O.3   164  NAP164     -0.2703
     24  PN        19.1030   22.7280    2.9280 P.3   164  NAP164      0.2188
     25  O1N       17.9400   23.4090    2.3330 O.2   164  NAP164     -0.5170
     26  O2N       19.1030   22.6040    4.4040 O.3   164  NAP164     -0.4371
     27  O5D       20.4580   23.3190    2.4050 O.3   164  NAP164     -0.3139
     28  C5D       21.7600   23.3100    3.1430 C.3   164  NAP164      0.1491
     29  C4D       22.9500   23.6400    2.1470 C.3   164  NAP164      0.0325
     30  C3D       22.5790   24.8690    1.2450 C.3   164  NAP164      0.0027
     31  P2B       18.8330   17.3280   -5.0310 P.3   164  NAP164      0.5328
     32  O1X       19.6460   15.9960   -4.9510 O.3   164  NAP164     -0.1145
     33  O2X       17.6640   17.4750   -5.9730 O.2   164  NAP164     -0.2224
     34  O3X       19.7620   18.5220   -5.0170 O.3   164  NAP164     -0.1145
@<TRIPOS>BOND
     1    33    31    2
     2    31    34    1
     3    31    32    1
     4    31    11    1
     5    20    19    1
     6    20    21    1
     7    19    17    2
     8    21    22    2
     9    11    10    1
    10    17    18    1
    11    17    16    1
    12    10     8    1
    13    10    12    1
    14     9     8    1
    15    22    16    1
    16    22    13    1
    17    16    15    2
    18     8     6    1
    19    12    13    1
    20    12     7    1
    21    13    14    1
    22    15    14    1
    23     6     7    1
    24     6     5    1
    25     5     4    1
    26     4     1    1
    27    30    29    1
    28    29    28    1
    29    25    24    2
    30    27    24    1
    31    27    28    1
    32    23     1    1
    33    23    24    1
    34     1     2    2
    35     1     3    1
    36    24    26    1
