@<TRIPOS>MOLECULE
1ra7_GTP_A_1.pdb
 32 34 0 0 0
SMALL
GASTEIGER

@<TRIPOS>ATOM
      1  PG       216.6630   71.0780    3.1520 P.3   1001  GTP1001     0.5373
      2  O1G      215.1600   71.2010    3.1000 O.3   1001  GTP1001    -0.1143
      3  O2G      217.2910   72.0980    4.0750 O.3   1001  GTP1001    -0.1143
      4  O3G      217.2210   71.2450    1.7400 O.2   1001  GTP1001    -0.2221
      5  O3B      217.0340   69.6330    3.7280 O.3   1001  GTP1001    -0.2258
      6  PB       218.2740   68.7230    3.3420 P.3   1001  GTP1001     0.2277
      7  O1B      218.2340   68.3970    1.8970 O.2   1001  GTP1001    -0.5168
      8  O2B      218.3160   67.5030    4.2320 O.3   1001  GTP1001    -0.4368
      9  O3A      219.5590   69.6600    3.5860 O.3   1001  GTP1001    -0.2700
     10  PA       221.1520   69.4970    3.3110 P.3   1001  GTP1001     0.2189
     11  O1A      221.8970   69.8450    4.5620 O.3   1001  GTP1001    -0.4371
     12  O2A      221.4750   70.3190    2.1280 O.2   1001  GTP1001    -0.5170
     13  O5'      221.1840   67.9310    2.9900 O.3   1001  GTP1001    -0.3112
     14  C5'      221.6780   66.9220    3.8930 C.3   1001  GTP1001     0.1813
     15  C4'      221.5080   65.5740    3.2360 C.3   1001  GTP1001     0.1799
     16  O4'      222.4630   65.3390    2.1690 O.3   1001  GTP1001    -0.3326
     17  C3'      221.6180   64.3590    4.1720 C.3   1001  GTP1001     0.2158
     18  O3'      220.3840   64.1180    4.8530 O.3   1001  GTP1001    -0.2175
     19  C2'      222.0500   63.2550    3.2380 C.3   1001  GTP1001     0.2310
     20  O2'      220.9030   62.5720    2.7210 O.3   1001  GTP1001    -0.2158
     21  C1'      222.7810   63.9380    2.1110 C.3   1001  GTP1001     0.2293
     22  N9       224.2560   63.8220    2.0910 N.pl3 1001  GTP1001    -0.2354
     23  C8       224.9840   63.4480    0.9820 C.3   1001  GTP1001     0.2246
     24  N7       226.2690   63.4030    1.1810 N.2   1001  GTP1001    -0.2322
     25  C5       226.4240   63.7630    2.5120 C.2   1001  GTP1001     0.2182
     26  C6       227.6100   63.8950    3.3120 C.1   1001  GTP1001     0.2372
     27  O6       228.7930   63.7060    2.9960 O.2   1001  GTP1001    -0.2069
     28  N1       227.3190   64.2910    4.6450 N.2   1001  GTP1001    -0.2485
     29  C2       226.0290   64.5350    5.1320 C.1   1001  GTP1001     0.2531
     30  N2       225.9530   64.9050    6.4230 N.pl3 1001  GTP1001    -0.0226
     31  N3       224.9210   64.4160    4.3870 N.2   1001  GTP1001    -0.3074
     32  C4       225.1850   64.0290    3.0930 C.2   1001  GTP1001     0.2300
@<TRIPOS>BOND
     1    23    24    1
     2    23    22    1
     3    24    25    2
     4     4     1    2
     5     7     6    2
     6    22    21    1
     7    22    32    1
     8    21    16    1
     9    21    19    1
    10    12    10    2
    11    16    15    1
    12    25    32    1
    13    25    26    1
    14    20    19    1
    15    13    10    1
    16    13    14    1
    17    27    26    2
    18    32    31    2
    19     2     1    1
    20     1     5    1
    21     1     3    1
    22    15    14    1
    23    15    17    1
    24    19    17    1
    25    10     9    1
    26    10    11    1
    27    26    28    2
    28     6     9    1
    29     6     5    1
    30     6     8    1
    31    17    18    1
    32    31    29    2
    33    28    29    2
    34    29    30    1
