@<TRIPOS>MOLECULE
1ra8_FOL_A_1.pdb
 32 34 0 0 0
SMALL
GASTEIGER

@<TRIPOS>ATOM
      1  N1        17.1700   18.2390   15.4880 N.2   161  FOL161     -0.2672
      2  C2        17.8040   18.3400   16.6400 C.1   161  FOL161      0.2609
      3  NA2       17.2640   18.4660   17.7550 N.pl3 161  FOL161     -0.0220
      4  N3        19.2010   18.3170   16.6590 N.2   161  FOL161     -0.2466
      5  C4        19.9850   18.1790   15.5540 C.1   161  FOL161      0.2569
      6  O4        21.2210   18.1430   15.6810 O.2   161  FOL161     -0.2052
      7  C4A       19.2870   18.0340   14.2730 C.2   161  FOL161      0.2988
      8  N5        19.9990   17.5810   13.1320 N.2   161  FOL161     -0.3839
      9  C6        19.2660   17.1790   12.0470 C.2   161  FOL161      0.1356
     10  C7        17.8750   17.2490   12.1810 C.3   161  FOL161      0.1931
     11  N8        17.2120   17.6500   13.2560 N.2   161  FOL161     -0.1992
     12  C8A       17.9430   18.0600   14.3100 C.1   161  FOL161      0.1401
     13  C9        19.9750   16.7280   10.7640 C.3   161  FOL161      0.1683
     14  N10       21.4200   16.4930   11.0500 N.pl3 161  FOL161     -0.2303
     15  C11       22.8190   13.1680   13.3940 C.ar  161  FOL161      0.0551
     16  C12       23.6740   14.0560   12.7340 C.ar  161  FOL161      0.0059
     17  C13       23.2000   15.1210   11.9890 C.ar  161  FOL161      0.0162
     18  C14       21.7800   15.3530   11.8600 C.ar  161  FOL161      0.0658
     19  C15       20.8870   14.5000   12.4890 C.ar  161  FOL161      0.0162
     20  C16       21.4310   13.4240   13.2510 C.ar  161  FOL161      0.0059
     21  C         23.3310   12.0560   14.1760 C.2   161  FOL161      0.2652
     22  O         24.4650   11.6450   14.1580 O.2   161  FOL161     -0.2684
     23  N         22.5300   11.3700   14.8490 N.am  161  FOL161     -0.1918
     24  CA        22.8480   10.1420   15.5750 C.3   161  FOL161      0.1986
     25  CB        23.3240   10.7300   16.9120 C.3   161  FOL161      0.0451
     26  CG        24.2990    9.8060   17.7640 C.3   161  FOL161      0.1164
     27  CD        24.3300   10.5180   19.1230 C.2   161  FOL161      0.3649
     28  OE1       25.3050   11.3480   19.0030 O.co2 161  FOL161     -0.2457
     29  OE2       23.4210   10.3790   20.0630 O.co2 161  FOL161     -0.2457
     30  CT        21.4920    9.4520   15.7150 C.2   161  FOL161      0.3842
     31  O1        20.4120   10.0700   15.6910 O.co2 161  FOL161     -0.2437
     32  O2        21.4860    8.2380   15.6570 O.co2 161  FOL161     -0.2437
@<TRIPOS>BOND
     1    13    14    1
     2    13     9    1
     3    14    18    1
     4    18    17   ar
     5    18    19   ar
     6    17    16   ar
     7     9    10    1
     8     9     8    2
     9    10    11    1
    10    19    20   ar
    11    16    15   ar
    12     8     7    2
    13    20    15   ar
    14    11    12    2
    15    15    21    1
    16    22    21    2
    17    21    23   am
    18     7    12    1
    19     7     5    1
    20    12     1    2
    21    23    24    1
    22     1     2    2
    23     5     6    2
    24     5     4    2
    25    24    30    1
    26    24    25    1
    27    32    30   ar
    28    31    30   ar
    29     2     4    2
    30     2     3    1
    31    25    26    1
    32    26    27    1
    33    28    27   ar
    34    27    29   ar
