@<TRIPOS>MOLECULE
1ra8_ATR_A_1.pdb
 31 33 0 0 0
SMALL
GASTEIGER

@<TRIPOS>ATOM
      1  PB        18.8430   22.6340    2.5930 P.3   164  ATR164      0.5373
      2  O1B       17.7070   23.5220    2.2300 O.3   164  ATR164     -0.1143
      3  O2B       20.1550   23.1230    2.1040 O.2   164  ATR164     -0.2221
      4  O3B       19.0120   22.4800    4.1620 O.3   164  ATR164     -0.1143
      5  PA        17.6910   19.9390    2.3470 P.3   164  ATR164      0.2231
      6  O1A       16.3340   20.4970    2.5070 O.2   164  ATR164     -0.5169
      7  O2A       18.3630   18.8950    3.1930 O.3   164  ATR164     -0.4370
      8  O3A       18.7110   21.1160    2.1290 O.3   164  ATR164     -0.2261
      9  O5'       17.9420   19.2760    0.8860 O.3   164  ATR164     -0.3111
     10  C5'       17.4490   19.8620   -0.3230 C.3   164  ATR164      0.1813
     11  C4'       17.4410   18.7470   -1.3270 C.3   164  ATR164      0.1820
     12  O4'       16.3140   17.8680   -1.1440 O.3   164  ATR164     -0.3136
     13  C3'       16.9930   19.3970   -2.6140 C.3   164  ATR164      0.2157
     14  O3'       18.1440   19.9660   -3.1710 O.3   164  ATR164     -0.2175
     15  C2'       16.4940   18.2800   -3.5070 C.3   164  ATR164      0.2314
     16  O2'       17.5080   17.3120   -3.7900 O.3   164  ATR164     -0.2630
     17  P2'       18.2350   17.2780   -5.2840 P.3   164  ATR164      0.5328
     18  O1P       18.9420   15.8850   -5.2200 O.3   164  ATR164     -0.1145
     19  O2P       17.0920   17.6510   -6.2260 O.2   164  ATR164     -0.2224
     20  O3P       19.0990   18.5260   -5.1230 O.3   164  ATR164     -0.1145
     21  C1'       15.6940   17.6260   -2.3880 C.3   164  ATR164      0.3158
     22  N9        14.3080   18.0580   -2.3670 N.pl3 164  ATR164     -0.1439
     23  C8        13.7340   18.9590   -1.5530 C.3   164  ATR164      0.3377
     24  N7        12.4470   19.0900   -1.7640 N.2   164  ATR164     -0.2095
     25  C5        12.1990   18.1980   -2.8060 C.2   164  ATR164      0.2526
     26  C6        11.0440   17.8570   -3.5260 C.2   164  ATR164      0.4393
     27  N6         9.8110   18.3840   -3.3030 N.pl3 164  ATR164      0.2180
     28  N1        11.1910   16.9640   -4.5280 N.2   164  ATR164      0.0021
     29  C2        12.3970   16.4280   -4.7800 C.3   164  ATR164      0.5254
     30  N3        13.5290   16.6880   -4.1680 N.2   164  ATR164     -0.0055
     31  C4        13.3620   17.5970   -3.1970 C.2   164  ATR164      0.3518
@<TRIPOS>BOND
     1    19    17    2
     2    17    18    1
     3    17    20    1
     4    17    16    1
     5    29    28    1
     6    29    30    1
     7    28    26    2
     8    30    31    2
     9    16    15    1
    10    26    27    1
    11    26    25    1
    12    15    13    1
    13    15    21    1
    14    31    25    1
    15    31    22    1
    16    14    13    1
    17    25    24    2
    18    13    11    1
    19    21    22    1
    20    21    12    1
    21    22    23    1
    22    24    23    1
    23    11    12    1
    24    11    10    1
    25    10     9    1
    26     9     5    1
    27     3     1    2
    28     8     5    1
    29     8     1    1
    30     2     1    1
    31     5     6    2
    32     5     7    1
    33     1     4    1
