@<TRIPOS>MOLECULE
1ra9_NAP_A_1.pdb
 31 33 0 0 0
SMALL
GASTEIGER

@<TRIPOS>ATOM
      1  PA        18.1270   19.8430    2.5690 P.3   164  NAP164      0.2231
      2  O1A       16.7750   20.4110    2.7580 O.2   164  NAP164     -0.5169
      3  O2A       18.8020   18.8700    3.3690 O.3   164  NAP164     -0.4370
      4  O5B       18.1950   19.2360    1.0630 O.3   164  NAP164     -0.3111
      5  C5B       17.6220   19.9590    0.0250 C.3   164  NAP164      0.1813
      6  C4B       17.6050   18.9010   -1.2020 C.3   164  NAP164      0.1820
      7  O4B       16.5360   17.8570   -0.9890 O.3   164  NAP164     -0.3136
      8  C3B       17.2020   19.5700   -2.5850 C.3   164  NAP164      0.2157
      9  O3B       18.4650   20.0270   -3.0940 O.3   164  NAP164     -0.2175
     10  C2B       16.5880   18.3480   -3.3120 C.3   164  NAP164      0.2314
     11  O2B       17.7350   17.3980   -3.5410 O.3   164  NAP164     -0.2630
     12  C1B       15.7950   17.6150   -2.1990 C.3   164  NAP164      0.3158
     13  N9A       14.4530   18.0720   -2.1210 N.pl3 164  NAP164     -0.1439
     14  C8A       13.9070   18.9850   -1.2400 C.3   164  NAP164      0.3377
     15  N7A       12.6610   19.1540   -1.4760 N.2   164  NAP164     -0.2095
     16  C5A       12.3740   18.3180   -2.5590 C.2   164  NAP164      0.2526
     17  C6A       11.1970   18.0570   -3.2770 C.2   164  NAP164      0.4393
     18  N6A        9.9960   18.6240   -3.0290 N.pl3 164  NAP164      0.2180
     19  N1A       11.2920   17.1690   -4.2940 N.2   164  NAP164      0.0021
     20  C2A       12.4760   16.6010   -4.5530 C.3   164  NAP164      0.5254
     21  N3A       13.6300   16.7730   -3.9540 N.2   164  NAP164     -0.0055
     22  C4A       13.4870   17.6660   -2.9510 C.2   164  NAP164      0.3518
     23  O3        19.0850   21.0510    2.3110 O.3   164  NAP164     -0.2261
     24  PN        19.1970   22.5760    2.9080 P.3   164  NAP164      0.5373
     25  O1N       18.0750   23.3550    2.5270 O.3   164  NAP164     -0.1143
     26  O2N       19.3630   22.4530    4.4120 O.3   164  NAP164     -0.1143
     27  O5D       20.6230   23.0260    2.3680 O.2   164  NAP164     -0.2221
     28  P2B       18.4500   17.3690   -5.1810 P.3   164  NAP164      0.5328
     29  O1X       19.2390   16.0700   -5.1440 O.3   164  NAP164     -0.1145
     30  O2X       17.2280   17.4730   -6.0290 O.2   164  NAP164     -0.2224
     31  O3X       19.2430   18.6280   -5.1330 O.3   164  NAP164     -0.1145
@<TRIPOS>BOND
     1    30    28    2
     2    28    29    1
     3    28    31    1
     4    28    11    1
     5    20    19    1
     6    20    21    1
     7    19    17    2
     8    21    22    2
     9    11    10    1
    10    10     8    1
    11    10    12    1
    12    17    18    1
    13    17    16    1
    14     9     8    1
    15    22    16    1
    16    22    13    1
    17     8     6    1
    18    16    15    2
    19    12    13    1
    20    12     7    1
    21    13    14    1
    22    15    14    1
    23     6     7    1
    24     6     5    1
    25     5     4    1
    26     4     1    1
    27    23     1    1
    28    23    24    1
    29    27    24    2
    30    25    24    1
    31     1     2    2
    32     1     3    1
    33    24    26    1
