@<TRIPOS>MOLECULE
1raa_CTP_B_1.pdb
 29 30 0 0 0
SMALL
GASTEIGER

@<TRIPOS>ATOM
      1  N1        14.6450   84.5880   25.9770 N.am  999  CTP999     -0.1778
      2  C2        15.8090   85.2430   26.1670 C.1   999  CTP999      0.2756
      3  N3        16.1960   86.2980   25.4760 N.2   999  CTP999     -0.3024
      4  C4        15.4060   86.7850   24.5500 C.2   999  CTP999      0.2346
      5  C5        14.1680   86.2210   24.3400 C.2   999  CTP999      0.0687
      6  C6        13.8340   85.1110   25.0800 C.2   999  CTP999      0.0836
      7  O2        16.5360   84.9520   27.1070 O.2   999  CTP999     -0.1925
      8  N4        15.8920   87.7410   23.7690 N.pl3 999  CTP999     -0.0921
      9  C1'       14.4970   83.2180   26.4770 C.3   999  CTP999      0.2400
     10  C2'       13.5980   83.2220   27.6690 C.3   999  CTP999      0.2319
     11  O2'       14.4270   83.5590   28.7650 O.3   999  CTP999     -0.2157
     12  C3'       13.1060   81.7800   27.7200 C.3   999  CTP999      0.2158
     13  C4'       13.3870   81.2470   26.3140 C.3   999  CTP999      0.1799
     14  O4'       13.8690   82.3490   25.5570 O.3   999  CTP999     -0.3320
     15  O3'       13.8840   80.9840   28.6030 O.3   999  CTP999     -0.2175
     16  C5'       12.0910   80.6680   25.7680 C.3   999  CTP999      0.1813
     17  O5'       11.5710   81.4440   24.6990 O.3   999  CTP999     -0.3112
     18  PA        10.0070   81.9460   24.7220 P.3   999  CTP999      0.2189
     19  O1A       10.0520   83.4540   24.3100 O.3   999  CTP999     -0.4371
     20  O2A        9.2690   81.1160   23.6040 O.2   999  CTP999     -0.5170
     21  O3A        9.2930   81.8000   26.2000 O.3   999  CTP999     -0.2700
     22  PB         8.5150   80.3550   26.3450 P.3   999  CTP999      0.2277
     23  O1B        7.0410   80.5110   25.8040 O.2   999  CTP999     -0.5168
     24  O2B        8.5170   79.9800   27.8760 O.3   999  CTP999     -0.4368
     25  O3B        9.2550   79.1830   25.4220 O.3   999  CTP999     -0.2258
     26  PG         9.0510   77.5960   25.8450 P.3   999  CTP999      0.5373
     27  O1G        9.9880   77.3090   27.0830 O.3   999  CTP999     -0.1143
     28  O2G        9.4760   76.6970   24.6030 O.2   999  CTP999     -0.2221
     29  O3G        7.5440   77.3380   26.2410 O.3   999  CTP999     -0.1143
@<TRIPOS>BOND
     1    20    18    2
     2     8     4    1
     3    19    18    1
     4     5     4    1
     5     5     6    2
     6     4     3    2
     7    28    26    2
     8    17    18    1
     9    17    16    1
    10    18    21    1
    11     6     1    1
    12    25    26    1
    13    25    22    1
    14     3     2    2
    15    14    13    1
    16    14     9    1
    17    16    13    1
    18    23    22    2
    19    26    29    1
    20    26    27    1
    21     1     2   am
    22     1     9    1
    23     2     7    2
    24    21    22    1
    25    13    12    1
    26    22    24    1
    27     9    10    1
    28    10    12    1
    29    10    11    1
    30    12    15    1
