@<TRIPOS>MOLECULE
1rab_CTP_B_1.pdb
 29 30 0 0 0
SMALL
GASTEIGER

@<TRIPOS>ATOM
      1  N1        14.6810   84.6530   25.9730 N.am  999  CTP999     -0.1778
      2  C2        15.8980   85.2290   26.0620 C.1   999  CTP999      0.2756
      3  N3        16.2680   86.2710   25.3460 N.2   999  CTP999     -0.3024
      4  C4        15.4260   86.8190   24.5020 C.2   999  CTP999      0.2346
      5  C5        14.1410   86.3310   24.4130 C.2   999  CTP999      0.0687
      6  C6        13.8180   85.2340   25.1690 C.2   999  CTP999      0.0836
      7  O2        16.7070   84.8790   26.9170 O.2   999  CTP999     -0.1925
      8  N4        15.8910   87.7420   23.6650 N.pl3 999  CTP999     -0.0921
      9  C1'       14.4780   83.2970   26.4690 C.3   999  CTP999      0.2400
     10  C2'       13.5790   83.3810   27.6490 C.3   999  CTP999      0.2319
     11  O2'       14.4620   83.6660   28.7200 O.3   999  CTP999     -0.2157
     12  C3'       12.9440   81.9980   27.6860 C.3   999  CTP999      0.2158
     13  C4'       13.3220   81.3740   26.3480 C.3   999  CTP999      0.1799
     14  O4'       13.8160   82.4400   25.5570 O.3   999  CTP999     -0.3320
     15  O3'       13.5200   81.1830   28.6940 O.3   999  CTP999     -0.2175
     16  C5'       12.0640   80.7080   25.7860 C.3   999  CTP999      0.1813
     17  O5'       11.4730   81.4030   24.6930 O.3   999  CTP999     -0.3112
     18  PA         9.9290   81.9730   24.7790 P.3   999  CTP999      0.2189
     19  O1A       10.0260   83.5060   24.4620 O.3   999  CTP999     -0.4371
     20  O2A        9.0530   81.2540   23.6810 O.2   999  CTP999     -0.5170
     21  O3A        9.2830   81.8180   26.2790 O.3   999  CTP999     -0.2700
     22  PB         8.4900   80.3840   26.3840 P.3   999  CTP999      0.2277
     23  O1B        7.0190   80.5470   25.8420 O.2   999  CTP999     -0.5168
     24  O2B        8.5100   79.9840   27.9010 O.3   999  CTP999     -0.4368
     25  O3B        9.2160   79.2120   25.4670 O.3   999  CTP999     -0.2258
     26  PG         8.8860   77.6780   25.9740 P.3   999  CTP999      0.5373
     27  O1G        9.6340   77.4910   27.3520 O.3   999  CTP999     -0.1143
     28  O2G        9.4450   76.6840   24.8640 O.2   999  CTP999     -0.2221
     29  O3G        7.3240   77.5040   26.1480 O.3   999  CTP999     -0.1143
@<TRIPOS>BOND
     1     8     4    1
     2    20    18    2
     3     5     4    1
     4     5     6    2
     5    19    18    1
     6     4     3    2
     7    17    18    1
     8    17    16    1
     9    18    21    1
    10    28    26    2
    11     6     1    1
    12     3     2    2
    13    25    26    1
    14    25    22    1
    15    14    13    1
    16    14     9    1
    17    16    13    1
    18    23    22    2
    19     1     2   am
    20     1     9    1
    21    26    29    1
    22    26    27    1
    23     2     7    2
    24    21    22    1
    25    13    12    1
    26    22    24    1
    27     9    10    1
    28    10    12    1
    29    10    11    1
    30    12    15    1
