@<TRIPOS>MOLECULE
1rac_CTP_B_1.pdb
 29 30 0 0 0
SMALL
GASTEIGER

@<TRIPOS>ATOM
      1  N1        14.6850   84.6360   25.9050 N.am  999  CTP999     -0.1778
      2  C2        15.8420   85.3120   26.0130 C.1   999  CTP999      0.2756
      3  N3        16.1520   86.3510   25.2760 N.2   999  CTP999     -0.3024
      4  C4        15.3120   86.7980   24.3820 C.2   999  CTP999      0.2346
      5  C5        14.0780   86.2060   24.2480 C.2   999  CTP999      0.0687
      6  C6        13.8210   85.1120   25.0330 C.2   999  CTP999      0.0836
      7  O2        16.6420   85.0670   26.9080 O.2   999  CTP999     -0.1925
      8  N4        15.7450   87.7480   23.5610 N.pl3 999  CTP999     -0.0921
      9  C1'       14.5530   83.3020   26.4910 C.3   999  CTP999      0.2400
     10  C2'       13.7260   83.4220   27.7410 C.3   999  CTP999      0.2319
     11  O2'       14.6460   83.6870   28.7880 O.3   999  CTP999     -0.2157
     12  C3'       13.0710   82.0460   27.8520 C.3   999  CTP999      0.2158
     13  C4'       13.3540   81.3590   26.5190 C.3   999  CTP999      0.1799
     14  O4'       13.8550   82.3820   25.6650 O.3   999  CTP999     -0.3320
     15  O3'       13.6820   81.2480   28.8480 O.3   999  CTP999     -0.2175
     16  C5'       12.0350   80.7420   26.0390 C.3   999  CTP999      0.1813
     17  O5'       11.5080   81.3900   24.8850 O.3   999  CTP999     -0.3112
     18  PA         9.9930   82.0400   24.8580 P.3   999  CTP999      0.2189
     19  O1A       10.1900   83.5400   24.4470 O.3   999  CTP999     -0.4371
     20  O2A        9.2070   81.3060   23.7130 O.2   999  CTP999     -0.5170
     21  O3A        9.1880   81.9000   26.2910 O.3   999  CTP999     -0.2700
     22  PB         8.3410   80.4820   26.3390 P.3   999  CTP999      0.2277
     23  O1B        6.9270   80.6270   25.6470 O.2   999  CTP999     -0.5168
     24  O2B        8.1790   80.0840   27.8520 O.3   999  CTP999     -0.4368
     25  O3B        9.1490   79.2830   25.5210 O.3   999  CTP999     -0.2258
     26  PG         8.8150   77.7290   25.9780 P.3   999  CTP999      0.5373
     27  O1G        9.6270   77.4490   27.3020 O.3   999  CTP999     -0.1143
     28  O2G        9.2990   76.7770   24.7980 O.2   999  CTP999     -0.2221
     29  O3G        7.2610   77.5710   26.2350 O.3   999  CTP999     -0.1143
@<TRIPOS>BOND
     1     8     4    1
     2    20    18    2
     3     5     4    1
     4     5     6    2
     5     4     3    2
     6    19    18    1
     7    28    26    2
     8    18    17    1
     9    18    21    1
    10    17    16    1
    11     6     1    1
    12     3     2    2
    13    25    26    1
    14    25    22    1
    15    23    22    2
    16    14     9    1
    17    14    13    1
    18     1     2   am
    19     1     9    1
    20    26    29    1
    21    26    27    1
    22     2     7    2
    23    16    13    1
    24    21    22    1
    25    22    24    1
    26     9    10    1
    27    13    12    1
    28    10    12    1
    29    10    11    1
    30    12    15    1
