@<TRIPOS>MOLECULE
1rad_CTP_B_1.pdb
 29 30 0 0 0
SMALL
GASTEIGER

@<TRIPOS>ATOM
      1  N1        14.6710   84.7280   25.9690 N.am  999  CTP999     -0.1778
      2  C2        15.8750   85.3230   25.9860 C.1   999  CTP999      0.2756
      3  N3        16.2170   86.3280   25.2050 N.2   999  CTP999     -0.3024
      4  C4        15.3440   86.8330   24.3700 C.2   999  CTP999      0.2346
      5  C5        14.0630   86.3260   24.3490 C.2   999  CTP999      0.0687
      6  C6        13.7730   85.2680   25.1720 C.2   999  CTP999      0.0836
      7  O2        16.7020   85.0180   26.8360 O.2   999  CTP999     -0.1925
      8  N4        15.7880   87.7040   23.4630 N.pl3 999  CTP999     -0.0921
      9  C1'       14.5300   83.3880   26.5370 C.3   999  CTP999      0.2400
     10  C2'       13.6960   83.4710   27.7750 C.3   999  CTP999      0.2319
     11  O2'       14.6200   83.7830   28.8070 O.3   999  CTP999     -0.2157
     12  C3'       13.1130   82.0670   27.8670 C.3   999  CTP999      0.2158
     13  C4'       13.4110   81.4280   26.5050 C.3   999  CTP999      0.1799
     14  O4'       13.8650   82.4850   25.6760 O.3   999  CTP999     -0.3320
     15  O3'       13.7900   81.3060   28.8490 O.3   999  CTP999     -0.2175
     16  C5'       12.1240   80.7750   26.0040 C.3   999  CTP999      0.1813
     17  O5'       11.5850   81.3810   24.8310 O.3   999  CTP999     -0.3112
     18  PA        10.0580   82.0060   24.7950 P.3   999  CTP999      0.2189
     19  O1A       10.2460   83.5190   24.4080 O.3   999  CTP999     -0.4371
     20  O2A        9.2600   81.2410   23.6710 O.2   999  CTP999     -0.5170
     21  O3A        9.2770   81.8820   26.2400 O.3   999  CTP999     -0.2700
     22  PB         8.3810   80.4980   26.3010 P.3   999  CTP999      0.2277
     23  O1B        7.0190   80.6830   25.5130 O.2   999  CTP999     -0.5168
     24  O2B        8.1450   80.1770   27.8230 O.3   999  CTP999     -0.4368
     25  O3B        9.2060   79.2440   25.5840 O.3   999  CTP999     -0.2258
     26  PG         8.8140   77.7040   26.0610 P.3   999  CTP999      0.5373
     27  O1G        9.6080   77.3970   27.3940 O.3   999  CTP999     -0.1143
     28  O2G        9.2450   76.7090   24.8880 O.2   999  CTP999     -0.2221
     29  O3G        7.2580   77.6080   26.3180 O.3   999  CTP999     -0.1143
@<TRIPOS>BOND
     1     8     4    1
     2    20    18    2
     3     5     4    1
     4     5     6    2
     5     4     3    2
     6    19    18    1
     7    18    17    1
     8    18    21    1
     9    17    16    1
    10    28    26    2
    11     6     1    1
    12     3     2    2
    13    23    22    2
    14    25    26    1
    15    25    22    1
    16    14    13    1
    17    14     9    1
    18     1     2   am
    19     1     9    1
    20     2     7    2
    21    16    13    1
    22    26    29    1
    23    26    27    1
    24    21    22    1
    25    22    24    1
    26    13    12    1
    27     9    10    1
    28    10    12    1
    29    10    11    1
    30    12    15    1
