@<TRIPOS>MOLECULE
1rae_CTP_B_1.pdb
 29 30 0 0 0
SMALL
GASTEIGER

@<TRIPOS>ATOM
      1  N1        14.7090   84.6730   25.8620 N.am  999  CTP999     -0.1778
      2  C2        15.8940   85.3110   25.8670 C.1   999  CTP999      0.2756
      3  N3        16.1680   86.3240   25.0840 N.2   999  CTP999     -0.3024
      4  C4        15.2640   86.7900   24.2690 C.2   999  CTP999      0.2346
      5  C5        14.0040   86.2410   24.2460 C.2   999  CTP999      0.0687
      6  C6        13.7790   85.1730   25.0700 C.2   999  CTP999      0.0836
      7  O2        16.7650   85.0460   26.6880 O.2   999  CTP999     -0.1925
      8  N4        15.6670   87.7090   23.4020 N.pl3 999  CTP999     -0.0921
      9  C1'       14.5980   83.3440   26.4590 C.3   999  CTP999      0.2400
     10  C2'       13.8020   83.4390   27.7210 C.3   999  CTP999      0.2319
     11  O2'       14.7600   83.6030   28.7470 O.3   999  CTP999     -0.2157
     12  C3'       13.0840   82.1100   27.7900 C.3   999  CTP999      0.2158
     13  C4'       13.4030   81.4220   26.4790 C.3   999  CTP999      0.1799
     14  O4'       13.9140   82.4310   25.6270 O.3   999  CTP999     -0.3320
     15  O3'       13.6010   81.2660   28.7940 O.3   999  CTP999     -0.2175
     16  C5'       12.1160   80.7840   25.9590 C.3   999  CTP999      0.1813
     17  O5'       11.5720   81.4830   24.8450 O.3   999  CTP999     -0.3112
     18  PA         9.9900   81.9450   24.7890 P.3   999  CTP999      0.2189
     19  O1A       10.0030   83.4560   24.3650 O.3   999  CTP999     -0.4371
     20  O2A        9.3260   81.0610   23.6660 O.2   999  CTP999     -0.5170
     21  O3A        9.2130   81.7900   26.2340 O.3   999  CTP999     -0.2700
     22  PB         8.3480   80.3890   26.3370 P.3   999  CTP999      0.2277
     23  O1B        6.9870   80.5030   25.5430 O.2   999  CTP999     -0.5168
     24  O2B        8.0920   80.1620   27.8710 O.3   999  CTP999     -0.4368
     25  O3B        9.1850   79.1140   25.6710 O.3   999  CTP999     -0.2258
     26  PG         8.8610   77.5780   26.2190 P.3   999  CTP999      0.5373
     27  O1G        9.5860   77.4310   27.6130 O.3   999  CTP999     -0.1143
     28  O2G        9.4860   76.5580   25.1670 O.2   999  CTP999     -0.2221
     29  O3G        7.3050   77.3380   26.3700 O.3   999  CTP999     -0.1143
@<TRIPOS>BOND
     1     8     4    1
     2    20    18    2
     3     5     4    1
     4     5     6    2
     5     4     3    2
     6    19    18    1
     7    18    17    1
     8    18    21    1
     9    17    16    1
    10     6     1    1
    11     3     2    2
    12    28    26    2
    13    23    22    2
    14    14     9    1
    15    14    13    1
    16    25    26    1
    17    25    22    1
    18     1     2   am
    19     1     9    1
    20     2     7    2
    21    16    13    1
    22    26    29    1
    23    26    27    1
    24    21    22    1
    25    22    24    1
    26     9    10    1
    27    13    12    1
    28    10    12    1
    29    10    11    1
    30    12    15    1
