@<TRIPOS>MOLECULE
1raf_CTP_B_1.pdb
 29 30 0 0 0
SMALL
GASTEIGER

@<TRIPOS>ATOM
      1  N1        14.6480   84.6920   25.9810 N.am  999  CTP999     -0.1778
      2  C2        15.8390   85.3230   26.0330 C.1   999  CTP999      0.2756
      3  N3        16.1820   86.3150   25.2480 N.2   999  CTP999     -0.3024
      4  C4        15.3330   86.7800   24.3690 C.2   999  CTP999      0.2346
      5  C5        14.0700   86.2370   24.2920 C.2   999  CTP999      0.0687
      6  C6        13.7740   85.1910   25.1300 C.2   999  CTP999      0.0836
      7  O2        16.6840   85.0330   26.8670 O.2   999  CTP999     -0.1925
      8  N4        15.8040   87.6660   23.4910 N.pl3 999  CTP999     -0.0921
      9  C1'       14.4850   83.3760   26.5960 C.3   999  CTP999      0.2400
     10  C2'       13.5580   83.4720   27.7660 C.3   999  CTP999      0.2319
     11  O2'       14.3940   83.8250   28.8520 O.3   999  CTP999     -0.2157
     12  C3'       12.9860   82.0610   27.8610 C.3   999  CTP999      0.2158
     13  C4'       13.3620   81.4150   26.5250 C.3   999  CTP999      0.1799
     14  O4'       13.8980   82.4430   25.7140 O.3   999  CTP999     -0.3320
     15  O3'       13.6240   81.2870   28.8590 O.3   999  CTP999     -0.2175
     16  C5'       12.1110   80.7890   25.9140 C.3   999  CTP999      0.1813
     17  O5'       11.5750   81.5490   24.8320 O.3   999  CTP999     -0.3112
     18  PA         9.9680   81.9140   24.7640 P.3   999  CTP999      0.2189
     19  O1A        9.8910   83.4210   24.3270 O.3   999  CTP999     -0.4371
     20  O2A        9.3440   80.9670   23.6640 O.2   999  CTP999     -0.5170
     21  O3A        9.2510   81.7610   26.2370 O.3   999  CTP999     -0.2700
     22  PB         8.3650   80.3770   26.3080 P.3   999  CTP999      0.2277
     23  O1B        7.0500   80.5420   25.4440 O.2   999  CTP999     -0.5168
     24  O2B        8.0490   80.1100   27.8320 O.3   999  CTP999     -0.4368
     25  O3B        9.2130   79.1040   25.6620 O.3   999  CTP999     -0.2258
     26  PG         8.7930   77.6150   26.2530 P.3   999  CTP999      0.5373
     27  O1G        9.3010   77.5540   27.7450 O.3   999  CTP999     -0.1143
     28  O2G        9.5110   76.5150   25.3600 O.2   999  CTP999     -0.2221
     29  O3G        7.2220   77.4460   26.1820 O.3   999  CTP999     -0.1143
@<TRIPOS>BOND
     1     8     4    1
     2    20    18    2
     3     5     4    1
     4     5     6    2
     5    19    18    1
     6     4     3    2
     7    18    17    1
     8    18    21    1
     9    17    16    1
    10     6     1    1
    11     3     2    2
    12    28    26    2
    13    23    22    2
    14    25    26    1
    15    25    22    1
    16    14    13    1
    17    14     9    1
    18    16    13    1
    19     1     2   am
    20     1     9    1
    21     2     7    2
    22    29    26    1
    23    21    22    1
    24    26    27    1
    25    22    24    1
    26    13    12    1
    27     9    10    1
    28    10    12    1
    29    10    11    1
    30    12    15    1
