@<TRIPOS>MOLECULE
1rag_CTP_B_1.pdb
 29 30 0 0 0
SMALL
GASTEIGER

@<TRIPOS>ATOM
      1  N1        14.7670   84.7310   25.8180 N.am  999  CTP999     -0.1778
      2  C2        15.9620   85.3690   25.8430 C.1   999  CTP999      0.2756
      3  N3        16.2820   86.3830   25.0530 N.2   999  CTP999     -0.3024
      4  C4        15.4020   86.8530   24.1980 C.2   999  CTP999      0.2346
      5  C5        14.1430   86.2990   24.1670 C.2   999  CTP999      0.0687
      6  C6        13.8750   85.2370   24.9980 C.2   999  CTP999      0.0836
      7  O2        16.8090   85.1000   26.6890 O.2   999  CTP999     -0.1925
      8  N4        15.7800   87.7630   23.3040 N.pl3 999  CTP999     -0.0921
      9  C1'       14.6150   83.3890   26.3580 C.3   999  CTP999      0.2400
     10  C2'       13.8960   83.4770   27.6640 C.3   999  CTP999      0.2319
     11  O2'       14.8990   83.4930   28.6630 O.3   999  CTP999     -0.2157
     12  C3'       13.0730   82.2170   27.7020 C.3   999  CTP999      0.2158
     13  C4'       13.3640   81.5410   26.3840 C.3   999  CTP999      0.1799
     14  O4'       13.8340   82.5540   25.5280 O.3   999  CTP999     -0.3320
     15  O3'       13.5060   81.3410   28.7370 O.3   999  CTP999     -0.2175
     16  C5'       12.0770   80.8760   25.9170 C.3   999  CTP999      0.1813
     17  O5'       11.4980   81.4660   24.7560 O.3   999  CTP999     -0.3112
     18  PA         9.9500   82.0370   24.7850 P.3   999  CTP999      0.2189
     19  O1A       10.0730   83.5550   24.4130 O.3   999  CTP999     -0.4371
     20  O2A        9.1190   81.2710   23.6800 O.2   999  CTP999     -0.5170
     21  O3A        9.2600   81.9070   26.2740 O.3   999  CTP999     -0.2700
     22  PB         8.4130   80.4980   26.4030 P.3   999  CTP999      0.2277
     23  O1B        7.0440   80.6190   25.6250 O.2   999  CTP999     -0.5168
     24  O2B        8.2010   80.2410   27.9420 O.3   999  CTP999     -0.4368
     25  O3B        9.2620   79.2610   25.6940 O.3   999  CTP999     -0.2258
     26  PG         8.9360   77.7440   26.2760 P.3   999  CTP999      0.5373
     27  O1G        9.8070   77.5660   27.5720 O.3   999  CTP999     -0.1143
     28  O2G        9.3480   76.6650   25.1870 O.2   999  CTP999     -0.2221
     29  O3G        7.4050   77.6240   26.6260 O.3   999  CTP999     -0.1143
@<TRIPOS>BOND
     1     8     4    1
     2    20    18    2
     3     5     4    1
     4     5     6    2
     5     4     3    2
     6    19    18    1
     7    17    18    1
     8    17    16    1
     9    18    21    1
    10     6     1    1
    11     3     2    2
    12    28    26    2
    13    14     9    1
    14    14    13    1
    15    23    22    2
    16    25    26    1
    17    25    22    1
    18     1     2   am
    19     1     9    1
    20     2     7    2
    21    16    13    1
    22    21    22    1
    23    26    29    1
    24    26    27    1
    25     9    10    1
    26    13    12    1
    27    22    24    1
    28    10    12    1
    29    10    11    1
    30    12    15    1
