@<TRIPOS>MOLECULE
1rah_CTP_B_1.pdb
 29 30 0 0 0
SMALL
GASTEIGER

@<TRIPOS>ATOM
      1  N1        14.7080   84.7670   25.7760 N.am  999  CTP999     -0.1778
      2  C2        15.9060   85.3880   25.7980 C.1   999  CTP999      0.2756
      3  N3        16.2100   86.4040   25.0110 N.2   999  CTP999     -0.3024
      4  C4        15.3270   86.8710   24.1640 C.2   999  CTP999      0.2346
      5  C5        14.0670   86.3260   24.1290 C.2   999  CTP999      0.0687
      6  C6        13.8100   85.2610   24.9540 C.2   999  CTP999      0.0836
      7  O2        16.7630   85.1090   26.6360 O.2   999  CTP999     -0.1925
      8  N4        15.7140   87.7880   23.2910 N.pl3 999  CTP999     -0.0921
      9  C1'       14.5310   83.4680   26.3960 C.3   999  CTP999      0.2400
     10  C2'       13.6840   83.6530   27.5990 C.3   999  CTP999      0.2319
     11  O2'       14.5720   84.0190   28.6400 O.3   999  CTP999     -0.2157
     12  C3'       13.0690   82.2930   27.7880 C.3   999  CTP999      0.2158
     13  C4'       13.3440   81.5800   26.4770 C.3   999  CTP999      0.1799
     14  O4'       13.8340   82.5510   25.5780 O.3   999  CTP999     -0.3320
     15  O3'       13.7320   81.5480   28.7900 O.3   999  CTP999     -0.2175
     16  C5'       12.0350   80.9310   26.0370 C.3   999  CTP999      0.1813
     17  O5'       11.4820   81.4310   24.8220 O.3   999  CTP999     -0.3112
     18  PA         9.9230   81.9740   24.7740 P.3   999  CTP999      0.2189
     19  O1A       10.0490   83.4880   24.3860 O.3   999  CTP999     -0.4371
     20  O2A        9.1310   81.1650   23.6650 O.2   999  CTP999     -0.5170
     21  O3A        9.1430   81.8720   26.2280 O.3   999  CTP999     -0.2700
     22  PB         8.2750   80.4760   26.3890 P.3   999  CTP999      0.2277
     23  O1B        6.9520   80.5230   25.5210 O.2   999  CTP999     -0.5168
     24  O2B        7.9710   80.3060   27.9220 O.3   999  CTP999     -0.4368
     25  O3B        9.2060   79.2380   25.8030 O.3   999  CTP999     -0.2258
     26  PG         8.8430   77.7460   26.4060 P.3   999  CTP999      0.5373
     27  O1G        9.5000   77.6500   27.8370 O.3   999  CTP999     -0.1143
     28  O2G        9.4650   76.6610   25.4240 O.2   999  CTP999     -0.2221
     29  O3G        7.2770   77.5760   26.4900 O.3   999  CTP999     -0.1143
@<TRIPOS>BOND
     1     8     4    1
     2    20    18    2
     3     5     4    1
     4     5     6    2
     5     4     3    2
     6    19    18    1
     7    18    17    1
     8    18    21    1
     9    17    16    1
    10     6     1    1
    11     3     2    2
    12    28    26    2
    13    23    22    2
    14    14     9    1
    15    14    13    1
    16     1     2   am
    17     1     9    1
    18     2     7    2
    19    25    22    1
    20    25    26    1
    21    16    13    1
    22    21    22    1
    23    22    24    1
    24     9    10    1
    25    26    29    1
    26    26    27    1
    27    13    12    1
    28    10    12    1
    29    10    11    1
    30    12    15    1
