@<TRIPOS>MOLECULE
1rao_HH2_A_1.pdb
 22 23 0 0 0
SMALL
GASTEIGER

@<TRIPOS>ATOM
      1  N1        25.0550    4.3830    9.6620 N.2   181  HH2181     -0.3831
      2  C2        25.2040    5.6670   10.2610 C.2   181  HH2181      0.1441
      3  C3        26.4370    6.2770    9.9950 C.3   181  HH2181      0.1939
      4  N4        27.3630    5.7040    9.1760 N.2   181  HH2181     -0.1992
      5  N5        28.0850    3.7760    7.5860 N.2   181  HH2181     -0.2672
      6  C6        27.7310    2.6100    7.1240 C.1   181  HH2181      0.2609
      7  N6        28.8150    2.1350    6.2660 N.pl3 181  HH2181     -0.0220
      8  N7        26.5770    1.8400    7.3290 N.2   181  HH2181     -0.2466
      9  C8        25.6450    2.4010    8.1350 C.1   181  HH2181      0.2569
     10  O8        24.5990    1.8030    8.3080 O.2   181  HH2181     -0.2052
     11  C9        25.8990    3.7060    8.7800 C.2   181  HH2181      0.2989
     12  C10       27.0520    4.4980    8.4940 C.1   181  HH2181      0.1401
     13  C11       24.0760    6.1050   11.1220 C.3   181  HH2181      0.2051
     14  O4        23.3470    7.3070   10.5370 O.3   181  HH2181     -0.3064
     15  P1        22.1860    8.1270   11.0910 P.3   181  HH2181      0.2234
     16  O1P       21.0590    7.4350   11.8240 O.3   181  HH2181     -0.4370
     17  O2P       21.5630    9.0460   10.0520 O.2   181  HH2181     -0.5169
     18  O3P       22.8070    9.1830   12.1910 O.3   181  HH2181     -0.2261
     19  P2        23.9020    8.7420   13.3370 P.3   181  HH2181      0.5373
     20  O4P       25.1330    8.1190   12.7160 O.2   181  HH2181     -0.2221
     21  O5P       24.3250    9.9240   14.1420 O.3   181  HH2181     -0.1143
     22  O6P       23.2580    7.7070   14.2900 O.3   181  HH2181     -0.1143
@<TRIPOS>BOND
     1     7     6    1
     2     6     8    2
     3     6     5    2
     4     8     9    2
     5     5    12    2
     6     9    10    2
     7     9    11    1
     8    12    11    1
     9    12     4    2
    10    11     1    2
    11     4     3    1
    12     1     2    2
    13     3     2    1
    14    17    15    2
    15     2    13    1
    16    14    15    1
    17    14    13    1
    18    15    16    1
    19    15    18    1
    20    18    19    1
    21    20    19    2
    22    19    21    1
    23    19    22    1
