@<TRIPOS>MOLECULE
1rao_AMP_A_1.pdb
 23 25 0 0 0
SMALL
GASTEIGER

@<TRIPOS>ATOM
      1  P         18.3240    6.6630   16.7040 P.3   171  AMP171      0.5327
      2  O1P       18.4630    5.3950   15.8030 O.2   171  AMP171     -0.2224
      3  O2P       18.4580    6.3890   18.2210 O.3   171  AMP171     -0.1145
      4  O3P       19.4230    7.7000   16.2920 O.3   171  AMP171     -0.1145
      5  O5'       16.7880    7.3210   16.3740 O.3   171  AMP171     -0.2675
      6  C5'       16.7150    7.8860   15.0480 C.3   171  AMP171      0.1860
      7  C4'       15.4550    8.7320   15.2460 C.3   171  AMP171      0.1823
      8  O4'       15.0280    8.8510   13.7960 O.3   171  AMP171     -0.3135
      9  C3'       14.1930    8.1240   15.9130 C.3   171  AMP171      0.2184
     10  O3'       14.0010    9.0540   16.9170 O.3   171  AMP171     -0.2174
     11  C2'       13.0580    8.1600   14.8980 C.3   171  AMP171      0.2570
     12  O2'       11.8980    8.7740   15.4140 O.3   171  AMP171     -0.2130
     13  C1'       13.6300    8.9790   13.7690 C.3   171  AMP171      0.3186
     14  N9        13.2340    8.4720   12.3830 N.pl3 171  AMP171     -0.1439
     15  C8        12.6930    9.2530   11.3780 C.3   171  AMP171      0.3377
     16  N7        12.4300    8.6070   10.2590 N.2   171  AMP171     -0.2095
     17  C5        12.8180    7.3480   10.5510 C.2   171  AMP171      0.2526
     18  C6        12.8090    6.1240    9.7770 C.2   171  AMP171      0.4393
     19  N6        12.3450    6.1670    8.5310 N.pl3 171  AMP171      0.2180
     20  N1        13.2810    4.9470   10.3530 N.2   171  AMP171      0.0021
     21  C2        13.7600    4.8640   11.6170 C.3   171  AMP171      0.5254
     22  N3        13.8100    5.9930   12.4440 N.2   171  AMP171     -0.0055
     23  C4        13.3310    7.1970   11.8690 C.2   171  AMP171      0.3518
@<TRIPOS>BOND
     1    19    18    1
     2    18    20    2
     3    18    17    1
     4    16    17    2
     5    16    15    1
     6    20    21    1
     7    17    23    1
     8    15    14    1
     9    21    22    1
    10    23    14    1
    11    23    22    2
    12    14    13    1
    13    13     8    1
    14    13    11    1
    15     8     7    1
    16    11    12    1
    17    11     9    1
    18     6     7    1
    19     6     5    1
    20     7     9    1
    21     2     1    2
    22     9    10    1
    23     4     1    1
    24     5     1    1
    25     1     3    1
