@<TRIPOS>MOLECULE
1rap_HEM_A_1.pdb
 43 50 0 0 0
SMALL
GASTEIGER

@<TRIPOS>ATOM
      1 FE          2.6470   20.8650   13.1460 Fe    104  HEM104      0.0000
      2  CHA        4.9370   18.6710   14.2210 C.2   104  HEM104      0.0000
      3  CHB        3.8830   20.5450    9.9020 C.2   104  HEM104      0.0000
      4  CHC        0.1530   22.7690   12.0070 C.2   104  HEM104      0.0000
      5  CHD        1.9110   21.7380   16.4000 C.2   104  HEM104      0.0000
      6  NA         4.1340   19.8310   12.2770 N.ar  104  HEM104      0.0000
      7  C1A        4.9290   18.8610   12.8610 C.ar  104  HEM104      0.0000
      8  C2A        5.6930   18.1780   11.8340 C.ar  104  HEM104      0.0000
      9  C3A        5.4090   18.7400   10.6610 C.ar  104  HEM104      0.0000
     10  C4A        4.3990   19.7530   10.8780 C.ar  104  HEM104      0.0000
     11  CMA        5.9260   18.4190    9.2600 C.3   104  HEM104      0.0000
     12  CAA        6.6880   17.0400   12.1280 C.3   104  HEM104      0.0000
     13  CBA        7.9480   17.5430   12.7610 C.3   104  HEM104      0.0000
     14  CGA        9.2200   16.8060   12.6020 C.2   104  HEM104      0.0000
     15  O1A       10.3030   17.4820   12.6370 O.co2 104  HEM104      0.0000
     16  O2A        9.1010   15.5570   12.4690 O.co2 104  HEM104      0.0000
     17  NB         2.1060   21.4820   11.3220 N.2   104  HEM104      0.0000
     18  C1B        2.7970   21.3400   10.1240 C.2   104  HEM104      0.0000
     19  C2B        2.1240   22.1450    9.1070 C.2   104  HEM104      0.0000
     20  C3B        1.0970   22.7560    9.6740 C.2   104  HEM104      0.0000
     21  C4B        1.0690   22.3460   11.0570 C.2   104  HEM104      0.0000
     22  CMB        2.5860   22.1910    7.6350 C.3   104  HEM104      0.0000
     23  CAB       -0.0100   23.6710    9.1000 C.3   104  HEM104      0.0000
     24  CBB       -0.9160   22.9200    8.1040 C.3   104  HEM104      0.0000
     25  NC         1.3090   22.0150   14.0160 N.ar  104  HEM104      0.0000
     26  C1C        0.3250   22.7400   13.3830 C.ar  104  HEM104      0.0000
     27  C2C       -0.4480   23.5010   14.3140 C.ar  104  HEM104      0.0000
     28  C3C        0.0480   23.1700   15.5230 C.ar  104  HEM104      0.0000
     29  C4C        1.1540   22.2590   15.3500 C.ar  104  HEM104      0.0000
     30  CMC       -1.6250   24.4400   13.9660 C.3   104  HEM104      0.0000
     31  CAC       -0.3800   23.7630   16.8950 C.3   104  HEM104      0.0000
     32  CBC       -1.8170   23.6180   17.3160 C.3   104  HEM104      0.0000
     33  ND         3.3650   20.3680   14.9710 N.2   104  HEM104      0.0000
     34  C1D        2.8700   20.7570   16.2070 C.2   104  HEM104      0.0000
     35  C2D        3.5140   19.9820   17.2340 C.2   104  HEM104      0.0000
     36  C3D        4.3670   19.1550   16.6390 C.2   104  HEM104      0.0000
     37  C4D        4.2750   19.3540   15.2220 C.2   104  HEM104      0.0000
     38  CMD        3.2350   20.1560   18.7600 C.3   104  HEM104      0.0000
     39  CAD        5.2670   18.0760   17.2870 C.3   104  HEM104      0.0000
     40  CBD        4.4990   16.7710   17.4890 C.3   104  HEM104      0.0000
     41  CGD        5.0550   15.7510   18.3810 C.2   104  HEM104      0.0000
     42  O1D        6.1500   15.9730   18.9200 O.co2 104  HEM104      0.0000
     43  O2D        4.4490   14.6850   18.5810 O.co2 104  HEM104      0.0000
@<TRIPOS>BOND
     1    22    19    1
     2    24    23    1
     3    23    20    1
     4    19    20    2
     5    19    18    1
     6    11     9    1
     7    20    21    1
     8     3    18    1
     9     3    10    2
    10    18    17    2
    11     9    10   ar
    12     9     8   ar
    13    10     6   ar
    14    21    17    1
    15    21     4    2
    16    17     1    1
    17     8    12    1
    18     8     7   ar
    19     4    26    1
    20    12    13    1
    21     6     7   ar
    22     6     1    1
    23    16    14   ar
    24    14    15   ar
    25    14    13    1
    26     7     2    2
    27     1    25    1
    28     1    33    1
    29    26    25   ar
    30    26    27   ar
    31    30    27    1
    32    25    29   ar
    33     2    37    1
    34    27    28   ar
    35    33    37    2
    36    33    34    1
    37    37    36    1
    38    29    28   ar
    39    29     5    1
    40    28    31    1
    41    34     5    2
    42    34    35    1
    43    36    35    2
    44    36    39    1
    45    31    32    1
    46    35    38    1
    47    39    40    1
    48    40    41    1
    49    41    43   ar
    50    41    42   ar
