@<TRIPOS>MOLECULE
1raq_HEM_A_1.pdb
 43 50 0 0 0
SMALL
GASTEIGER

@<TRIPOS>ATOM
      1 FE          2.6110   20.8670   13.1780 Fe    104  HEM104      0.0000
      2  CHA        4.8500   18.5590   14.2680 C.2   104  HEM104      0.0000
      3  CHB        3.8060   20.6420   10.0290 C.2   104  HEM104      0.0000
      4  CHC       -0.0220   22.7840   12.0640 C.2   104  HEM104      0.0000
      5  CHD        1.8530   21.7200   16.3870 C.2   104  HEM104      0.0000
      6  NA         4.0780   19.8180   12.3050 N.ar  104  HEM104      0.0000
      7  C1A        4.8510   18.8350   12.9180 C.ar  104  HEM104      0.0000
      8  C2A        5.6150   18.1430   11.8880 C.ar  104  HEM104      0.0000
      9  C3A        5.3060   18.7190   10.6950 C.ar  104  HEM104      0.0000
     10  C4A        4.3560   19.7610   10.9310 C.ar  104  HEM104      0.0000
     11  CMA        5.8740   18.3190    9.3090 C.3   104  HEM104      0.0000
     12  CAA        6.5880   16.9950   12.1930 C.3   104  HEM104      0.0000
     13  CBA        7.9830   17.6360   12.4600 C.3   104  HEM104      0.0000
     14  CGA        9.2070   16.8170   12.5400 C.2   104  HEM104      0.0000
     15  O1A       10.3250   17.4480   12.6320 O.co2 104  HEM104      0.0000
     16  O2A        9.1680   15.5690   12.4650 O.co2 104  HEM104      0.0000
     17  NB         1.9730   21.5610   11.3840 N.2   104  HEM104      0.0000
     18  C1B        2.6800   21.4240   10.2060 C.2   104  HEM104      0.0000
     19  C2B        1.9700   22.1810    9.1810 C.2   104  HEM104      0.0000
     20  C3B        0.9090   22.7690    9.7340 C.2   104  HEM104      0.0000
     21  C4B        0.9020   22.3720   11.1350 C.2   104  HEM104      0.0000
     22  CMB        2.4870   22.2710    7.7130 C.3   104  HEM104      0.0000
     23  CAB       -0.1750   23.6590    9.0780 C.3   104  HEM104      0.0000
     24  CBB       -1.0960   22.9510    8.0220 C.3   104  HEM104      0.0000
     25  NC         1.2210   22.0180   14.0330 N.ar  104  HEM104      0.0000
     26  C1C        0.2490   22.7730   13.4170 C.ar  104  HEM104      0.0000
     27  C2C       -0.4850   23.5550   14.4020 C.ar  104  HEM104      0.0000
     28  C3C        0.0200   23.2210   15.6140 C.ar  104  HEM104      0.0000
     29  C4C        1.0910   22.2770   15.4060 C.ar  104  HEM104      0.0000
     30  CMC       -1.6260   24.5310   14.0990 C.3   104  HEM104      0.0000
     31  CAC       -0.3600   23.8290   16.9910 C.3   104  HEM104      0.0000
     32  CBC       -1.8710   23.8210   17.3230 C.3   104  HEM104      0.0000
     33  ND         3.2770   20.2840   14.9940 N.2   104  HEM104      0.0000
     34  C1D        2.8000   20.7380   16.2000 C.2   104  HEM104      0.0000
     35  C2D        3.4680   20.0090   17.2640 C.2   104  HEM104      0.0000
     36  C3D        4.3130   19.1710   16.7040 C.2   104  HEM104      0.0000
     37  C4D        4.1630   19.2600   15.2510 C.2   104  HEM104      0.0000
     38  CMD        3.1910   20.2440   18.7710 C.3   104  HEM104      0.0000
     39  CAD        5.2070   18.1200   17.4220 C.3   104  HEM104      0.0000
     40  CBD        4.3910   16.8320   17.5630 C.3   104  HEM104      0.0000
     41  CGD        5.0490   15.7250   18.3590 C.2   104  HEM104      0.0000
     42  O1D        6.1910   15.8150   18.8300 O.co2 104  HEM104      0.0000
     43  O2D        4.3060   14.7340   18.4820 O.co2 104  HEM104      0.0000
@<TRIPOS>BOND
     1    22    19    1
     2    24    23    1
     3    23    20    1
     4    19    20    2
     5    19    18    1
     6    11     9    1
     7    20    21    1
     8     3    18    1
     9     3    10    2
    10    18    17    2
    11     9    10   ar
    12     9     8   ar
    13    10     6   ar
    14    21    17    1
    15    21     4    2
    16    17     1    1
    17     8    12    1
    18     8     7   ar
    19     4    26    1
    20    12    13    1
    21     6     7   ar
    22     6     1    1
    23    13    14    1
    24    16    14   ar
    25    14    15   ar
    26     7     2    2
    27     1    25    1
    28     1    33    1
    29    26    25   ar
    30    26    27   ar
    31    25    29   ar
    32    30    27    1
    33     2    37    1
    34    27    28   ar
    35    33    37    2
    36    33    34    1
    37    37    36    1
    38    29    28   ar
    39    29     5    1
    40    28    31    1
    41    34     5    2
    42    34    35    1
    43    36    35    2
    44    36    39    1
    45    31    32    1
    46    35    38    1
    47    39    40    1
    48    40    41    1
    49    41    43   ar
    50    41    42   ar
