@<TRIPOS>MOLECULE
1rar_AEN_A_1.pdb
 21 22 0 0 0
SMALL
GASTEIGER

@<TRIPOS>ATOM
      1  C1        14.0000   10.0470   31.6960 C.ar  125  AEN125      0.1123
      2  C2        13.0270   10.7320   30.9650 C.ar  125  AEN125      0.0189
      3  C3        13.2450   11.0290   29.6180 C.ar  125  AEN125      0.0014
      4  C4        14.4560   10.6650   29.0110 C.ar  125  AEN125      0.0014
      5  C5        16.6310    9.6550   29.1010 C.ar  125  AEN125      0.0654
      6  C6        17.6200    8.9600   29.8000 C.ar  125  AEN125      0.0161
      7  C7        17.4200    8.6480   31.1450 C.ar  125  AEN125      0.0014
      8  C8        16.2300    8.9940   31.7930 C.ar  125  AEN125      0.0014
      9  C9        15.2170    9.6730   31.0930 C.ar  125  AEN125      0.0189
     10  C10       15.4390    9.9970   29.7490 C.ar  125  AEN125      0.0161
     11  C1'       18.4970   14.2520   26.6010 C.3   125  AEN125      0.0964
     12  C2'       18.9890   13.0090   27.3000 C.2   125  AEN125      0.2419
     13  O2'       19.3310   13.3890   28.3810 O.2   125  AEN125     -0.2733
     14  N3'       19.0010   11.8080   26.7590 N.am  125  AEN125     -0.2035
     15  C4'       19.2290   10.5450   27.4060 C.3   125  AEN125      0.1384
     16  C5'       18.0300    9.6380   27.0640 C.3   125  AEN125      0.1356
     17  N6'       16.7980   10.0100   27.7520 N.pl3 125  AEN125     -0.2357
     18  S         13.6010    9.6620   33.4000 S.3   125  AEN125      0.0421
     19  O1S       14.5670    9.7750   34.5510 O.3   125  AEN125     -0.0650
     20  O2S       13.3090    8.1670   33.3680 O.3   125  AEN125     -0.0650
     21  O3S       12.3240   10.3620   33.7290 O.3   125  AEN125     -0.0650
@<TRIPOS>BOND
     1    11    12    1
     2    14    12   am
     3    14    15    1
     4    16    15    1
     5    16    17    1
     6    12    13    2
     7    17     5    1
     8     4     3   ar
     9     4    10   ar
    10     5    10   ar
    11     5     6   ar
    12     3     2   ar
    13    10     9   ar
    14     6     7   ar
    15     2     1   ar
    16     9     1   ar
    17     9     8   ar
    18     7     8   ar
    19     1    18    1
    20    20    18    1
    21    18    21    1
    22    18    19    1
