@<TRIPOS>MOLECULE
1ras_AEN_A_1.pdb
 21 22 0 0 0
SMALL
GASTEIGER

@<TRIPOS>ATOM
      1  C1        14.4590    9.5940   31.9190 C.ar  125  AEN125      0.1123
      2  C2        13.4420   10.1630   31.1480 C.ar  125  AEN125      0.0189
      3  C3        13.6310   10.4060   29.7810 C.ar  125  AEN125      0.0014
      4  C4        14.8590   10.0940   29.1910 C.ar  125  AEN125      0.0014
      5  C5        17.1050    9.2430   29.3360 C.ar  125  AEN125      0.0654
      6  C6        18.1250    8.6750   30.0800 C.ar  125  AEN125      0.0161
      7  C7        17.9560    8.3900   31.4350 C.ar  125  AEN125      0.0014
      8  C8        16.7490    8.6920   32.0510 C.ar  125  AEN125      0.0014
      9  C9        15.6970    9.2600   31.3180 C.ar  125  AEN125      0.0189
     10  C10       15.8840    9.5230   29.9600 C.ar  125  AEN125      0.0161
     11  C1'       18.5950   13.9900   26.4880 C.3   125  AEN125      0.0964
     12  C2'       19.0480   12.7540   27.2320 C.2   125  AEN125      0.2419
     13  O2'       19.3730   13.0290   28.3830 O.2   125  AEN125     -0.2733
     14  N3'       19.1790   11.5220   26.7160 N.am  125  AEN125     -0.2035
     15  C4'       19.6390   10.4180   27.5500 C.3   125  AEN125      0.1384
     16  C5'       18.5880    9.3100   27.3620 C.3   125  AEN125      0.1356
     17  N6'       17.2740    9.5350   27.9750 N.pl3 125  AEN125     -0.2357
     18  S         14.0940    9.2750   33.6450 S.3   125  AEN125      0.0421
     19  O1S       15.1670    9.4280   34.6790 O.3   125  AEN125     -0.0650
     20  O2S       13.5910    7.8470   33.7110 O.3   125  AEN125     -0.0650
     21  O3S       12.8910   10.1130   33.9850 O.3   125  AEN125     -0.0650
@<TRIPOS>BOND
     1    11    12    1
     2    14    12   am
     3    14    15    1
     4    12    13    2
     5    16    15    1
     6    16    17    1
     7    17     5    1
     8     4     3   ar
     9     4    10   ar
    10     5    10   ar
    11     5     6   ar
    12     3     2   ar
    13    10     9   ar
    14     6     7   ar
    15     2     1   ar
    16     9     1   ar
    17     9     8   ar
    18     7     8   ar
    19     1    18    1
    20    18    20    1
    21    18    21    1
    22    18    19    1
