@<TRIPOS>MOLECULE
1rb0_HH2_A_1.pdb
 22 23 0 0 0
SMALL
GASTEIGER

@<TRIPOS>ATOM
      1  N1        18.6130    9.8700    8.1890 N.2   181  HH2181     -0.3831
      2  C2        19.7170    9.5400    8.8130 C.2   181  HH2181      0.1441
      3  C3        20.6500    8.3490    8.4780 C.3   181  HH2181      0.1939
      4  N4        20.1430    7.5770    7.3170 N.2   181  HH2181     -0.1992
      5  N5        18.5040    7.1860    5.5550 N.2   181  HH2181     -0.2672
      6  C6        17.3610    7.5440    4.9230 C.1   181  HH2181      0.2609
      7  N6        16.9100    6.8160    3.8520 N.pl3 181  HH2181     -0.0220
      8  N7        16.5950    8.6690    5.3380 N.2   181  HH2181     -0.2466
      9  C8        17.0010    9.4790    6.4500 C.1   181  HH2181      0.2569
     10  O8        16.4060   10.4290    6.8440 O.2   181  HH2181     -0.2052
     11  C9        18.2160    9.0870    7.1110 C.2   181  HH2181      0.2989
     12  C10       18.9570    7.9360    6.6500 C.1   181  HH2181      0.1401
     13  C11       20.1190   10.3770    9.9470 C.3   181  HH2181      0.2051
     14  O4        21.4350    9.7160   10.3560 O.3   181  HH2181     -0.3064
     15  P1        22.2860   10.2730   11.4580 P.3   181  HH2181      0.2234
     16  O1P       23.1840    9.2680   12.1670 O.2   181  HH2181     -0.5169
     17  O2P       21.4400   10.9440   12.5350 O.3   181  HH2181     -0.4370
     18  O3P       23.2840   11.4580   10.9570 O.3   181  HH2181     -0.2261
     19  P2        22.9760   12.8990   10.2730 P.3   181  HH2181      0.5373
     20  O4P       23.2100   12.7970    8.7860 O.2   181  HH2181     -0.2221
     21  O5P       21.5740   13.3250   10.5380 O.3   181  HH2181     -0.1143
     22  O6P       23.9100   13.9540   10.8830 O.3   181  HH2181     -0.1143
@<TRIPOS>BOND
     1     7     6    1
     2     6     8    2
     3     6     5    2
     4     8     9    2
     5     5    12    2
     6     9    10    2
     7     9    11    1
     8    12    11    1
     9    12     4    2
    10    11     1    2
    11     4     3    1
    12     1     2    2
    13     3     2    1
    14    20    19    2
    15     2    13    1
    16    13    14    1
    17    19    21    1
    18    19    22    1
    19    19    18    1
    20    14    15    1
    21    18    15    1
    22    15    16    2
    23    15    17    1
