@<TRIPOS>MOLECULE
1rb2_FOL_A_1.pdb
 32 34 0 0 0
SMALL
GASTEIGER

@<TRIPOS>ATOM
      1  N1         4.8520   57.0960   17.2610 N.2   161  FOL161     -0.2672
      2  C2         4.7830   56.4550   16.0570 C.1   161  FOL161      0.2609
      3  NA2        4.9190   57.0560   14.9280 N.pl3 161  FOL161     -0.0220
      4  N3         4.5570   55.0390   16.0160 N.2   161  FOL161     -0.2466
      5  C4         4.3690   54.2800   17.1920 C.1   161  FOL161      0.2569
      6  O4         4.1700   53.0570   17.2060 O.2   161  FOL161     -0.2052
      7  C4A        4.4490   55.0170   18.4860 C.2   161  FOL161      0.2988
      8  N5         4.5040   54.3190   19.7020 N.2   161  FOL161     -0.3839
      9  C6         4.7800   55.0900   20.8130 C.2   161  FOL161      0.1356
     10  C7         4.9730   56.4220   20.5910 C.3   161  FOL161      0.1931
     11  N8         4.9450   57.0790   19.4840 N.2   161  FOL161     -0.1992
     12  C8A        4.6780   56.3530   18.4230 C.1   161  FOL161      0.1401
     13  C9         4.8710   54.6100   22.2280 C.3   161  FOL161      0.1683
     14  N10        4.8670   53.1330   22.4910 N.pl3 161  FOL161     -0.2303
     15  C11        8.1090   50.9590   21.2290 C.ar  161  FOL161      0.0551
     16  C12        6.9430   50.3380   21.6710 C.ar  161  FOL161      0.0059
     17  C13        5.8520   51.0430   22.1010 C.ar  161  FOL161      0.0162
     18  C14        5.9570   52.4390   22.0770 C.ar  161  FOL161      0.0658
     19  C15        7.0300   53.0830   21.6630 C.ar  161  FOL161      0.0162
     20  C16        8.1320   52.3310   21.2330 C.ar  161  FOL161      0.0059
     21  C          9.2970   50.2620   20.7560 C.2   161  FOL161      0.2652
     22  O          9.4310   49.0240   20.8030 O.2   161  FOL161     -0.2684
     23  N         10.1970   51.0050   20.1330 N.am  161  FOL161     -0.1918
     24  CA        11.5240   50.5160   19.6650 C.3   161  FOL161      0.1986
     25  CB        11.4510   49.9330   18.2610 C.3   161  FOL161      0.0451
     26  CG        12.1110   48.4910   18.3970 C.3   161  FOL161      0.1164
     27  CD        11.6730   47.7050   17.1750 C.2   161  FOL161      0.3649
     28  OE1       11.9580   48.3820   16.1410 O.co2 161  FOL161     -0.2457
     29  OE2       11.0340   46.6290   17.2470 O.co2 161  FOL161     -0.2457
     30  CT        12.5070   51.5910   19.5830 C.2   161  FOL161      0.3842
     31  O1        12.1170   52.7610   19.4850 O.co2 161  FOL161     -0.2437
     32  O2        13.6880   51.1920   19.4960 O.co2 161  FOL161     -0.2437
@<TRIPOS>BOND
     1     3     2    1
     2     4     2    2
     3     4     5    2
     4     2     1    2
     5    28    27   ar
     6    27    29   ar
     7    27    26    1
     8     5     6    2
     9     5     7    1
    10     1    12    2
    11    25    26    1
    12    25    24    1
    13    12     7    1
    14    12    11    2
    15     7     8    2
    16    11    10    1
    17    31    30   ar
    18    32    30   ar
    19    30    24    1
    20    24    23    1
    21     8     9    2
    22    23    21   am
    23    10     9    1
    24    21    22    2
    25    21    15    1
    26     9    13    1
    27    15    20   ar
    28    15    16   ar
    29    20    19   ar
    30    19    18   ar
    31    16    17   ar
    32    18    17   ar
    33    18    14    1
    34    13    14    1
