@<TRIPOS>MOLECULE
1rb2_NAP_A_1.pdb
 48 52 0 0 0
SMALL
GASTEIGER

@<TRIPOS>ATOM
      1  PA        -0.3220   58.2140   29.5910 P.3   164  NAP164      0.2189
      2  O1A       -0.2710   59.6510   29.2240 O.3   164  NAP164     -0.4371
      3  O2A        0.6380   57.2220   29.0540 O.2   164  NAP164     -0.5170
      4  O5B       -0.1630   58.1380   31.1590 O.3   164  NAP164     -0.3112
      5  C5B       -0.5210   59.2590   31.9980 C.3   164  NAP164      0.1813
      6  C4B        0.0100   59.0730   33.4030 C.3   164  NAP164      0.1820
      7  O4B        1.3190   59.6870   33.5180 O.3   164  NAP164     -0.3136
      8  C3B       -0.8310   59.5210   34.6050 C.3   164  NAP164      0.2157
      9  O3B       -1.6440   58.4850   35.1290 O.3   164  NAP164     -0.2175
     10  C2B        0.2050   60.0730   35.5920 C.3   164  NAP164      0.2314
     11  O2B        0.9130   59.0220   36.2310 O.3   164  NAP164     -0.2630
     12  C1B        1.2750   60.5310   34.6270 C.3   164  NAP164      0.3158
     13  N9A        1.1520   61.9320   34.2760 N.pl3 164  NAP164     -0.1439
     14  C8A        0.6330   62.5840   33.1700 C.3   164  NAP164      0.3377
     15  N7A        0.7130   63.9150   33.2690 N.2   164  NAP164     -0.2095
     16  C5A        1.3260   64.1200   34.5380 C.2   164  NAP164      0.2526
     17  C6A        1.7040   65.2710   35.2450 C.2   164  NAP164      0.4393
     18  N6A        1.5590   66.5250   34.7950 N.pl3 164  NAP164      0.2180
     19  N1A        2.2680   65.0830   36.4600 N.2   164  NAP164      0.0021
     20  C2A        2.4430   63.8290   36.9390 C.3   164  NAP164      0.5254
     21  N3A        2.1410   62.6670   36.3720 N.2   164  NAP164     -0.0055
     22  C4A        1.5840   62.8960   35.1600 C.2   164  NAP164      0.3518
     23  O3        -1.7460   57.5540   29.6060 O.3   164  NAP164     -0.2703
     24  PN        -3.0800   57.4620   28.6600 P.3   164  NAP164      0.2189
     25  O1N       -3.5240   58.8450   28.4130 O.2   164  NAP164     -0.5170
     26  O2N       -4.0070   56.4800   29.2770 O.3   164  NAP164     -0.4371
     27  O5D       -2.3280   56.9250   27.3690 O.3   164  NAP164     -0.3112
     28  C5D       -1.5530   55.6480   27.4480 C.3   164  NAP164      0.1813
     29  C4D       -2.2000   55.0380   26.1420 C.3   164  NAP164      0.1799
     30  O4D       -1.6180   55.8040   25.0310 O.3   164  NAP164     -0.3327
     31  C3D       -2.0540   53.5030   25.8330 C.3   164  NAP164      0.2158
     32  O3D       -3.1280   52.6940   25.5600 O.3   164  NAP164     -0.2175
     33  C2D       -0.9450   53.4760   24.7310 C.3   164  NAP164      0.2309
     34  O2D       -0.9390   52.2270   24.1580 O.3   164  NAP164     -0.2158
     35  C1D       -1.1930   54.7540   24.0990 C.3   164  NAP164      0.2263
     36  N1N       -0.1610   55.4620   23.2150 N.pl3 164  NAP164     -0.2787
     37  C2N       -0.2250   55.4240   21.8240 C.3   164  NAP164      0.1244
     38  C3N        0.6750   56.0620   21.1300 C.2   164  NAP164      0.0544
     39  C7N        0.5040   55.9610   19.6780 C.2   164  NAP164      0.2818
     40  O7N        1.2420   56.6430   18.8980 O.2   164  NAP164     -0.2670
     41  N7N       -0.6140   55.3140   19.2930 N.am  164  NAP164     -0.0839
     42  C4N        1.8450   56.8920   21.7140 C.2   164  NAP164      0.0033
     43  C5N        1.7500   56.8400   23.2420 C.2   164  NAP164      0.0157
     44  C6N        0.8190   56.1830   23.8480 C.2   164  NAP164      0.0633
     45  P2B        0.4180   58.5460   37.6760 P.3   164  NAP164      0.5328
     46  O1X        1.3720   57.3650   38.0420 O.3   164  NAP164     -0.1145
     47  O2X        0.4670   59.7260   38.6070 O.3   164  NAP164     -0.1145
     48  O3X       -0.9310   57.8770   37.5570 O.2   164  NAP164     -0.2224
@<TRIPOS>BOND
     1    40    39    2
     2    41    39   am
     3    39    38    1
     4    38    42    2
     5    38    37    1
     6    42    43    1
     7    37    36    1
     8    36    44    1
     9    36    35    1
    10    43    44    2
    11    35    33    1
    12    35    30    1
    13    34    33    1
    14    33    31    1
    15    30    29    1
    16    32    31    1
    17    31    29    1
    18    29    28    1
    19    27    28    1
    20    27    24    1
    21    25    24    2
    22    24    26    1
    23    24    23    1
    24     3     1    2
    25     2     1    1
    26     1    23    1
    27     1     4    1
    28     4     5    1
    29     5     6    1
    30    14    15    1
    31    14    13    1
    32    15    16    2
    33     6     7    1
    34     6     8    1
    35     7    12    1
    36    13    12    1
    37    13    22    1
    38    16    22    1
    39    16    17    1
    40     8     9    1
    41     8    10    1
    42    12    10    1
    43    18    17    1
    44    22    21    2
    45    17    19    2
    46    10    11    1
    47    11    45    1
    48    21    20    1
    49    19    20    1
    50    48    45    2
    51    45    46    1
    52    45    47    1
