@<TRIPOS>MOLECULE
1rb3_NAP_A_1.pdb
 39 42 0 0 0
SMALL
GASTEIGER

@<TRIPOS>ATOM
      1  PA        -0.3510   57.8250   28.8040 P.3   164  NAP164      0.2189
      2  O1A       -0.3310   59.2290   28.3340 O.3   164  NAP164     -0.4371
      3  O2A        0.7880   57.0110   28.2760 O.2   164  NAP164     -0.5170
      4  O5B       -0.3190   57.7140   30.3630 O.3   164  NAP164     -0.3112
      5  C5B       -0.8460   58.7480   31.2000 C.3   164  NAP164      0.1813
      6  C4B       -0.2280   58.5570   32.5640 C.3   164  NAP164      0.1820
      7  O4B        0.9820   59.3550   32.5150 O.3   164  NAP164     -0.3136
      8  C3B       -0.9880   59.1190   33.7460 C.3   164  NAP164      0.2157
      9  O3B       -1.8240   58.1410   34.3100 O.3   164  NAP164     -0.2175
     10  C2B        0.0810   59.5980   34.7230 C.3   164  NAP164      0.2314
     11  O2B        0.6940   58.4780   35.3540 O.3   164  NAP164     -0.2630
     12  C1B        1.1220   60.0850   33.7130 C.3   164  NAP164      0.3158
     13  N9A        1.1020   61.5300   33.4830 N.pl3 164  NAP164     -0.1439
     14  C8A        0.6870   62.2420   32.3840 C.3   164  NAP164      0.3377
     15  N7A        0.8060   63.5540   32.5200 N.2   164  NAP164     -0.2095
     16  C5A        1.3400   63.6900   33.8160 C.2   164  NAP164      0.2526
     17  C6A        1.7320   64.8090   34.5840 C.2   164  NAP164      0.4393
     18  N6A        1.5980   66.0750   34.1340 N.pl3 164  NAP164      0.2180
     19  N1A        2.2380   64.5680   35.8550 N.2   164  NAP164      0.0021
     20  C2A        2.3220   63.3140   36.2900 C.3   164  NAP164      0.5254
     21  N3A        2.0020   62.1920   35.6260 N.2   164  NAP164     -0.0055
     22  C4A        1.5310   62.4440   34.4070 C.2   164  NAP164      0.3518
     23  O3        -1.7620   57.1380   28.7000 O.3   164  NAP164     -0.2703
     24  PN        -3.1040   57.5720   27.8610 P.3   164  NAP164      0.2189
     25  O1N       -2.8380   57.3170   26.4360 O.2   164  NAP164     -0.5170
     26  O2N       -3.5240   58.9340   28.2710 O.3   164  NAP164     -0.4371
     27  O5D       -4.1830   56.4850   28.2190 O.3   164  NAP164     -0.3112
     28  C5D       -4.2970   56.1240   29.6600 C.3   164  NAP164      0.1812
     29  C4D       -5.2110   54.8980   29.2830 C.3   164  NAP164      0.1780
     30  O4D       -4.5520   53.8280   28.5630 O.3   164  NAP164     -0.3482
     31  C3D       -6.6310   54.3730   29.6550 C.3   164  NAP164      0.2140
     32  O3D       -7.2050   54.8850   28.5230 O.3   164  NAP164     -0.2176
     33  C2D       -6.5090   52.8640   29.2890 C.3   164  NAP164      0.2140
     34  O2D       -7.6500   52.5900   28.5850 O.3   164  NAP164     -0.2176
     35  C1D       -5.5630   52.8500   28.2340 C.3   164  NAP164      0.1777
     36  P2B        0.3340   58.0200   36.8480 P.3   164  NAP164      0.5328
     37  O1X        1.3820   56.9390   37.3020 O.3   164  NAP164     -0.1145
     38  O2X        0.0710   59.2060   37.7500 O.3   164  NAP164     -0.1145
     39  O3X       -0.9640   57.3040   36.5730 O.2   164  NAP164     -0.2224
@<TRIPOS>BOND
     1    25    24    2
     2    24    27    1
     3    24    26    1
     4    24    23    1
     5    27    28    1
     6    35    30    1
     7    35    33    1
     8     3     1    2
     9     2     1    1
    10    32    31    1
    11    30    29    1
    12    34    33    1
    13    23     1    1
    14     1     4    1
    15    29    31    1
    16    29    28    1
    17    33    31    1
    18     4     5    1
    19     5     6    1
    20    14    15    1
    21    14    13    1
    22     7     6    1
    23     7    12    1
    24    15    16    2
    25     6     8    1
    26    13    12    1
    27    13    22    1
    28    12    10    1
    29     8     9    1
    30     8    10    1
    31    16    22    1
    32    16    17    1
    33    18    17    1
    34    22    21    2
    35    17    19    2
    36    10    11    1
    37    11    36    1
    38    21    20    1
    39    19    20    1
    40    39    36    2
    41    36    37    1
    42    36    38    1
