@<TRIPOS>MOLECULE
1rb3_MTX_A_1.pdb
 33 35 0 0 0
SMALL
GASTEIGER

@<TRIPOS>ATOM
      1  N1         4.4140   54.5850   16.1780 N.2   161  MTX161     -0.2684
      2  C2         4.5700   55.9020   15.9360 C.1   161  MTX161      0.2519
      3  NA2        4.6250   56.4440   14.7820 N.pl3 161  MTX161     -0.0226
      4  N3         4.6800   56.7860   17.0010 N.2   161  MTX161     -0.3033
      5  C4         4.6400   56.4310   18.2970 C.2   161  MTX161      0.2728
      6  NA4        4.7510   57.2920   19.2210 N.pl3 161  MTX161     -0.0887
      7  C4A        4.4810   55.0180   18.5480 C.2   161  MTX161      0.2518
      8  N5         4.6520   54.6380   19.8340 N.2   161  MTX161     -0.3917
      9  C6         4.7390   53.3210   20.0210 C.2   161  MTX161      0.1330
     10  C7         4.6480   52.4620   18.8720 C.3   161  MTX161      0.1930
     11  N8         4.4850   52.8160   17.6110 N.2   161  MTX161     -0.1998
     12  C8A        4.3930   54.1600   17.4880 C.1   161  MTX161      0.1314
     13  C9         4.9230   52.9370   21.4410 C.3   161  MTX161      0.1481
     14  N10        5.2400   51.4970   21.5870 N.pl3 161  MTX161     -0.2999
     15  CM         4.1530   50.5690   21.5260 C.3   161  MTX161      0.1125
     16  C11        8.7340   49.9960   20.1890 C.ar  161  MTX161      0.0551
     17  C12        7.7580   49.1870   20.7300 C.ar  161  MTX161      0.0058
     18  C13        6.5950   49.6910   21.1940 C.ar  161  MTX161      0.0147
     19  C14        6.4210   51.0620   21.1050 C.ar  161  MTX161      0.0482
     20  C15        7.3260   51.8850   20.5890 C.ar  161  MTX161      0.0147
     21  C16        8.5250   51.3240   20.1200 C.ar  161  MTX161      0.0058
     22  C          9.9410   49.4690   19.6820 C.2   161  MTX161      0.2652
     23  O         10.1350   48.2590   19.6440 O.2   161  MTX161     -0.2684
     24  N         10.7460   50.2730   19.0440 N.am  161  MTX161     -0.1918
     25  CA        12.0710   49.8000   18.6480 C.3   161  MTX161      0.1986
     26  CT        12.9760   50.8900   18.6070 C.2   161  MTX161      0.3842
     27  O1        12.4650   51.9850   18.3070 O.co2 161  MTX161     -0.2437
     28  O2        14.1910   50.5970   18.9130 O.co2 161  MTX161     -0.2437
     29  CB        12.0620   49.3030   17.2230 C.3   161  MTX161      0.0451
     30  CG        12.4880   47.7930   17.4600 C.3   161  MTX161      0.1164
     31  CD        11.9750   47.0140   16.2880 C.2   161  MTX161      0.3649
     32  OE1       12.2130   47.7350   15.2290 O.co2 161  MTX161     -0.2457
     33  OE2       11.3320   45.9190   16.4390 O.co2 161  MTX161     -0.2457
@<TRIPOS>BOND
     1     3     2    1
     2    32    31   ar
     3     2     1    2
     4     2     4    2
     5     1    12    2
     6    31    33   ar
     7    31    30    1
     8     4     5    2
     9    29    30    1
    10    29    25    1
    11    12    11    2
    12    12     7    1
    13    11    10    1
    14     5     7    1
    15     5     6    1
    16    27    26   ar
    17     7     8    2
    18    26    25    1
    19    26    28   ar
    20    25    24    1
    21    10     9    1
    22    24    22   am
    23    23    22    2
    24    22    16    1
    25     8     9    2
    26     9    13    1
    27    21    16   ar
    28    21    20   ar
    29    16    17   ar
    30    20    19   ar
    31    17    18   ar
    32    19    18   ar
    33    19    14    1
    34    13    14    1
    35    15    14    1
