@<TRIPOS>MOLECULE
1rbl_CAP_A_1.pdb
 21 20 0 0 0
SMALL
GASTEIGER

@<TRIPOS>ATOM
      1  C1       108.4010   52.2420  -16.8260 C.3   476  CAP476      0.1978
      2  C2       107.6850   51.7870  -15.5330 C.3   476  CAP476      0.2763
      3  C3       108.5110   50.5910  -14.9730 C.3   476  CAP476      0.2253
      4  C4       109.8300   50.8570  -14.2610 C.3   476  CAP476      0.2152
      5  C5       110.2010   50.1920  -12.9390 C.3   476  CAP476      0.1892
      6  C        107.3650   52.8900  -14.5270 C.2   476  CAP476      0.3967
      7  O1       107.6740   53.1060  -17.7270 O.3   476  CAP476     -0.2669
      8  O2       106.4580   51.3590  -15.9800 O.3   476  CAP476     -0.2086
      9  O3       107.7680   49.8400  -14.0870 O.3   476  CAP476     -0.2170
     10  O4       110.7210   50.5190  -15.2470 O.3   476  CAP476     -0.2176
     11  O5       111.5960   50.2520  -12.5920 O.3   476  CAP476     -0.2674
     12  O6       108.1740   53.9320  -14.3940 O.co2 476  CAP476     -0.2428
     13  O7       106.2610   52.8920  -13.7560 O.co2 476  CAP476     -0.2428
     14  P1       108.3180   53.6980  -18.9410 P.3   476  CAP476      0.5327
     15  P2       112.4990   49.0920  -12.5310 P.3   476  CAP476      0.5327
     16  O1P      107.1940   54.6630  -19.4760 O.3   476  CAP476     -0.1145
     17  O2P      108.6340   52.4060  -19.8160 O.2   476  CAP476     -0.2224
     18  O3P      109.5870   54.4430  -18.3520 O.3   476  CAP476     -0.1145
     19  O4P      112.3020   48.2960  -13.8860 O.2   476  CAP476     -0.2224
     20  O5P      112.0020   48.2910  -11.2410 O.3   476  CAP476     -0.1145
     21  O6P      113.8960   49.7810  -12.3500 O.3   476  CAP476     -0.1145
@<TRIPOS>BOND
     1    17    14    2
     2    16    14    1
     3    14    18    1
     4    14     7    1
     5     7     1    1
     6     1     2    1
     7     8     2    1
     8     2     3    1
     9     2     6    1
    10    10     4    1
    11     3     4    1
    12     3     9    1
    13     6    12   ar
    14     6    13   ar
    15     4     5    1
    16    19    15    2
    17     5    11    1
    18    11    15    1
    19    15    21    1
    20    15    20    1
