@<TRIPOS>MOLECULE
1rbm_KT5_A_1.pdb
 38 39 0 0 0
SMALL
GASTEIGER

@<TRIPOS>ATOM
      1  N2A      -10.1100   55.6020   22.2390 N.am  510  KT5510     -0.0878
      2  CD1       -9.3720   54.5330   22.0840 C.2   510  KT5510      0.2608
      3  OEB       -9.7130   53.3630   22.2910 O.2   510  KT5510     -0.2717
      4  CG1       -8.0280   54.9340   21.6490 C.3   510  KT5510      0.0909
      5  CB1       -7.1400   53.7910   21.1880 C.3   510  KT5510      0.0430
      6  CA1       -5.8140   54.2510   20.6970 C.3   510  KT5510      0.1985
      7  C1A       -4.7500   53.1120   20.5630 C.2   510  KT5510      0.3842
      8  O11       -4.1370   52.8390   21.5820 O.co2 510  KT5510     -0.2437
      9  O1A       -4.5570   52.4550   19.3830 O.co2 510  KT5510     -0.2437
     10  N1A       -6.0530   54.8740   19.3480 N.am  510  KT5510     -0.1918
     11  C         -5.9260   56.2410   19.1230 C.2   510  KT5510      0.2652
     12  O         -5.4820   57.0380   19.9420 O.2   510  KT5510     -0.2684
     13  C14       -6.2670   56.6850   17.7980 C.ar  510  KT5510      0.0550
     14  C15       -7.1980   55.9000   16.9420 C.ar  510  KT5510      0.0042
     15  C16       -7.4980   56.3940   15.6520 C.ar  510  KT5510     -0.0039
     16  C13       -5.6190   57.9530   17.3440 C.ar  510  KT5510      0.0042
     17  C12       -5.8970   58.4600   16.0290 C.ar  510  KT5510     -0.0039
     18  C11       -6.8700   57.6340   15.1550 C.ar  510  KT5510     -0.0149
     19  C10       -7.2150   57.8780   13.5930 C.3   510  KT5510      0.1155
     20  C5        -8.2640   58.9530   13.0530 C.3   510  KT5510      0.4393
     21  C6        -9.6940   58.6500   13.5280 C.3   510  KT5510      0.4774
     22  F2        -9.9340   58.3890   14.8500 F     510  KT5510     -0.1634
     23  F1        -9.9170   57.5030   12.8920 F     510  KT5510     -0.1634
     24  F3       -10.5100   59.6240   13.1830 F     510  KT5510     -0.1634
     25  OA2       -8.0780   59.5180   12.0190 O.2   510  KT5510     -0.2657
     26  OA1       -8.0600   60.1250   14.1010 O.2   510  KT5510     -0.2657
     27  C1        -5.9200   57.8930   12.7840 C.3   510  KT5510      0.0123
     28  C2        -5.5190   56.2740   12.5760 C.3   510  KT5510      0.0022
     29  C3        -5.0990   55.9060   11.1090 C.3   510  KT5510      0.0265
     30  C4        -3.8500   55.1680   11.4510 C.3   510  KT5510      0.1894
     31  C7        -3.4610   53.9090   12.0740 C.2   510  KT5510      0.2263
     32  N8        -4.4520   53.0140   12.4390 N.pl3 510  KT5510     -0.0958
     33  C9        -2.7640   55.9130   11.1270 C.1   510  KT5510      0.1990
     34  O1        -2.5620   57.1610   10.5240 O.2   510  KT5510     -0.2129
     35  N3        -1.2380   55.5140   11.4020 N.2   510  KT5510     -0.2539
     36  C8        -1.0250   54.3170   12.0170 C.1   510  KT5510      0.2525
     37  N2         0.2270   53.9160   12.3690 N.pl3 510  KT5510     -0.0226
     38  N1        -2.0680   53.5750   12.3210 N.2   510  KT5510     -0.3102
@<TRIPOS>BOND
     1    34    33    2
     2    29    30    1
     3    29    28    1
     4    33    35    2
     5    33    30    1
     6    35    36    2
     7    30    31    1
     8    36    38    2
     9    36    37    1
    10    25    20    1
    11    31    38    2
    12    31    32    1
    13    28    27    1
    14    27    19    1
    15    23    21    1
    16    20    21    1
    17    20    19    1
    18    20    26    1
    19    24    21    1
    20    21    22    1
    21    19    18    1
    22    18    15   ar
    23    18    17   ar
    24    15    14   ar
    25    17    16   ar
    26    14    13   ar
    27    16    13   ar
    28    13    11    1
    29    11    10   am
    30    11    12    2
    31    10     6    1
    32     9     7   ar
    33     7     6    1
    34     7     8   ar
    35     6     5    1
    36     5     4    1
    37     4     2    1
    38     2     1   am
    39     2     3    2
