@<TRIPOS>MOLECULE
1rbn_P5P_A_1.pdb
 22 24 0 0 0
SMALL
GASTEIGER

@<TRIPOS>ATOM
      1  N1        18.4730   25.8170   -4.3540 N.2   125  P5P125     -0.2189
      2  C2        19.0800   25.4650   -5.4920 C.2   125  P5P125      0.3347
      3  N3        18.8350   25.8860   -6.7370 N.2   125  P5P125     -0.0132
      4  C4        17.8030   26.7740   -6.7140 C.2   125  P5P125      0.3444
      5  C5        17.0960   27.2450   -5.6360 C.2   125  P5P125      0.1644
      6  C6        17.4600   26.7130   -4.3910 C.3   125  P5P125      0.1822
      7  N7        16.0900   28.1440   -6.0410 N.2   125  P5P125     -0.2187
      8  C8        16.2720   28.1870   -7.3330 C.3   125  P5P125      0.3373
      9  N9        17.2620   27.4160   -7.7250 N.pl3 125  P5P125     -0.1440
     10  C1'       17.7140   27.3760   -8.9710 C.3   125  P5P125      0.3186
     11  C2'       17.3940   28.5530   -9.9320 C.3   125  P5P125      0.2570
     12  O2'       17.3870   28.1970  -11.3370 O.3   125  P5P125     -0.2130
     13  C3'       18.5950   29.4430   -9.6130 C.3   125  P5P125      0.2184
     14  O3'       18.8760   30.2930  -10.7360 O.3   125  P5P125     -0.2174
     15  C4'       19.7300   28.4290   -9.3120 C.3   125  P5P125      0.1823
     16  O4'       19.1070   27.0950   -9.2450 O.3   125  P5P125     -0.3135
     17  C5'       20.5250   28.8750   -8.0400 C.3   125  P5P125      0.1860
     18  O5'       21.3990   30.0400   -8.2170 O.3   125  P5P125     -0.2675
     19  P         22.9430   29.9300   -8.8200 P.3   125  P5P125      0.5327
     20  OP1       23.4480   31.2070   -9.4290 O.3   125  P5P125     -0.1145
     21  OP2       22.9710   28.7320   -9.7170 O.2   125  P5P125     -0.2224
     22  OP3       23.8090   29.6010   -7.4770 O.3   125  P5P125     -0.1145
@<TRIPOS>BOND
     1    12    11    1
     2    14    13    1
     3    11    13    1
     4    11    10    1
     5    21    19    2
     6    13    15    1
     7    20    19    1
     8    15    16    1
     9    15    17    1
    10    16    10    1
    11    10     9    1
    12    19    18    1
    13    19    22    1
    14    18    17    1
    15     9     8    1
    16     9     4    1
    17     8     7    1
    18     3     4    2
    19     3     2    1
    20     4     5    1
    21     7     5    2
    22     5     6    1
    23     2     1    2
    24     6     1    1
