@<TRIPOS>MOLECULE
1rbo_CAP_B_1.pdb
 21 20 0 0 0
SMALL
GASTEIGER

@<TRIPOS>ATOM
      1  C1        -3.8180   76.6380   30.1680 C.3   476  CAP476      0.1978
      2  C2        -4.3300   76.0140   31.5320 C.3   476  CAP476      0.2763
      3  C3        -3.1320   75.6590   32.5650 C.3   476  CAP476      0.2253
      4  C4        -2.3960   76.9500   33.0900 C.3   476  CAP476      0.2152
      5  C5        -1.5850   76.7230   34.3620 C.3   476  CAP476      0.1892
      6  C         -5.3710   76.9400   32.2540 C.2   476  CAP476      0.3967
      7  O1        -4.8760   76.8100   29.1940 O.3   476  CAP476     -0.2669
      8  O2        -4.9200   74.7780   31.2760 O.3   476  CAP476     -0.2086
      9  O3        -2.1530   74.8680   31.9250 O.3   476  CAP476     -0.2170
     10  O4        -1.5430   77.3950   32.0510 O.3   476  CAP476     -0.2176
     11  O5        -0.8340   77.9350   34.6830 O.3   476  CAP476     -0.2674
     12  O6        -6.2960   76.3570   32.8800 O.co2 476  CAP476     -0.2428
     13  O7        -5.2660   78.1940   32.2220 O.co2 476  CAP476     -0.2428
     14  P1        -4.7620   77.5850   27.8200 P.3   476  CAP476      0.5327
     15  P2         0.7350   78.0050   34.9560 P.3   476  CAP476      0.5327
     16  O1P       -3.6070   76.8060   27.1280 O.3   476  CAP476     -0.1145
     17  O2P       -4.3490   78.9690   28.1030 O.3   476  CAP476     -0.1145
     18  O3P       -5.9900   77.3450   27.0230 O.2   476  CAP476     -0.2224
     19  O4P        1.3090   77.3220   33.6970 O.2   476  CAP476     -0.2224
     20  O5P        1.1550   79.4380   35.0080 O.3   476  CAP476     -0.1145
     21  O6P        0.9930   77.1580   36.1580 O.3   476  CAP476     -0.1145
@<TRIPOS>BOND
     1    18    14    2
     2    16    14    1
     3    14    17    1
     4    14     7    1
     5     7     1    1
     6     1     2    1
     7     8     2    1
     8     2     6    1
     9     2     3    1
    10     9     3    1
    11    10     4    1
    12    13     6   ar
    13     6    12   ar
    14     3     4    1
    15     4     5    1
    16    19    15    2
    17     5    11    1
    18    11    15    1
    19    15    20    1
    20    15    21    1
