@<TRIPOS>MOLECULE
1rbp_RTL_A_1.pdb
 21 21 0 0 0
SMALL
GASTEIGER

@<TRIPOS>ATOM
      1  C1        29.6110   21.3730   45.3130 C.3   183  RTL183      0.0183
      2  C2        29.3530   21.3820   43.7990 C.3   183  RTL183      0.0044
      3  C3        30.4050   20.8400   42.9870 C.3   183  RTL183      0.0047
      4  C4        30.6780   19.3750   43.2780 C.3   183  RTL183      0.0217
      5  C5        30.8700   19.1360   44.7590 C.2   183  RTL183     -0.0479
      6  C6        30.3910   20.0230   45.7170 C.2   183  RTL183     -0.0307
      7  C7        30.4140   19.7480   47.1870 C.2   183  RTL183     -0.0052
      8  C8        31.5340   19.5570   47.9200 C.2   183  RTL183     -0.0046
      9  C9        31.6150   19.2890   49.3280 C.2   183  RTL183     -0.0219
     10  C10       32.8690   19.1060   49.8290 C.2   183  RTL183     -0.0043
     11  C11       33.2410   18.8890   51.2130 C.2   183  RTL183     -0.0007
     12  C12       34.5270   18.6650   51.5950 C.2   183  RTL183     -0.0045
     13  C13       34.9590   18.4900   52.9750 C.2   183  RTL183     -0.0236
     14  C14       36.2680   18.2380   53.2300 C.2   183  RTL183      0.0048
     15  C15       36.7580   18.0420   54.5870 C.3   183  RTL183      0.2080
     16  O1        38.1220   17.7880   54.8970 O.3   183  RTL183     -0.2152
     17  C16       28.2410   21.4810   46.0260 C.3   183  RTL183      0.0043
     18  C17       30.4560   22.5970   45.6860 C.3   183  RTL183      0.0043
     19  C18       31.7370   17.8970   45.0050 C.3   183  RTL183      0.0260
     20  C19       30.2950   19.1560   50.1160 C.3   183  RTL183      0.0310
     21  C20       33.8890   18.6090   54.1090 C.3   183  RTL183      0.0308
@<TRIPOS>BOND
     1     3     4    1
     2     3     2    1
     3     4     5    1
     4     2     1    1
     5     5    19    1
     6     5     6    2
     7     1    18    1
     8     1     6    1
     9     1    17    1
    10     6     7    1
    11     7     8    2
    12     8     9    1
    13     9    10    2
    14     9    20    1
    15    10    11    1
    16    11    12    2
    17    12    13    1
    18    13    14    2
    19    13    21    1
    20    14    15    1
    21    15    16    1
