@<TRIPOS>MOLECULE
1rbq_KEU_A_1.pdb
 38 39 0 0 0
SMALL
GASTEIGER

@<TRIPOS>ATOM
      1  O4       -10.2020   55.8990   14.7970 O.co2 510  KEU510     -0.2457
      2  C21       -9.4520   54.8290   14.6710 C.2   510  KEU510      0.3649
      3  O5        -9.7620   53.6680   14.9520 O.co2 510  KEU510     -0.2457
      4  C20       -8.1350   55.2270   14.1480 C.3   510  KEU510      0.1164
      5  C19       -7.2300   54.0580   13.7930 C.3   510  KEU510      0.0451
      6  C17       -5.9260   54.4910   13.2160 C.3   510  KEU510      0.1986
      7  N         -6.2720   55.1140   11.8880 N.am  510  KEU510     -0.1918
      8  C         -5.9460   56.4340   11.6030 C.2   510  KEU510      0.2652
      9  O         -5.4330   57.1830   12.4150 O.2   510  KEU510     -0.2684
     10  C14       -6.3350   56.9130   10.3040 C.ar  510  KEU510      0.0550
     11  C13       -5.6950   58.1770    9.8250 C.ar  510  KEU510      0.0042
     12  C12       -5.9550   58.6470    8.4950 C.ar  510  KEU510     -0.0039
     13  C11       -6.9140   57.7960    7.6360 C.ar  510  KEU510     -0.0149
     14  C16       -7.5270   56.5680    8.1480 C.ar  510  KEU510     -0.0039
     15  C15       -7.2690   56.1130    9.4520 C.ar  510  KEU510      0.0042
     16  C10       -7.5610   58.0360    6.1640 C.3   510  KEU510      0.1155
     17  C1        -7.0340   57.2400    4.9570 C.3   510  KEU510      0.0123
     18  C2        -5.4400   56.7770    5.1220 C.3   510  KEU510      0.0022
     19  C3        -5.1230   56.1980    3.7000 C.3   510  KEU510      0.0265
     20  C4        -3.9150   55.4160    4.0540 C.3   510  KEU510      0.1894
     21  C9        -2.8250   56.1460    3.7290 C.1   510  KEU510      0.1990
     22  O1        -2.6400   57.3420    3.0290 O.2   510  KEU510     -0.2129
     23  N3        -1.2980   55.7170    3.9760 N.2   510  KEU510     -0.2539
     24  C8        -1.1420   54.4980    4.5790 C.1   510  KEU510      0.2525
     25  N2         0.0790   54.0910    4.9810 N.pl3 510  KEU510     -0.0226
     26  N1        -2.1970   53.7610    4.8850 N.2   510  KEU510     -0.3102
     27  C7        -3.5800   54.1330    4.6620 C.2   510  KEU510      0.2263
     28  N8        -4.6060   53.2640    4.9930 N.pl3 510  KEU510     -0.0958
     29  C5        -8.3980   59.2360    5.6130 C.3   510  KEU510      0.4393
     30  OA2       -8.1730   59.7420    4.5560 O.2   510  KEU510     -0.2657
     31  OA1       -8.0700   60.3640    6.6760 O.2   510  KEU510     -0.2657
     32  C6        -9.8110   58.9780    6.1120 C.3   510  KEU510      0.4774
     33  F2        -9.9960   58.6210    7.4370 F     510  KEU510     -0.1634
     34  F1        -9.9710   57.8320    5.4770 F     510  KEU510     -0.1634
     35  F        -10.6330   59.9460    5.7310 F     510  KEU510     -0.1634
     36  C18       -4.8670   53.3340   13.0300 C.2   510  KEU510      0.3842
     37  O3        -4.1820   53.0640   14.0000 O.co2 510  KEU510     -0.2437
     38  O2        -4.7380   52.6470   11.8550 O.co2 510  KEU510     -0.2437
@<TRIPOS>BOND
     1    22    21    2
     2    19    20    1
     3    19    18    1
     4    21    23    2
     5    21    20    1
     6    23    24    2
     7    20    27    1
     8    30    29    1
     9    24    26    2
    10    24    25    1
    11    27    26    2
    12    27    28    1
    13    17    18    1
    14    17    16    1
    15    34    32    1
    16    29    32    1
    17    29    16    1
    18    29    31    1
    19    35    32    1
    20    32    33    1
    21    16    13    1
    22    13    14   ar
    23    13    12   ar
    24    14    15   ar
    25    12    11   ar
    26    15    10   ar
    27    11    10   ar
    28    10     8    1
    29     8     7   am
    30     8     9    2
    31    38    36   ar
    32     7     6    1
    33    36     6    1
    34    36    37   ar
    35     6     5    1
    36     5     4    1
    37     4     2    1
    38     2     1   ar
    39     2     3   ar
