@<TRIPOS>MOLECULE
1rby_KEU_A_1.pdb
 38 39 0 0 0
SMALL
GASTEIGER

@<TRIPOS>ATOM
      1  O4       -19.8580   72.6290  -15.1100 O.co2 510  KEU510     -0.2457
      2  C21      -20.3850   73.8280  -15.0360 C.2   510  KEU510      0.3649
      3  O5       -21.5600   74.1180  -15.2680 O.co2 510  KEU510     -0.2457
      4  C20      -19.3550   74.8150  -14.6600 C.3   510  KEU510      0.1164
      5  C19      -19.9360   76.1490  -14.1950 C.3   510  KEU510      0.0451
      6  C17      -18.9170   77.1060  -13.6760 C.3   510  KEU510      0.1986
      7  N        -18.4980   76.5660  -12.3230 N.am  510  KEU510     -0.1918
      8  C        -17.2170   76.1200  -12.1040 C.2   510  KEU510      0.2652
      9  O        -16.3490   76.1650  -12.9460 O.2   510  KEU510     -0.2684
     10  C14      -16.9690   75.5140  -10.8220 C.ar  510  KEU510      0.0550
     11  C13      -15.5410   75.4370  -10.3550 C.ar  510  KEU510      0.0042
     12  C12      -15.2640   75.0300   -8.9950 C.ar  510  KEU510     -0.0039
     13  C11      -16.4800   74.6830   -8.1110 C.ar  510  KEU510     -0.0149
     14  C16      -17.8530   74.7550   -8.6400 C.ar  510  KEU510     -0.0039
     15  C15      -18.1210   75.1430   -9.9670 C.ar  510  KEU510      0.0042
     16  C10      -16.6230   74.0030   -6.6280 C.3   510  KEU510      0.1155
     17  C1       -17.1230   74.8150   -5.4130 C.3   510  KEU510      0.0123
     18  C2       -16.7570   76.4440   -5.5250 C.3   510  KEU510      0.0022
     19  C3       -17.0210   77.0290   -4.0890 C.3   510  KEU510      0.0265
     20  C4       -17.0840   78.4670   -4.4340 C.3   510  KEU510      0.1894
     21  C9       -15.9070   79.0560   -4.1190 C.1   510  KEU510      0.1990
     22  O1       -14.7580   78.6340   -3.4610 O.2   510  KEU510     -0.2129
     23  N3       -15.5280   80.5990   -4.3800 N.2   510  KEU510     -0.2539
     24  C8       -16.5040   81.3300   -5.0020 C.1   510  KEU510      0.2525
     25  N2       -16.3100   82.6190   -5.3020 N.pl3 510  KEU510     -0.0226
     26  N1       -17.6600   80.7780   -5.3150 N.2   510  KEU510     -0.3102
     27  C7       -18.0210   79.3920   -5.0660 C.2   510  KEU510      0.2263
     28  N8       -19.2270   78.9040   -5.4930 N.pl3 510  KEU510     -0.0958
     29  C5       -15.9920   72.6210   -6.1200 C.3   510  KEU510      0.4393
     30  OA2      -15.4300   72.5440   -5.0740 O.2   510  KEU510     -0.2657
     31  OA1      -14.8700   72.3430   -7.2160 O.2   510  KEU510     -0.2657
     32  C6       -17.0090   71.5680   -6.5830 C.3   510  KEU510      0.4774
     33  F2       -17.3780   71.6170   -7.9190 F     510  KEU510     -0.1634
     34  F1       -18.0900   72.0340   -5.9670 F     510  KEU510     -0.1634
     35  F        -16.6840   70.3460   -6.1750 F     510  KEU510     -0.1634
     36  C18      -19.3910   78.6000  -13.4790 C.2   510  KEU510      0.3842
     37  O3       -19.2780   79.3490  -14.4270 O.co2 510  KEU510     -0.2437
     38  O2       -19.9260   79.0350  -12.2950 O.co2 510  KEU510     -0.2437
@<TRIPOS>BOND
     1     3     2   ar
     2     1     2   ar
     3     2     4    1
     4     4     5    1
     5    37    36   ar
     6     5     6    1
     7     6    36    1
     8     6     7    1
     9    36    38   ar
    10     9     8    2
    11     7     8   am
    12     8    10    1
    13    10    11   ar
    14    10    15   ar
    15    11    12   ar
    16    15    14   ar
    17    12    13   ar
    18    14    13   ar
    19    13    16    1
    20    33    32    1
    21    31    29    1
    22    16    29    1
    23    16    17    1
    24    32    35    1
    25    32    29    1
    26    32    34    1
    27    29    30    1
    28    18    17    1
    29    18    19    1
    30    28    27    1
    31    26    27    2
    32    26    24    2
    33    25    24    1
    34    27    20    1
    35    24    23    2
    36    20    21    1
    37    20    19    1
    38    23    21    2
    39    21    22    2
