@<TRIPOS>MOLECULE
1rby_GAR_A_1.pdb
 18 18 0 0 0
SMALL
GASTEIGER

@<TRIPOS>ATOM
      1  C1       -20.0120   65.9000   -4.8950 C.3   523  GAR523      0.2155
      2  O6       -20.7540   65.0800   -3.9920 O.3   523  GAR523     -0.2176
      3  C2       -19.2620   66.9440   -4.1020 C.3   523  GAR523      0.2285
      4  O8       -17.9390   66.4750   -3.8870 O.3   523  GAR523     -0.2161
      5  C3       -19.2540   68.2040   -4.9550 C.3   523  GAR523      0.2250
      6  O4       -20.2540   67.9860   -5.9710 O.3   523  GAR523     -0.3345
      7  C5       -20.8860   66.6900   -5.8670 C.3   523  GAR523      0.1798
      8  C10      -22.3520   66.8510   -5.4230 C.3   523  GAR523      0.1859
      9  O12      -23.0460   65.6320   -5.1520 O.3   523  GAR523     -0.2675
     10  N19      -19.4660   69.3770   -4.0900 N.3   523  GAR523     -0.1586
     11  C21      -20.2490   70.5390   -4.4690 C.3   523  GAR523      0.2468
     12  O22      -19.9730   70.9020   -5.8310 O.3   523  GAR523     -0.2019
     13  C23      -20.0290   71.7520   -3.5710 C.3   523  GAR523      0.1605
     14  N24      -20.6640   72.9630   -4.0950 N.3   523  GAR523     -0.1270
     15  P15      -24.4920   65.6070   -4.4020 P.3   523  GAR523      0.5327
     16  O16      -24.3830   66.1740   -2.8050 O.3   523  GAR523     -0.1145
     17  O17      -25.0420   64.0040   -4.3600 O.3   523  GAR523     -0.1145
     18  O18      -25.5770   66.5580   -5.2780 O.2   523  GAR523     -0.2224
@<TRIPOS>BOND
     1     6     7    1
     2     6     5    1
     3     7     8    1
     4     7     1    1
     5    12    11    1
     6     8     9    1
     7    18    15    2
     8     9    15    1
     9     5     3    1
    10     5    10    1
    11     1     3    1
    12     1     2    1
    13    11    10    1
    14    11    13    1
    15    15    17    1
    16    15    16    1
    17     3     4    1
    18    14    13    1
