@<TRIPOS>MOLECULE
1rbz_KT5_B_1.pdb
 47 48 0 0 0
SMALL
GASTEIGER

@<TRIPOS>ATOM
      1  N2A       53.9260   19.5070   53.3980 N.am  610  KT5610     -0.1956
      2  CD1       53.8040   18.7940   54.5480 C.2   610  KT5610      0.2419
      3  OEB       53.3770   17.5970   54.6470 O.2   610  KT5610     -0.2733
      4  CG1       54.2360   19.6280   55.7080 C.3   610  KT5610      0.0892
      5  CB1       54.1190   18.8980   57.0380 C.3   610  KT5610      0.0429
      6  CA1       54.5270   19.6850   58.2780 C.3   610  KT5610      0.1985
      7  C1A       54.3790   18.8550   59.6290 C.2   610  KT5610      0.3842
      8  O11       55.4700   18.2030   60.1580 O.co2 610  KT5610     -0.2437
      9  O1A       53.2780   18.8090   60.1770 O.co2 610  KT5610     -0.2437
     10  N1A       56.0120   20.0330   58.0960 N.am  610  KT5610     -0.1918
     11  C         56.5410   21.3010   58.3050 C.2   610  KT5610      0.2652
     12  O         55.8440   22.2470   58.6520 O.2   610  KT5610     -0.2684
     13  C14       57.9770   21.4980   58.1150 C.ar  610  KT5610      0.0550
     14  C15       58.8400   20.3340   57.6870 C.ar  610  KT5610      0.0042
     15  C16       60.2650   20.5020   57.5050 C.ar  610  KT5610     -0.0039
     16  C13       58.6070   22.8690   58.3520 C.ar  610  KT5610      0.0042
     17  C12       60.0800   23.0910   58.1790 C.ar  610  KT5610     -0.0039
     18  C11       60.9230   21.8540   57.7440 C.ar  610  KT5610     -0.0149
     19  C10       62.5080   21.8150   57.4800 C.3   610  KT5610      0.1155
     20  C5        63.2840   22.6090   56.3770 C.3   610  KT5610      0.4393
     21  C6        62.9450   22.1190   54.9620 C.3   610  KT5610      0.4774
     22  F2        61.5980   22.0120   54.5800 F     610  KT5610     -0.1634
     23  F1        63.3040   20.8770   55.0920 F     610  KT5610     -0.1634
     24  F3        63.6620   22.8590   54.0330 F     610  KT5610     -0.1634
     25  OA2       64.3280   23.1080   56.7060 O.2   610  KT5610     -0.2657
     26  OA1       62.4580   23.9750   56.2280 O.2   610  KT5610     -0.2657
     27  C1        63.4000   20.7830   58.2040 C.3   610  KT5610      0.0123
     28  C2        63.0280   20.8650   59.8280 C.3   610  KT5610      0.0022
     29  C3        64.1630   19.9720   60.4460 C.3   610  KT5610      0.0265
     30  C4        63.5190   19.5810   61.6970 C.3   610  KT5610      0.1894
     31  C7        62.6220   18.4980   62.2360 C.2   610  KT5610      0.2263
     32  N8        62.1780   17.4900   61.4520 N.pl3 610  KT5610     -0.0958
     33  C9        63.8430   20.4950   62.6710 C.1   610  KT5610      0.1990
     34  O1        64.6060   21.6370   62.7140 O.2   610  KT5610     -0.2129
     35  N3        63.3290   20.4320   64.2120 N.2   610  KT5610     -0.2539
     36  C8        62.4960   19.3580   64.5510 C.1   610  KT5610      0.2525
     37  N2        62.0300   19.2280   65.7940 N.pl3 610  KT5610     -0.0226
     38  N1        62.1770   18.4770   63.6430 N.2   610  KT5610     -0.3102
     39  N3A       51.3910   22.5650   55.9200 N.am  610  KT5610     -0.0878
     40  OEC       51.0460   20.8080   54.8040 O.2   610  KT5610     -0.2717
     41  CD2       51.5400   21.9240   54.7860 C.2   610  KT5610      0.2608
     42  CG2       52.2330   22.0930   53.3060 C.3   610  KT5610      0.0909
     43  CB2       53.0180   21.3360   52.1000 C.3   610  KT5610      0.0429
     44  CA2       52.7180   19.7820   52.3230 C.3   610  KT5610      0.1982
     45  C2A       53.3400   18.6640   51.2940 C.2   610  KT5610      0.3842
     46  O2        52.5940   17.7990   50.7270 O.co2 610  KT5610     -0.2437
     47  O15       54.7400   18.7170   51.0830 O.co2 610  KT5610     -0.2437
@<TRIPOS>BOND
     1    46    45   ar
     2    47    45   ar
     3    45    44    1
     4    43    44    1
     5    43    42    1
     6    44     1    1
     7    42    41    1
     8     1     2   am
     9    24    21    1
    10     2     3    2
    11     2     4    1
    12    22    21    1
    13    41    40    2
    14    41    39   am
    15    21    23    1
    16    21    20    1
    17     4     5    1
    18    26    20    1
    19    20    25    1
    20    20    19    1
    21     5     6    1
    22    19    18    1
    23    19    27    1
    24    15    14   ar
    25    15    18   ar
    26    14    13   ar
    27    18    17   ar
    28    10     6    1
    29    10    11   am
    30    13    11    1
    31    13    16   ar
    32    17    16   ar
    33    27    28    1
    34     6     7    1
    35    11    12    2
    36     7     8   ar
    37     7     9   ar
    38    28    29    1
    39    29    30    1
    40    32    31    1
    41    30    31    1
    42    30    33    1
    43    31    38    2
    44    33    34    2
    45    33    35    2
    46    38    36    2
    47    35    36    2
    48    36    37    1
