@<TRIPOS>MOLECULE
1rc0_KT5_A_1.pdb
 38 39 0 0 0
SMALL
GASTEIGER

@<TRIPOS>ATOM
      1  N2A       54.3250   53.0740   22.0560 N.am  510  KT5510     -0.0837
      2  CD1       53.2600   52.8770   22.8140 C.2   510  KT5510      0.2841
      3  OEB       52.0950   53.1170   22.4900 O.2   510  KT5510     -0.2667
      4  CG1       53.6610   52.3090   24.1220 C.2   510  KT5510      0.0588
      5  CB1       52.6450   52.4530   25.2560 C.2   510  KT5510      0.0112
      6  CA1       53.1060   51.9490   26.5850 C.3   510  KT5510      0.2202
      7  C1A       52.4950   52.6760   27.8620 C.2   510  KT5510      0.3884
      8  O11       52.9800   53.7450   28.2200 O.co2 510  KT5510     -0.2434
      9  O1A       51.4480   52.1080   28.5510 O.co2 510  KT5510     -0.2434
     10  N1A       52.6970   50.4910   26.6220 N.am  510  KT5510     -0.1872
     11  C         53.5620   49.4190   26.4740 C.2   510  KT5510      0.2655
     12  O         54.7710   49.5590   26.4480 O.2   510  KT5510     -0.2683
     13  C14       52.9510   48.1090   26.2860 C.ar  510  KT5510      0.0550
     14  C15       51.5790   47.9450   25.7020 C.ar  510  KT5510      0.0042
     15  C16       50.9940   46.6570   25.6350 C.ar  510  KT5510     -0.0039
     16  C13       53.7210   46.9230   26.7830 C.ar  510  KT5510      0.0042
     17  C12       53.1410   45.6040   26.7160 C.ar  510  KT5510     -0.0039
     18  C11       51.7170   45.4750   26.1180 C.ar  510  KT5510     -0.0149
     19  C10       50.8400   44.1060   26.0090 C.3   510  KT5510      0.1155
     20  C5        51.1100   43.0020   24.8890 C.3   510  KT5510      0.4393
     21  C6        50.8410   43.5260   23.4610 C.3   510  KT5510      0.4774
     22  F2        51.4910   44.6810   23.0600 F     510  KT5510     -0.1634
     23  F1        49.5700   43.9040   23.6020 F     510  KT5510     -0.1634
     24  F3        50.9980   42.5540   22.5420 F     510  KT5510     -0.1634
     25  OA2       50.9740   41.8610   25.1190 O.2   510  KT5510     -0.2657
     26  OA1       52.6960   43.0880   24.7880 O.2   510  KT5510     -0.2657
     27  C1        50.6530   43.4890   27.4030 C.3   510  KT5510      0.0123
     28  C2        49.2240   44.2360   27.9140 C.3   510  KT5510      0.0022
     29  C3        48.3500   43.3700   28.8810 C.3   510  KT5510      0.0265
     30  C4        48.4290   44.2100   30.1210 C.3   510  KT5510      0.1894
     31  C7        47.9600   45.5180   30.6280 C.2   510  KT5510      0.2263
     32  N8        47.3020   46.4050   29.8110 N.pl3 510  KT5510     -0.0958
     33  C9        49.1190   43.5370   31.0700 C.1   510  KT5510      0.1990
     34  O1        49.6450   42.2380   31.1610 O.2   510  KT5510     -0.2129
     35  N3        49.4290   44.0640   32.5680 N.2   510  KT5510     -0.2539
     36  C8        48.9270   45.2950   32.8770 C.1   510  KT5510      0.2525
     37  N2        49.1880   45.8770   34.0620 N.pl3 510  KT5510     -0.0226
     38  N1        48.2410   45.9650   31.9850 N.2   510  KT5510     -0.3102
@<TRIPOS>BOND
     1     1     2   am
     2     3     2    2
     3    24    21    1
     4     2     4    1
     5    22    21    1
     6    21    23    1
     7    21    20    1
     8     4     5    2
     9    26    20    1
    10    20    25    1
    11    20    19    1
    12     5     6    1
    13    15    14   ar
    14    15    18   ar
    15    14    13   ar
    16    19    18    1
    17    19    27    1
    18    18    17   ar
    19    13    11    1
    20    13    16   ar
    21    12    11    2
    22    11    10   am
    23     6    10    1
    24     6     7    1
    25    17    16   ar
    26    27    28    1
    27     7     8   ar
    28     7     9   ar
    29    28    29    1
    30    29    30    1
    31    32    31    1
    32    30    31    1
    33    30    33    1
    34    31    38    2
    35    33    34    2
    36    33    35    2
    37    38    36    2
    38    35    36    2
    39    36    37    1
