@<TRIPOS>MOLECULE
1rc1_KT3_A_1.pdb
 38 39 0 0 0
SMALL
GASTEIGER

@<TRIPOS>ATOM
      1  N2A      -10.1100   55.3810   22.0880 N.am  510  KT3510     -0.0878
      2  CD1       -9.2780   54.3710   21.8820 C.2   510  KT3510      0.2608
      3  OEB       -9.3920   53.2380   22.3570 O.2   510  KT3510     -0.2717
      4  CG1       -8.1600   54.7760   20.9970 C.3   510  KT3510      0.0909
      5  CB1       -6.9780   53.7980   20.9610 C.3   510  KT3510      0.0430
      6  CA1       -5.6950   54.3140   20.3860 C.3   510  KT3510      0.1985
      7  C1A       -4.5550   53.2450   20.1640 C.2   510  KT3510      0.3842
      8  O11       -3.8330   52.9780   21.1070 O.co2 510  KT3510     -0.2437
      9  O1A       -4.3870   52.6220   18.9610 O.co2 510  KT3510     -0.2437
     10  N1A       -6.0300   54.9550   19.0550 N.am  510  KT3510     -0.1918
     11  C         -5.8550   56.3110   18.8360 C.2   510  KT3510      0.2652
     12  O         -5.2690   57.0530   19.6170 O.2   510  KT3510     -0.2684
     13  C14       -6.2530   56.7720   17.5350 C.ar  510  KT3510      0.0550
     14  C15       -7.1330   55.9360   16.6660 C.ar  510  KT3510      0.0042
     15  C16       -7.3710   56.3770   15.3580 C.ar  510  KT3510     -0.0039
     16  C13       -5.6430   58.0560   17.0760 C.ar  510  KT3510      0.0042
     17  C12       -5.8880   58.5260   15.7420 C.ar  510  KT3510     -0.0039
     18  C11       -6.7860   57.6370   14.8540 C.ar  510  KT3510     -0.0149
     19  C10       -7.4390   57.8910   13.3920 C.3   510  KT3510      0.1155
     20  C5        -8.2790   59.0940   12.8700 C.3   510  KT3510      0.4393
     21  C6        -9.7000   58.7920   13.3160 C.3   510  KT3510      0.4774
     22  F2        -9.8520   58.3850   14.6250 F     510  KT3510     -0.1634
     23  F1        -9.8590   57.6530   12.6560 F     510  KT3510     -0.1634
     24  F3       -10.5350   59.7670   12.9370 F     510  KT3510     -0.1634
     25  OA2       -8.0660   59.6180   11.8310 O.2   510  KT3510     -0.2657
     26  OA1       -7.9340   60.1900   13.9760 O.2   510  KT3510     -0.2657
     27  C1        -7.0140   57.0610   12.1650 C.3   510  KT3510      0.0123
     28  C2        -5.4020   56.6420   12.1750 C.3   510  KT3510      0.0022
     29  C3        -5.0920   56.1410   10.7210 C.3   510  KT3510      0.0265
     30  C4        -3.8660   55.3660   11.0770 C.3   510  KT3510      0.1894
     31  C7        -3.4870   54.0980   11.6910 C.2   510  KT3510      0.2263
     32  N8        -4.4680   53.2260   12.0940 N.pl3 510  KT3510     -0.0958
     33  C9        -2.7880   56.0980   10.7500 C.1   510  KT3510      0.1990
     34  O1        -2.6280   57.3030   10.0750 O.2   510  KT3510     -0.2129
     35  N3        -1.2600   55.6880   10.9800 N.2   510  KT3510     -0.2539
     36  C8        -1.0610   54.4790   11.5670 C.1   510  KT3510      0.2525
     37  N2         0.1780   54.0630   11.9230 N.pl3 510  KT3510     -0.0226
     38  N1        -2.0960   53.7460   11.8900 N.2   510  KT3510     -0.3102
@<TRIPOS>BOND
     1    34    33    2
     2    29    30    1
     3    29    28    1
     4    33    35    2
     5    33    30    1
     6    35    36    2
     7    30    31    1
     8    36    38    2
     9    36    37    1
    10    31    38    2
    11    31    32    1
    12    25    20    1
    13    27    28    1
    14    27    19    1
    15    23    21    1
    16    20    21    1
    17    20    19    1
    18    20    26    1
    19    24    21    1
    20    21    22    1
    21    19    18    1
    22    18    15   ar
    23    18    17   ar
    24    15    14   ar
    25    17    16   ar
    26    14    13   ar
    27    16    13   ar
    28    13    11    1
    29    11    10   am
    30    11    12    2
    31     9     7   ar
    32    10     6    1
    33     7     6    1
    34     7     8   ar
    35     6     5    1
    36     5     4    1
    37     4     2    1
    38     2     1   am
    39     2     3    2
