@<TRIPOS>MOLECULE
1rc4_NAP_A_1.pdb
 45 49 0 0 0
SMALL
GASTEIGER

@<TRIPOS>ATOM
      1  PA        19.0470   17.7630   25.9690 P.3   164  NAP164      0.2189
      2  O1A       17.9250   18.2470   25.1440 O.2   164  NAP164     -0.5170
      3  O2A       19.6210   18.5950   27.0640 O.3   164  NAP164     -0.4371
      4  O5B       18.8940   16.2820   26.5170 O.3   164  NAP164     -0.3112
      5  C5B       18.2500   15.2960   25.7100 C.3   164  NAP164      0.1813
      6  C4B       17.8700   14.0480   26.4730 C.3   164  NAP164      0.1820
      7  O4B       16.5180   14.3470   26.8810 O.3   164  NAP164     -0.3136
      8  C3B       17.5760   12.8190   25.6190 C.3   164  NAP164      0.2157
      9  O3B       18.7100   12.0130   25.5010 O.3   164  NAP164     -0.2175
     10  C2B       16.4780   12.0350   26.3490 C.3   164  NAP164      0.2314
     11  O2B       17.0940   11.5300   27.5090 O.3   164  NAP164     -0.2630
     12  C1B       15.7210   13.1940   26.9750 C.3   164  NAP164      0.3158
     13  N9A       14.6150   13.5910   26.1440 N.pl3 164  NAP164     -0.1439
     14  C8A       14.4680   14.6350   25.2840 C.3   164  NAP164      0.3377
     15  N7A       13.2690   14.6160   24.7410 N.2   164  NAP164     -0.2095
     16  C5A       12.6410   13.4960   25.2890 C.2   164  NAP164      0.2526
     17  C6A       11.3450   12.9070   25.1460 C.2   164  NAP164      0.4393
     18  N6A       10.3450   13.3710   24.3470 N.pl3 164  NAP164      0.2180
     19  N1A       11.1050   11.7770   25.8800 N.2   164  NAP164      0.0021
     20  C2A       12.0670   11.2930   26.6870 C.3   164  NAP164      0.5254
     21  N3A       13.2840   11.7540   26.8700 N.2   164  NAP164     -0.0055
     22  C4A       13.4830   12.8620   26.1490 C.2   164  NAP164      0.3518
     23  O3        20.2510   17.4270   25.0270 O.3   164  NAP164     -0.2703
     24  PN        20.7910   18.2940   23.7700 P.3   164  NAP164      0.2189
     25  O1N       20.8870   19.7600   24.0440 O.3   164  NAP164     -0.4371
     26  O2N       20.0300   17.8070   22.5920 O.2   164  NAP164     -0.5170
     27  O5D       22.2630   17.7660   23.9790 O.3   164  NAP164     -0.3112
     28  C5D       22.6650   17.0070   22.7780 C.3   164  NAP164      0.1813
     29  C4D       23.6980   16.3130   23.7380 C.3   164  NAP164      0.1799
     30  O4D       24.3880   15.6370   22.6360 O.3   164  NAP164     -0.3327
     31  C3D       25.0250   17.0330   24.1490 C.3   164  NAP164      0.2158
     32  O3D       25.9500   16.1380   24.6290 O.3   164  NAP164     -0.2175
     33  C2D       25.4460   17.6490   22.7760 C.3   164  NAP164      0.2309
     34  O2D       26.7480   18.0670   22.7410 O.3   164  NAP164     -0.2158
     35  C1D       25.3110   16.5130   21.9050 C.3   164  NAP164      0.2261
     36  N1N       24.9100   16.8930   20.4700 N.pl3 164  NAP164     -0.2833
     37  C2N       25.8790   17.2060   19.5170 C.2   164  NAP164      0.0584
     38  C3N       25.4590   17.6530   18.3440 C.2   164  NAP164     -0.0103
     39  C4N       23.9750   17.9700   17.9560 C.3   164  NAP164      0.0291
     40  C5N       23.0770   17.4300   19.0770 C.3   164  NAP164      0.0262
     41  C6N       23.6330   16.7240   19.9900 C.3   164  NAP164      0.0934
     42  P2B       17.3880    9.9570   27.6000 P.3   164  NAP164      0.5328
     43  O1X       17.8430    9.7660   29.0830 O.3   164  NAP164     -0.1145
     44  O2X       16.1960    9.1050   27.2040 O.3   164  NAP164     -0.1145
     45  O3X       18.5780    9.9130   26.6920 O.2   164  NAP164     -0.2224
@<TRIPOS>BOND
     1    39    38    1
     2    39    40    1
     3    38    37    2
     4    40    41    1
     5    37    36    1
     6    41    36    1
     7    36    35    1
     8    35    30    1
     9    35    33    1
    10    26    24    2
    11    30    29    1
    12    34    33    1
    13    33    31    1
    14    28    29    1
    15    28    27    1
    16    29    31    1
    17    24    27    1
    18    24    25    1
    19    24    23    1
    20    31    32    1
    21    18    17    1
    22    15    14    1
    23    15    16    2
    24    23     1    1
    25     2     1    2
    26    17    16    1
    27    17    19    2
    28    14    13    1
    29    16    22    1
    30     9     8    1
    31     8    10    1
    32     8     6    1
    33     5     6    1
    34     5     4    1
    35    19    20    1
    36     1     4    1
    37     1     3    1
    38    13    22    1
    39    13    12    1
    40    22    21    2
    41    10    12    1
    42    10    11    1
    43     6     7    1
    44    20    21    1
    45    45    42    2
    46     7    12    1
    47    44    42    1
    48    11    42    1
    49    42    43    1
