@<TRIPOS>MOLECULE
1rc4_DDF_A_1.pdb
 32 34 0 0 0
SMALL
GASTEIGER

@<TRIPOS>ATOM
      1  N1        19.8060   30.5720   29.1180 N.2   161  DDF161     -0.2739
      2  C2        20.5570   31.6460   29.3820 C.1   161  DDF161      0.2602
      3  NA2       20.1100   32.8540   29.3860 N.pl3 161  DDF161     -0.0221
      4  N3        21.9350   31.4840   29.6690 N.2   161  DDF161     -0.2529
      5  C4        22.5620   30.3020   29.7140 C.1   161  DDF161      0.2060
      6  O4        23.7650   30.2140   29.9720 O.2   161  DDF161     -0.2123
      7  C4A       21.7030   29.1530   29.4280 C.3   161  DDF161      0.2157
      8  C5        22.2800   27.8620   29.5770 C.3   161  DDF161      0.0360
      9  C6        21.2480   26.8510   29.6160 C.3   161  DDF161      0.0278
     10  C7        20.0530   27.1150   28.8760 C.3   161  DDF161      0.1370
     11  N8        19.4990   28.3300   29.0680 N.2   161  DDF161     -0.2122
     12  C8A       20.3920   29.3320   29.1420 C.1   161  DDF161      0.0888
     13  C9        21.1040   26.2630   30.9580 C.3   161  DDF161      0.0068
     14  C10       22.5030   26.1220   31.5810 C.3   161  DDF161      0.0264
     15  C11       22.8520   27.6850   35.5160 C.ar  161  DDF161      0.0550
     16  C12       23.9700   27.2450   34.8230 C.ar  161  DDF161      0.0042
     17  C13       23.8410   26.7470   33.5740 C.ar  161  DDF161     -0.0041
     18  C14       22.5580   26.6960   32.9830 C.ar  161  DDF161     -0.0222
     19  C15       21.4700   27.0970   33.6370 C.ar  161  DDF161     -0.0041
     20  C16       21.6420   27.6010   34.9230 C.ar  161  DDF161      0.0042
     21  C         22.8960   28.2010   36.8250 C.2   161  DDF161      0.2652
     22  O         23.7970   27.9530   37.6020 O.2   161  DDF161     -0.2684
     23  N         21.9230   28.9120   37.2510 N.am  161  DDF161     -0.1918
     24  CA        22.0230   29.4680   38.6110 C.3   161  DDF161      0.1986
     25  CB        22.8230   30.7520   38.4130 C.3   161  DDF161      0.0451
     26  CG        23.9700   31.0280   39.5050 C.3   161  DDF161      0.1164
     27  CD        24.3240   32.5210   39.3020 C.2   161  DDF161      0.3649
     28  OE1       25.2250   32.6390   38.4170 O.co2 161  DDF161     -0.2457
     29  OE2       23.6400   33.4560   39.7880 O.co2 161  DDF161     -0.2457
     30  CT        20.6320   29.7620   39.0630 C.2   161  DDF161      0.3842
     31  O1        19.8060   30.0410   38.2010 O.co2 161  DDF161     -0.2437
     32  O2        20.3720   29.6740   40.2950 O.co2 161  DDF161     -0.2437
@<TRIPOS>BOND
     1    10    11    1
     2    10     9    1
     3    11    12    2
     4     1    12    2
     5     1     2    2
     6    12     7    1
     7     2     3    1
     8     2     4    2
     9     7     8    1
    10     7     5    1
    11     8     9    1
    12     9    13    1
    13     4     5    2
    14     5     6    2
    15    13    14    1
    16    14    18    1
    17    18    17   ar
    18    18    19   ar
    19    17    16   ar
    20    19    20   ar
    21    16    15   ar
    22    20    15   ar
    23    15    21    1
    24    21    23   am
    25    21    22    2
    26    23    24    1
    27    31    30   ar
    28    25    24    1
    29    25    26    1
    30    28    27   ar
    31    24    30    1
    32    30    32   ar
    33    27    26    1
    34    27    29   ar
