@<TRIPOS>MOLECULE
1rc8_ADP_A_1.pdb
 17 17 0 0 0
SMALL
GASTEIGER

@<TRIPOS>ATOM
      1  PB        71.3340   84.3460   71.3240 P.3   900  ADP900      0.5373
      2  O1B       69.8500   84.2960   71.2610 O.3   900  ADP900     -0.1143
      3  O2B       71.8770   85.7160   70.6650 O.2   900  ADP900     -0.2221
      4  O3B       71.8130   84.2210   72.7320 O.3   900  ADP900     -0.1143
      5  PA        73.1610   82.2250   70.6890 P.3   900  ADP900      0.2231
      6  O1A       73.2870   81.9360   72.1160 O.3   900  ADP900     -0.4370
      7  O2A       72.9690   80.9820   69.9480 O.2   900  ADP900     -0.5169
      8  O3A       71.9530   83.1940   70.4530 O.3   900  ADP900     -0.2261
      9  O5'       74.4800   82.9260   70.1470 O.3   900  ADP900     -0.3111
     10  C5'       74.6190   84.2200   69.5280 C.3   900  ADP900      0.1812
     11  C4'       76.1460   84.4090   69.1980 C.3   900  ADP900      0.1780
     12  O4'       76.7600   83.1110   69.0430 O.3   900  ADP900     -0.3482
     13  C3'       76.4110   85.1470   67.8710 C.3   900  ADP900      0.2140
     14  O3'       77.4530   86.1330   67.9900 O.3   900  ADP900     -0.2176
     15  C2'       76.7410   84.0470   66.8580 C.3   900  ADP900      0.2140
     16  O2'       77.5080   84.4810   65.7190 O.3   900  ADP900     -0.2176
     17  C1'       77.3870   82.9800   67.7400 C.3   900  ADP900      0.1777
@<TRIPOS>BOND
     1    16    15    1
     2    15    17    1
     3    15    13    1
     4    17    12    1
     5    13    14    1
     6    13    11    1
     7    12    11    1
     8    11    10    1
     9    10     9    1
    10     7     5    2
    11     9     5    1
    12     8     5    1
    13     8     1    1
    14     3     1    2
    15     5     6    1
    16     2     1    1
    17     1     4    1
