@<TRIPOS>MOLECULE
1rca_CGP_A_2.pdb
 19 21 0 0 0
SMALL
GASTEIGER

@<TRIPOS>ATOM
      1  O5D       36.4450    7.6940    9.8520 O.3   160  CGP160     -0.2176
      2  C5D       36.7150    8.8230   10.7200 C.3   160  CGP160      0.2141
      3  C4D       37.1810    9.9470    9.8370 C.3   160  CGP160      0.1802
      4  O4D       35.9540   10.6120    9.4430 O.3   160  CGP160     -0.3346
      5  C3D       38.1350   11.0240   10.3040 C.3   160  CGP160      0.1858
      6  O3D       38.8640   11.4510    9.1310 O.3   160  CGP160     -0.2203
      7  C2D       37.2070   12.1690   10.6850 C.3   160  CGP160      0.0865
      8  C1D       36.0570   11.9880    9.7160 C.3   160  CGP160      0.1981
      9  N9G       34.7460   12.4180   10.2660 N.pl3 160  CGP160     -0.2374
     10  C8G       34.3940   12.5050   11.5930 C.3   160  CGP160      0.2245
     11  N7G       33.2190   13.0590   11.7390 N.2   160  CGP160     -0.2322
     12  C5G       32.8370   13.4280   10.4620 C.2   160  CGP160      0.2182
     13  C6G       31.6950   14.1450   10.0230 C.1   160  CGP160      0.2372
     14  O6G       30.8580   14.6550   10.7880 O.2   160  CGP160     -0.2069
     15  N1G       31.7200   14.4350    8.6480 N.2   160  CGP160     -0.2485
     16  C2G       32.7480   14.0240    7.8190 C.1   160  CGP160      0.2531
     17  N2G       32.5820   14.1870    6.5000 N.pl3 160  CGP160     -0.0226
     18  N3G       33.8930   13.5040    8.2550 N.2   160  CGP160     -0.3074
     19  C4G       33.7680   13.0330    9.5280 C.2   160  CGP160      0.2299
@<TRIPOS>BOND
     1    17    16    1
     2    16    18    2
     3    16    15    2
     4    18    19    2
     5    15    13    2
     6     6     5    1
     7     4     8    1
     8     4     3    1
     9    19     9    1
    10    19    12    1
    11     8     9    1
    12     8     7    1
    13     3     5    1
    14     3     2    1
    15     1     2    1
    16    13    12    1
    17    13    14    2
    18     9    10    1
    19     5     7    1
    20    12    11    2
    21    10    11    1
