@<TRIPOS>MOLECULE
1rcf_FMN_A_1.pdb
 50 52 0 0 0
SMALL
GASTEIGER

@<TRIPOS>ATOM
      1  N1        27.3660  -25.8810   49.0000 N.2   170  FMN170     -0.3029
      2  C2        27.8720  -26.5790   50.0470 C.1   170  FMN170      0.2727
      3  O2        27.3710  -26.5940   51.1390 O.2   170  FMN170     -0.1927
      4  N3        29.1230  -27.2380   49.9020 N.am  170  FMN170     -0.1956
      5  C4        29.8350  -27.2910   48.7710 C.2   170  FMN170      0.2930
      6  O4        30.9210  -27.8910   48.7290 O.2   170  FMN170     -0.2661
      7  C4A       29.2990  -26.5230   47.6610 C.2   170  FMN170      0.2295
      8  N5        29.9140  -26.5200   46.5070 N.2   170  FMN170     -0.3962
      9  C5A       29.2880  -25.9340   45.4620 C.2   170  FMN170      0.1228
     10  C6        29.8640  -26.0120   44.1470 C.2   170  FMN170     -0.0228
     11  C7        29.3690  -25.3640   43.0850 C.2   170  FMN170     -0.0450
     12  C7M       29.9280  -25.5160   41.6690 C.3   170  FMN170     -0.0394
     13  C8        28.0860  -24.7370   43.1960 C.2   170  FMN170     -0.0489
     14  C8M       27.4390  -24.1340   41.9830 C.3   170  FMN170     -0.0397
     15  C9        27.5410  -24.6070   44.4470 C.2   170  FMN170     -0.0478
     16  C9A       28.0900  -25.1870   45.5730 C.3   170  FMN170      0.1409
     17  N10       27.5460  -25.1020   46.8440 N.pl3 170  FMN170     -0.2812
     18  C10       28.0120  -25.8570   47.8620 C.2   170  FMN170      0.2319
     19  C1'       26.3020  -24.3580   47.0560 C.3   170  FMN170      0.0444
     20  C2'       26.6130  -22.8940   47.3040 C.3   170  FMN170      0.0992
     21  O2'       27.3280  -22.6830   48.5210 O.3   170  FMN170     -0.3876
     22  C3'       25.3030  -22.1010   47.4240 C.3   170  FMN170      0.1104
     23  O3'       24.6590  -22.0230   46.1130 O.3   170  FMN170     -0.3865
     24  C4'       25.4570  -20.7350   48.0130 C.3   170  FMN170      0.1073
     25  O4'       24.1500  -20.1690   48.2850 O.3   170  FMN170     -0.3868
     26  C5'       26.2320  -19.7700   47.1580 C.3   170  FMN170      0.0876
     27  O5'       26.4210  -18.5420   47.8800 O.3   170  FMN170     -0.2809
     28  P         26.8310  -17.2020   47.1540 P.3   170  FMN170      0.5320
     29  O1P       25.7350  -16.8650   46.1710 O.2   170  FMN170     -0.2224
     30  O2P       28.1860  -17.3860   46.5340 O.3   170  FMN170     -0.1145
     31  O3P       26.8300  -16.1460   48.3210 O.3   170  FMN170     -0.1145
     32  HN3       29.4470  -27.6330   50.5940 H     170  FMN170      0.1693
     33  H6        30.6200  -26.5410   44.0280 H     170  FMN170      0.0649
     34 HM71       29.6880  -24.7480   41.1460 H     170  FMN170      0.0278
     35 HM72       29.5610  -26.3060   41.2640 H     170  FMN170      0.0278
     36 HM73       30.8840  -25.5910   41.7090 H     170  FMN170      0.0278
     37 HM81       27.7100  -24.6200   41.2000 H     170  FMN170      0.0278
     38 HM82       27.7080  -23.2170   41.8990 H     170  FMN170      0.0278
     39 HM83       26.4840  -24.1800   42.0730 H     170  FMN170      0.0278
     40  H9        26.7640  -24.1050   44.5410 H     170  FMN170      0.0601
     41 H1'1       25.8270  -24.7260   47.8180 H     170  FMN170      0.0491
     42 H1'2       25.7330  -24.4440   46.2750 H     170  FMN170      0.0491
     43  H2'       27.1370  -22.5420   46.5550 H     170  FMN170      0.0636
     44 HO2'       27.5700  -23.4050   48.8240 H     170  FMN170      0.2100
     45  H3'       24.7060  -22.6080   48.0130 H     170  FMN170      0.0646
     46 HO3'       24.0130  -22.5260   46.0950 H     170  FMN170      0.2100
     47  H4'       25.9290  -20.8270   48.8670 H     170  FMN170      0.0643
     48 HO4'       23.7020  -20.1730   47.5980 H     170  FMN170      0.2100
     49 H5'1       27.0930  -20.1520   46.9280 H     170  FMN170      0.0592
     50 H5'2       25.7470  -19.5960   46.3360 H     170  FMN170      0.0592
@<TRIPOS>BOND
     1    34    12    1
     2    37    14    1
     3    35    12    1
     4    12    36    1
     5    12    11    1
     6    38    14    1
     7    14    39    1
     8    14    13    1
     9    11    13    1
    10    11    10    2
    11    13    15    2
    12    33    10    1
    13    10     9    1
    14    15    40    1
    15    15    16    1
    16     9    16    1
    17     9     8    2
    18    16    17    1
    19    46    23    1
    20    23    22    1
    21    29    28    2
    22    42    19    1
    23    50    26    1
    24     8     7    2
    25    30    28    1
    26    43    20    1
    27    17    19    1
    28    17    18    1
    29    49    26    1
    30    19    20    1
    31    19    41    1
    32    28    27    1
    33    28    31    1
    34    26    27    1
    35    26    24    1
    36    20    22    1
    37    20    21    1
    38    22    45    1
    39    22    24    1
    40    48    25    1
    41     7    18    1
    42     7     5    1
    43    18     1    2
    44    24    25    1
    45    24    47    1
    46    21    44    1
    47     6     5    2
    48     5     4   am
    49     1     2    2
    50     4     2   am
    51     4    32    1
    52     2     3    2
