@<TRIPOS>MOLECULE
1rcj_TBI_A_1.pdb
 20 20 0 0 0
SMALL
GASTEIGER

@<TRIPOS>ATOM
      1  C18       34.1370   62.5730   -0.4880 C.ar  501  TBI501      0.1193
      2  C19       34.4700   61.3090   -0.2390 C.ar  501  TBI501      0.1441
      3  N17       35.0730   61.2530    0.9480 N.ar  501  TBI501     -0.1271
      4  N16       35.1350   62.3790    1.4450 N.ar  501  TBI501     -0.0637
      5  N15       34.5480   63.2510    0.5810 N.ar  501  TBI501     -0.2284
      6  C14       34.4830   64.7090    0.7850 C.3   501  TBI501      0.1532
      7  C2        33.1520   65.2680    1.3100 C.3   501  TBI501      0.1615
      8  S1        33.3690   67.0730    1.5670 S.3   501  TBI501     -0.0173
      9  O12       33.9300   67.5160    0.2450 O.3   501  TBI501     -0.0781
     10  O13       34.4890   67.1620    2.5660 O.3   501  TBI501     -0.0781
     11  C20       32.0820   65.0530    0.2300 C.3   501  TBI501      0.0280
     12  C3        32.7510   64.5930    2.6340 C.3   501  TBI501      0.2269
     13  C9        31.4500   65.0740    3.2910 C.2   501  TBI501      0.3883
     14  O11       30.3870   64.5390    2.9810 O.co2 501  TBI501     -0.2434
     15  O10       31.4650   65.9210    4.1860 O.co2 501  TBI501     -0.2434
     16  N4        33.8200   64.6620    3.6480 N.2   501  TBI501     -0.2618
     17  C5        33.9270   63.7570    4.6240 C.2   501  TBI501      0.0757
     18  C6        33.1950   62.5900    4.8290 C.3   501  TBI501      0.1186
     19  C7        33.5990   61.6440    5.7650 C.2   501  TBI501      0.2138
     20  O8        34.5510   61.8570    6.5160 O.2   501  TBI501     -0.2879
@<TRIPOS>BOND
     1     1     2   ar
     2     1     5   ar
     3     2     3   ar
     4    11     7    1
     5     9     8    1
     6     5     6    1
     7     5     4   ar
     8     6     7    1
     9     3     4   ar
    10     7     8    1
    11     7    12    1
    12     8    10    1
    13    12    13    1
    14    12    16    1
    15    14    13   ar
    16    13    15   ar
    17    16    17    2
    18    17    18    1
    19    18    19    1
    20    19    20    2
