@<TRIPOS>MOLECULE
1rcj_MA4_A_1.pdb
 35 37 0 0 0
SMALL
GASTEIGER

@<TRIPOS>ATOM
      1  C1        60.6650   52.8300    2.0800 C.3   400  MA4400      0.2695
      2  C2        61.1950   52.1340    0.8030 C.3   400  MA4400      0.2406
      3  C3        60.8150   50.6540    0.7900 C.3   400  MA4400      0.2198
      4  C4        61.2700   49.9760    2.0620 C.3   400  MA4400      0.2144
      5  C5        60.7230   50.7540    3.3000 C.3   400  MA4400      0.1835
      6  C6        61.1720   50.1790    4.4890 C.3   400  MA4400      0.2142
      7  O2        60.6510   52.8120   -0.3640 O.3   400  MA4400     -0.2149
      8  O3        61.4290   50.0950   -0.4010 O.3   400  MA4400     -0.2174
      9  O5        61.1330   52.1240    3.2620 O.3   400  MA4400     -0.3256
     10  O6        62.6010   50.2780    4.6200 O.3   400  MA4400     -0.2176
     11  O1        59.2550   52.8050    2.0380 O.3   400  MA4400     -0.3257
     12  O4        60.7890   48.6460    2.1080 O.3   400  MA4400     -0.2176
     13  C10       55.9520   55.2010    2.5970 C.3   400  MA4400      0.2695
     14  C20       56.7620   55.5150    1.3330 C.3   400  MA4400      0.2404
     15  C30       57.6000   54.2590    1.0670 C.3   400  MA4400      0.2167
     16  C40       58.4790   54.0140    2.2770 C.3   400  MA4400      0.1804
     17  C50       57.6660   53.8050    3.5110 C.3   400  MA4400      0.1803
     18  C60       58.4950   53.6210    4.7880 C.3   400  MA4400      0.2141
     19  O10       55.1500   56.3110    2.9070 O.3   400  MA4400     -0.3286
     20  O20       55.9140   55.7760    0.2410 O.3   400  MA4400     -0.2149
     21  O30       58.4030   54.4850   -0.0850 O.3   400  MA4400     -0.2175
     22  O50       56.8250   54.9450    3.7210 O.3   400  MA4400     -0.3257
     23  O60       59.3960   54.7730    4.9080 O.3   400  MA4400     -0.2176
     24  C11       54.1290   55.9980    3.8830 C.3   400  MA4400      0.1449
     25  C21       52.8320   55.8340    3.1450 C.3   400  MA4400      0.0325
     26  C31       51.8190   55.5010    4.2300 C.3   400  MA4400      0.0072
     27  C41       50.4290   55.5760    3.6270 C.3   400  MA4400      0.0258
     28  C51       49.3280   55.3980    4.6270 C.2   400  MA4400     -0.0301
     29  C61       49.4480   54.4810    5.7860 C.2   400  MA4400     -0.0223
     30  C12       48.2400   54.4180    6.6850 C.3   400  MA4400      0.0648
     31  C22       48.4260   55.3930    7.8720 C.2   400  MA4400     -0.0219
     32  C32       47.7090   55.0270    9.1940 C.2   400  MA4400     -0.0254
     33  C42       46.7670   53.8470    9.1410 C.3   400  MA4400      0.0514
     34  C52       47.3940   52.6670    8.4180 C.2   400  MA4400     -0.0254
     35  C62       48.0010   52.9690    7.0560 C.2   400  MA4400     -0.0219
@<TRIPOS>BOND
     1     8     3    1
     2     7     2    1
     3    21    15    1
     4    20    14    1
     5     3     2    1
     6     3     4    1
     7     2     1    1
     8    15    14    1
     9    15    16    1
    10    14    13    1
    11    11     1    1
    12    11    16    1
    13     4    12    1
    14     4     5    1
    15     1     9    1
    16    16    17    1
    17    13    19    1
    18    13    22    1
    19    19    24    1
    20    25    24    1
    21    25    26    1
    22     9     5    1
    23     5     6    1
    24    17    22    1
    25    17    18    1
    26    27    26    1
    27    27    28    1
    28     6    10    1
    29    28    29    2
    30    18    23    1
    31    29    30    1
    32    30    35    1
    33    30    31    1
    34    35    34    2
    35    31    32    2
    36    34    33    1
    37    33    32    1
