@<TRIPOS>MOLECULE
1rco_XDP_B_1.pdb
 19 18 0 0 0
SMALL
GASTEIGER

@<TRIPOS>ATOM
      1  C1       -89.4820   47.5730   45.1600 C.3   476  XDP476      0.2475
      2  C2       -89.3730   48.2360   43.7870 C.3   476  XDP476      0.4084
      3  C3       -88.9640   47.3560   42.6430 C.3   476  XDP476      0.2704
      4  C4       -89.6760   46.0710   42.5020 C.3   476  XDP476      0.2199
      5  C5       -89.4440   45.5740   41.0860 C.3   476  XDP476      0.1894
      6  O1       -89.6280   48.4940   46.1920 O.3   476  XDP476     -0.2619
      7  O21      -90.5760   48.8000   43.4400 O.2   476  XDP476     -0.2697
      8  O22      -88.4660   49.2870   43.8140 O.2   476  XDP476     -0.2697
      9  O3       -87.5730   47.1780   42.7590 O.3   476  XDP476     -0.2120
     10  O4       -89.2160   45.0450   43.2890 O.3   476  XDP476     -0.2174
     11  O5       -90.3110   44.5180   40.7140 O.3   476  XDP476     -0.2674
     12  P1       -90.4190   48.2340   47.5540 P.3   476  XDP476      0.5328
     13  P2       -89.9770   42.9870   40.4540 P.3   476  XDP476      0.5327
     14  O1P      -90.4050   49.4340   48.4430 O.3   476  XDP476     -0.1145
     15  O2P      -89.6150   47.1400   48.2890 O.3   476  XDP476     -0.1145
     16  O3P      -91.7160   47.6430   47.2000 O.2   476  XDP476     -0.2224
     17  O4P      -91.3000   42.3560   40.2540 O.3   476  XDP476     -0.1145
     18  O5P      -89.3470   42.5390   41.7560 O.3   476  XDP476     -0.1145
     19  O6P      -89.0050   43.0410   39.3590 O.2   476  XDP476     -0.2224
@<TRIPOS>BOND
     1    19    13    2
     2    17    13    1
     3    13    11    1
     4    13    18    1
     5    11     5    1
     6     5     4    1
     7     4     3    1
     8     4    10    1
     9     3     9    1
    10     3     2    1
    11     7     2    1
    12     2     8    1
    13     2     1    1
    14     1     6    1
    15     6    12    1
    16    16    12    2
    17    12    15    1
    18    12    14    1
