@<TRIPOS>MOLECULE
1rcp_HEM_A_1.pdb
 47 54 0 0 0
SMALL
GASTEIGER

@<TRIPOS>ATOM
      1 FE         27.1600   17.5030   28.0550 Fe    130  HEM130      0.0000
      2  CHA       24.4680   16.9690   26.1460 C.2   130  HEM130      0.0000
      3  CHB       27.2750   20.7630   27.0500 C.2   130  HEM130      0.0000
      4  CHC       29.4110   18.1970   30.4090 C.2   130  HEM130      0.0000
      5  CHD       26.8210   14.3080   29.3370 C.2   130  HEM130      0.0000
      6  NA        26.1160   18.5950   26.9230 N.ar  130  HEM130      0.0000
      7  C1A       25.0160   18.2170   26.1690 C.ar  130  HEM130      0.0000
      8  C2A       24.5530   19.3000   25.3380 C.ar  130  HEM130      0.0000
      9  C3A       25.3280   20.3760   25.5880 C.ar  130  HEM130      0.0000
     10  C4A       26.3040   19.9290   26.5740 C.ar  130  HEM130      0.0000
     11  CMA       25.2770   21.7650   24.9230 C.3   130  HEM130      0.0000
     12  CAA       23.4120   19.2540   24.3320 C.3   130  HEM130      0.0000
     13  CBA       22.1940   19.9070   24.9410 C.3   130  HEM130      0.0000
     14  CGA       21.0720   20.0390   23.9390 C.2   130  HEM130      0.0000
     15  O1A       21.0240   21.0750   23.2420 O.co2 130  HEM130      0.0000
     16  O2A       20.2540   19.0980   23.8300 O.co2 130  HEM130      0.0000
     17  NB        28.0430   19.1590   28.6500 N.2   130  HEM130      0.0000
     18  C1B       28.0740   20.3980   28.0680 C.2   130  HEM130      0.0000
     19  C2B       29.1100   21.2240   28.5950 C.2   130  HEM130      0.0000
     20  C3B       29.7130   20.5170   29.5630 C.2   130  HEM130      0.0000
     21  C4B       29.0230   19.2450   29.6080 C.2   130  HEM130      0.0000
     22  CMB       29.4940   22.5940   28.0380 C.3   130  HEM130      0.0000
     23  CAB       30.9380   20.8780   30.3850 C.3   130  HEM130      0.0000
     24  CBB       30.7660   22.0670   31.2580 C.3   130  HEM130      0.0000
     25  NC        27.9470   16.4480   29.5050 N.ar  130  HEM130      0.0000
     26  C1C       28.9300   16.8960   30.3840 C.ar  130  HEM130      0.0000
     27  C2C       29.3060   15.8700   31.3510 C.ar  130  HEM130      0.0000
     28  C3C       28.6010   14.7470   30.9970 C.ar  130  HEM130      0.0000
     29  C4C       27.7710   15.1270   29.8810 C.ar  130  HEM130      0.0000
     30  CMC       30.2090   16.1310   32.5610 C.3   130  HEM130      0.0000
     31  CAC       28.7230   13.2930   31.4620 C.3   130  HEM130      0.0000
     32  CBC       29.1600   13.1030   32.9020 C.3   130  HEM130      0.0000
     33  ND        25.9700   15.9900   27.7690 N.2   130  HEM130      0.0000
     34  C1D       25.9890   14.7190   28.3290 C.2   130  HEM130      0.0000
     35  C2D       24.9950   13.8330   27.7510 C.2   130  HEM130      0.0000
     36  C3D       24.3090   14.5900   26.8790 C.2   130  HEM130      0.0000
     37  C4D       24.9110   15.9180   26.8890 C.2   130  HEM130      0.0000
     38  CMD       24.7530   12.3540   28.1050 C.3   130  HEM130      0.0000
     39  CAD       23.1130   14.1500   26.0840 C.3   130  HEM130      0.0000
     40  CBD       21.8500   14.6790   26.7370 C.3   130  HEM130      0.0000
     41  CGD       20.5800   14.3520   25.9480 C.2   130  HEM130      0.0000
     42  O1D       20.5600   14.5140   24.7140 O.co2 130  HEM130      0.0000
     43  O2D       19.5820   13.9450   26.5750 O.co2 130  HEM130      0.0000
     44  HHA       23.6690   16.7690   25.4340 H     130  HEM130      0.0000
     45  HHB       27.4310   21.7200   26.5560 H     130  HEM130      0.0000
     46  HHC       30.1320   18.4300   31.1890 H     130  HEM130      0.0000
     47  HHD       26.6040   13.3540   29.8120 H     130  HEM130      0.0000
@<TRIPOS>BOND
     1    15    14   ar
     2    16    14   ar
     3    14    13    1
     4    12    13    1
     5    12     8    1
     6    42    41   ar
     7    11     9    1
     8     8     9   ar
     9     8     7   ar
    10    44     2    1
    11     9    10   ar
    12    41    43   ar
    13    41    40    1
    14    39    40    1
    15    39    36    1
    16     2     7    2
    17     2    37    1
    18     7     6   ar
    19    45     3    1
    20    10     6   ar
    21    10     3    2
    22    36    37    1
    23    36    35    2
    24    37    33    2
    25     6     1    1
    26     3    18    1
    27    35    38    1
    28    35    34    1
    29    33     1    1
    30    33    34    1
    31    22    19    1
    32     1    17    1
    33     1    25    1
    34    18    19    1
    35    18    17    2
    36    34     5    2
    37    19    20    2
    38    17    21    1
    39     5    47    1
    40     5    29    1
    41    25    29   ar
    42    25    26   ar
    43    20    21    1
    44    20    23    1
    45    21     4    2
    46    29    28   ar
    47    26     4    1
    48    26    27   ar
    49    23    24    1
    50     4    46    1
    51    28    27   ar
    52    28    31    1
    53    27    30    1
    54    31    32    1
