@<TRIPOS>MOLECULE
1rcq_PLP_A_1.pdb
 15 15 0 0 0
SMALL
GASTEIGER

@<TRIPOS>ATOM
      1  N1         5.8210   25.8520   17.4660 N.ar  358  PLP358     -0.2452
      2  C2         5.8540   25.3060   16.2290 C.ar  358  PLP358      0.0978
      3  C2A        5.8580   23.7890   16.0420 C.3   358  PLP358      0.0555
      4  C3         5.8590   26.1390   15.1330 C.ar  358  PLP358      0.2049
      5  O3         5.8650   25.5410   13.9160 O.3   358  PLP358     -0.2857
      6  C4         5.8690   27.5020   15.2750 C.ar  358  PLP358      0.0182
      7  C4A        5.9380   28.4720   14.0880 C.3   358  PLP358      0.0342
      8  C5         5.8040   28.0580   16.5660 C.ar  358  PLP358      0.0261
      9  C6         5.8130   27.2000   17.6440 C.ar  358  PLP358      0.0965
     10  C5A        5.6550   29.5400   16.8560 C.3   358  PLP358      0.1815
     11  O4P        4.2990   29.9000   16.6570 O.3   358  PLP358     -0.2653
     12  P          3.5750   31.2440   17.0150 P.3   358  PLP358      0.5329
     13  O1P        4.1090   32.2900   16.1040 O.2   358  PLP358     -0.2224
     14  O2P        2.1360   30.9330   16.7640 O.3   358  PLP358     -0.1145
     15  O3P        3.9090   31.5220   18.4460 O.3   358  PLP358     -0.1145
@<TRIPOS>BOND
     1     5     4    1
     2     7     6    1
     3     4     6   ar
     4     4     2   ar
     5     6     8   ar
     6     3     2    1
     7    13    12    2
     8     2     1   ar
     9     8    10    1
    10     8     9   ar
    11    11    10    1
    12    11    12    1
    13    14    12    1
    14    12    15    1
    15     1     9   ar
