@<TRIPOS>MOLECULE
1rcq_DLY_A_1.pdb
 10 9 0 0 0
SMALL
GASTEIGER

@<TRIPOS>ATOM
      1  N          3.6440   26.6320   12.3690 N.3   359  DLY359     -0.1159
      2  CA         4.1360   27.2510   11.1360 C.3   359  DLY359      0.2160
      3  C          4.9770   26.3050   10.2740 C.2   359  DLY359      0.3860
      4  O          5.9500   25.7650   10.8460 O.co2 359  DLY359     -0.2437
      5  CB         2.9590   27.8010   10.4430 C.2   359  DLY359     -0.0007
      6  CG         2.4420   29.1250   10.4380 C.2   359  DLY359     -0.0272
      7  CD         2.9580   30.0940   11.4930 C.3   359  DLY359      0.0462
      8  CE         2.7150   29.6270   12.9150 C.3   359  DLY359      0.1140
      9  NZ         3.9510   29.0410   13.5340 N.3   359  DLY359     -0.1310
     10  OXT        4.7470   26.1300    9.0590 O.co2 359  DLY359     -0.2437
@<TRIPOS>BOND
     1    10     3   ar
     2     3     4   ar
     3     3     2    1
     4     6     5    2
     5     6     7    1
     6     5     2    1
     7     2     1    1
     8     7     8    1
     9     8     9    1
