@<TRIPOS>MOLECULE
1rcs_TRP_A_1.pdb
 27 28 0 0 0
SMALL
GASTEIGER

@<TRIPOS>ATOM
      1  N         19.1560   10.4860    7.4470 N.4   898  TRP898      0.3873
      2  CA        19.2290    9.8780    6.0770 C.3   898  TRP898      0.0246
      3  C         18.1370   10.5340    5.1760 C.2   898  TRP898      0.3423
      4  O         18.4980   11.1810    4.2050 O.co2 898  TRP898     -0.2482
      5  CB        19.0210    8.3460    6.1920 C.3   898  TRP898     -0.0286
      6  CG        19.3920    7.5660    4.9470 C.ar  898  TRP898     -0.0234
      7  CD1       19.1500    6.2430    4.8400 C.ar  898  TRP898      0.0059
      8  CD2       20.0470    7.9620    3.6770 C.ar  898  TRP898      0.0028
      9  NE1       19.5860    5.7940    3.6110 N.ar  898  TRP898     -0.3604
     10  CE2       20.1420    6.8070    2.8590 C.ar  898  TRP898      0.0467
     11  CE3       20.5520    9.1780    3.1450 C.ar  898  TRP898     -0.0523
     12  CZ2       20.7120    6.8550    1.5900 C.ar  898  TRP898     -0.0378
     13  CZ3       21.1180    9.2180    1.8730 C.ar  898  TRP898     -0.0611
     14  CH2       21.1970    8.0590    1.0970 C.ar  898  TRP898     -0.0598
     15  OXT       16.9580   10.4040    5.4910 O.co2 898  TRP898     -0.2482
     16  H1        19.3200   11.5110    7.3820 H     898  TRP898     -0.0889
     17  H2        18.2150   10.3110    7.8590 H     898  TRP898     -0.0889
     18  H3        19.8860   10.0640    8.0580 H     898  TRP898     -0.0889
     19  HA        20.2180   10.0650    5.6740 H     898  TRP898      0.0201
     20  HB2       19.6360    7.9910    6.9880 H     898  TRP898      0.0303
     21  HB3       17.9840    8.1410    6.4380 H     898  TRP898      0.0303
     22  HD1       18.6810    5.6350    5.6050 H     898  TRP898      0.0810
     23  HE1       19.5180    4.8690    3.2920 H     898  TRP898      0.1653
     24  HE3       20.5130   10.0810    3.7120 H     898  TRP898      0.0624
     25  HZ2       20.7770    5.9640    0.9870 H     898  TRP898      0.0638
     26  HZ3       21.4990   10.1580    1.4900 H     898  TRP898      0.0618
     27  HH2       21.6290    8.0980    0.1120 H     898  TRP898      0.0618
@<TRIPOS>BOND
     1    27    14    1
     2    25    12    1
     3    14    12   ar
     4    14    13   ar
     5    26    13    1
     6    12    10   ar
     7    13    11   ar
     8    10     9   ar
     9    10     8   ar
    10    11     8   ar
    11    11    24    1
    12    23     9    1
    13     9     7   ar
    14     8     6   ar
    15     4     3   ar
    16     7     6   ar
    17     7    22    1
    18     6     5    1
    19     3    15   ar
    20     3     2    1
    21    19     2    1
    22     2     5    1
    23     2     1    1
    24     5    21    1
    25     5    20    1
    26    16     1    1
    27     1    17    1
    28     1    18    1
