@<TRIPOS>MOLECULE
1rct_NOS_E_1.pdb
 19 21 0 0 0
SMALL
GASTEIGER

@<TRIPOS>ATOM
      1  N9        53.2200  129.0410   54.3500 N.pl3 290  NOS290     -0.1435
      2  C4        54.5090  129.1820   53.9060 C.2   290  NOS290      0.3528
      3  N3        55.6640  128.6920   54.4100 N.2   290  NOS290     -0.0334
      4  C2        56.7240  129.0810   53.6980 C.3   290  NOS290      0.4017
      5  N1        56.6530  129.8810   52.6030 N.2   290  NOS290     -0.1458
      6  C6        55.4820  130.3910   52.0650 C.1   290  NOS290      0.1792
      7  O6        55.5160  131.1270   51.0610 O.2   290  NOS290     -0.2203
      8  C5        54.3540  129.9890   52.7940 C.2   290  NOS290      0.2446
      9  N7        53.0480  130.2960   52.5700 N.2   290  NOS290     -0.2054
     10  C8        52.3350  129.6940   53.5520 C.3   290  NOS290      0.3382
     11  C5'       51.7020  130.7220   58.0870 C.3   290  NOS290      0.2143
     12  O5'       50.3950  131.1490   57.6330 O.3   290  NOS290     -0.2176
     13  C4'       51.8540  129.2610   57.7020 C.3   290  NOS290      0.1851
     14  O4'       51.7360  129.2090   56.2420 O.3   290  NOS290     -0.3134
     15  C1'       52.6820  128.2780   55.5970 C.3   290  NOS290      0.3186
     16  C2'       53.6600  127.8830   56.7850 C.3   290  NOS290      0.2570
     17  O2'       53.6500  126.4150   56.9980 O.3   290  NOS290     -0.2130
     18  C3'       53.1870  128.6590   58.1130 C.3   290  NOS290      0.2186
     19  O3'       53.0070  127.7600   59.2920 O.3   290  NOS290     -0.2174
@<TRIPOS>BOND
     1     7     6    2
     2     6     5    2
     3     6     8    1
     4     9     8    2
     5     9    10    1
     6     5     4    1
     7     8     2    1
     8    10     1    1
     9     4     3    1
    10     2     1    1
    11     2     3    2
    12     1    15    1
    13    15    14    1
    14    15    16    1
    15    14    13    1
    16    16    17    1
    17    16    18    1
    18    12    11    1
    19    13    11    1
    20    13    18    1
    21    18    19    1
