@<TRIPOS>MOLECULE
1rcv_BV1_D_1.pdb
 24 25 0 0 0
SMALL
GASTEIGER

@<TRIPOS>ATOM
      1  N9       -13.3540  -17.4620   -3.3890 N.am  104  BV1104     -0.0837
      2  C38      -12.8740  -18.4750   -2.6780 C.2   104  BV1104      0.2843
      3  O12      -12.6020  -19.5690   -3.1680 O.2   104  BV1104     -0.2667
      4  C39      -12.8720  -18.2610   -1.1540 C.ar  104  BV1104      0.0613
      5  C44      -12.5080  -19.3010   -0.2990 C.ar  104  BV1104      0.0417
      6  C40      -13.2270  -17.0200   -0.6280 C.ar  104  BV1104      0.0289
      7  C41      -13.2000  -16.8090    0.7450 C.ar  104  BV1104      0.1460
      8  N10      -13.4950  -15.6200    1.2910 N.pl3 104  BV1104      0.0578
      9  O15      -13.6000  -14.5220    0.3940 O.2   104  BV1104     -0.1261
     10  O14      -12.8850  -15.3290    2.6040 O.2   104  BV1104     -0.1261
     11  C42      -12.8150  -17.8450    1.5790 C.ar  104  BV1104      0.0610
     12  C43      -12.4570  -19.0870    1.0760 C.ar  104  BV1104      0.1432
     13  O13      -12.1320  -20.0760    1.9520 O.3   104  BV1104     -0.4504
     14  C45      -10.7580  -20.3530    2.0410 C.3   104  BV1104      0.3218
     15  O16      -10.0970  -19.1920    2.5900 O.3   104  BV1104     -0.3157
     16  C46      -10.5140  -18.8730    3.9000 C.3   104  BV1104      0.1846
     17  C50       -9.6960  -17.5950    4.2320 C.3   104  BV1104      0.2142
     18  O20      -10.0400  -16.5230    3.3350 O.3   104  BV1104     -0.2176
     19  C47      -10.3060  -20.0420    4.8540 C.3   104  BV1104      0.2145
     20  O17       -8.9110  -20.3710    4.9970 O.3   104  BV1104     -0.2176
     21  C48      -11.0510  -21.2970    4.3560 C.3   104  BV1104      0.2211
     22  O18      -10.7290  -22.3890    5.1880 O.3   104  BV1104     -0.2173
     23  C49      -10.6420  -21.6010    2.9040 C.3   104  BV1104      0.2542
     24  O19      -11.4820  -22.6430    2.3670 O.3   104  BV1104     -0.2135
@<TRIPOS>BOND
     1     1     2   am
     2     3     2    2
     3     2     4    1
     4     4     6   ar
     5     4     5   ar
     6     6     7   ar
     7     5    12   ar
     8     9     8    2
     9     7     8    1
    10     7    11   ar
    11    12    11   ar
    12    12    13    1
    13     8    10    2
    14    13    14    1
    15    14    15    1
    16    14    23    1
    17    24    23    1
    18    15    16    1
    19    23    21    1
    20    18    17    1
    21    16    17    1
    22    16    19    1
    23    21    19    1
    24    21    22    1
    25    19    20    1
