@<TRIPOS>MOLECULE
1rcx_RUB_B_1.pdb
 18 17 0 0 0
SMALL
GASTEIGER

@<TRIPOS>ATOM
      1  C1       -88.6900   46.7080   45.0160 C.3   476  RUB476      0.2203
      2  C2       -88.2210   47.1350   43.6650 C.2   476  RUB476      0.2137
      3  C3       -87.1030   46.2250   43.0210 C.3   476  RUB476      0.2438
      4  C4       -87.4600   45.6320   41.6240 C.3   476  RUB476      0.2194
      5  C5       -88.4850   44.4510   41.6250 C.3   476  RUB476      0.1896
      6  O1       -88.8450   47.6910   46.0260 O.3   476  RUB476     -0.2621
      7  O2       -88.6160   48.1880   43.1390 O.2   476  RUB476     -0.2906
      8  O3       -85.9170   46.9970   42.8710 O.3   476  RUB476     -0.2122
      9  O4       -87.9310   46.6420   40.8060 O.3   476  RUB476     -0.2172
     10  O5       -89.0980   44.0300   40.3440 O.3   476  RUB476     -0.2674
     11  P1       -90.0450   47.6040   47.1440 P.3   476  RUB476      0.5330
     12  P2       -88.9900   42.4470   39.7640 P.3   476  RUB476      0.5327
     13  O1P      -90.0290   48.8340   47.9510 O.3   476  RUB476     -0.1145
     14  O2P      -89.5730   46.4100   48.0870 O.3   476  RUB476     -0.1145
     15  O3P      -91.2900   47.1940   46.4710 O.2   476  RUB476     -0.2224
     16  O4P      -90.3560   42.0700   39.2280 O.3   476  RUB476     -0.1145
     17  O5P      -88.6670   41.5720   41.1260 O.3   476  RUB476     -0.1145
     18  O6P      -87.7960   42.3700   38.8020 O.2   476  RUB476     -0.2224
@<TRIPOS>BOND
     1    18    12    2
     2    16    12    1
     3    12    10    1
     4    12    17    1
     5    10     5    1
     6     9     4    1
     7     4     5    1
     8     4     3    1
     9     8     3    1
    10     3     2    1
    11     7     2    2
    12     2     1    1
    13     1     6    1
    14     6    11    1
    15    15    11    2
    16    11    13    1
    17    11    14    1
