@<TRIPOS>MOLECULE
1rd4_L08_A_1.pdb
 34 37 0 0 0
SMALL
GASTEIGER

@<TRIPOS>ATOM
      1  O4         1.2900   -2.5970   -7.0520 O.2   328  L08328     -0.1261
      2  N3         2.1560   -3.3810   -6.6930 N.pl3 328  L08328      0.0582
      3  C11        2.0490   -4.7930   -6.9190 C.ar  328  L08328      0.1488
      4  C10        3.2290   -5.6870   -6.8610 C.ar  328  L08328      0.0520
      5  C15        3.0290   -7.1400   -7.1060 C.ar  328  L08328      0.0081
      6  C14        1.7440   -7.6970   -7.3920 C.ar  328  L08328      0.0006
      7  C13        0.5420   -6.8510   -7.4620 C.ar  328  L08328      0.0018
      8  C12        0.7080   -5.4240   -7.2260 C.ar  328  L08328      0.0246
      9  C16       -0.8090   -7.4930   -7.7630 C.ar  328  L08328      0.0044
     10  C8        -1.8870   -6.8010   -8.4730 C.ar  328  L08328      0.0208
     11  C35       -3.1120   -7.5340   -8.6790 C.ar  328  L08328      0.1003
     12  N20       -3.2810   -8.8940   -8.2060 N.ar  328  L08328     -0.2292
     13  C18       -2.3550   -9.5520   -7.5700 C.ar  328  L08328      0.1318
     14  N1        -2.5200  -10.9030   -7.0870 N.pl3 328  L08328     -0.2897
     15  C19       -3.3020  -10.9870   -5.8640 C.3   328  L08328      0.1137
     16  C20       -4.4140  -11.9630   -6.0920 C.3   328  L08328      0.1149
     17  N2        -3.8490  -13.2460   -6.6620 N.am  328  L08328     -0.2760
     18  C21       -3.0620  -13.1090   -7.9650 C.3   328  L08328      0.1149
     19  C22       -1.8990  -12.0360   -7.7940 C.3   328  L08328      0.1137
     20  C23       -4.8970  -14.1930   -6.8720 C.2   328  L08328      0.2262
     21  O2        -4.8900  -15.3210   -6.2920 O.2   328  L08328     -0.2749
     22  C24       -6.0830  -13.8610   -7.8060 C.3   328  L08328      0.0948
     23  C17       -1.0190   -8.8550   -7.3070 C.ar  328  L08328      0.0343
     24  S1         4.8690   -4.9790   -6.4930 S.3   328  L08328     -0.0822
     25  C1         5.7700   -6.2980   -5.7880 C.ar  328  L08328      0.0634
     26  C2         6.4440   -7.2730   -6.6970 C.ar  328  L08328      0.1444
     27  C3         7.2100   -8.3940   -6.0690 C.ar  328  L08328      0.0374
     28  C4         7.2680   -8.4940   -4.5780 C.ar  328  L08328      0.0031
     29  C5         6.5730   -7.4950   -3.7130 C.ar  328  L08328      0.0007
     30  C6         5.8320   -6.4070   -4.3180 C.ar  328  L08328      0.0095
     31  O7         6.3070   -7.0690   -8.1490 O.3   328  L08328     -0.4750
     32  C9         6.3690   -8.2120   -9.1060 C.3   328  L08328      0.2055
     33  C33        5.8060   -7.7280  -10.4700 C.3   328  L08328      0.0512
     34  O3         3.1160   -2.8290   -6.1130 O.2   328  L08328     -0.1261
@<TRIPOS>BOND
     1    33    32    1
     2    32    31    1
     3    11    10   ar
     4    11    12   ar
     5    10     9   ar
     6    12    13   ar
     7    31    26    1
     8    18    19    1
     9    18    17    1
    10    22    20    1
    11    19    14    1
    12     9     7    1
    13     9    23   ar
    14    13    23   ar
    15    13    14    1
    16     7     6   ar
    17     7     8   ar
    18     6     5   ar
    19     8     3   ar
    20     5     4   ar
    21    14    15    1
    22     1     2    2
    23     3     4   ar
    24     3     2    1
    25    20    17   am
    26    20    21    2
    27     4    24    1
    28    26    27   ar
    29    26    25   ar
    30     2    34    2
    31    17    16    1
    32    24    25    1
    33    16    15    1
    34    27    28   ar
    35    25    30   ar
    36    28    29   ar
    37    30    29   ar
