@<TRIPOS>MOLECULE
1rd7_FOL_A_1.pdb
 32 34 0 0 0
SMALL
GASTEIGER

@<TRIPOS>ATOM
      1  N1        15.3710   48.0340   73.1600 N.2   161  FOL161     -0.2672
      2  C2        15.4850   48.7590   74.3320 C.1   161  FOL161      0.2609
      3  NA2       14.5870   49.6720   74.7390 N.pl3 161  FOL161     -0.0220
      4  N3        16.5800   48.5420   75.1630 N.2   161  FOL161     -0.2466
      5  C4        17.5380   47.6470   74.8530 C.1   161  FOL161      0.2569
      6  O4        18.5890   47.4120   75.6030 O.2   161  FOL161     -0.2052
      7  C4A       17.3700   46.9080   73.5680 C.2   161  FOL161      0.2988
      8  N5        18.3310   45.8560   73.3040 N.2   161  FOL161     -0.3839
      9  C6        17.9550   45.1650   72.2010 C.2   161  FOL161      0.1356
     10  C7        16.7490   45.5920   71.5290 C.3   161  FOL161      0.1931
     11  N8        16.0240   46.4860   71.8270 N.2   161  FOL161     -0.1992
     12  C8A       16.3320   47.1460   72.8480 C.1   161  FOL161      0.1401
     13  C9        18.8390   43.9510   71.7110 C.3   161  FOL161      0.1683
     14  N10       19.9120   43.5700   72.7540 N.pl3 161  FOL161     -0.2303
     15  C11       19.0550   41.7840   76.3300 C.ar  161  FOL161      0.0551
     16  C12       20.3070   42.0520   75.9850 C.ar  161  FOL161      0.0059
     17  C13       20.5590   42.6090   74.8730 C.ar  161  FOL161      0.0162
     18  C14       19.4850   42.9470   73.9860 C.ar  161  FOL161      0.0658
     19  C15       18.1980   42.7040   74.2620 C.ar  161  FOL161      0.0162
     20  C16       17.9780   42.1200   75.4430 C.ar  161  FOL161      0.0059
     21  C         18.7970   41.1920   77.5380 C.2   161  FOL161      0.2652
     22  O         19.7260   40.7770   78.1840 O.2   161  FOL161     -0.2684
     23  N         17.5770   41.1990   78.0380 N.am  161  FOL161     -0.1918
     24  CA        17.0870   40.6420   79.3610 C.3   161  FOL161      0.1986
     25  CB        17.2140   41.7770   80.3540 C.3   161  FOL161      0.0451
     26  CG        18.1060   41.2550   81.5400 C.3   161  FOL161      0.1164
     27  CD        18.1930   42.1600   82.8240 C.2   161  FOL161      0.3649
     28  OE1       19.4630   42.0840   83.2390 O.co2 161  FOL161     -0.2457
     29  OE2       17.1320   42.8080   83.3870 O.co2 161  FOL161     -0.2457
     30  CT        15.5780   40.0700   79.2630 C.2   161  FOL161      0.3842
     31  O1        14.7160   40.6170   78.4510 O.co2 161  FOL161     -0.2437
     32  O2        15.2860   39.0030   80.0210 O.co2 161  FOL161     -0.2437
@<TRIPOS>BOND
     1    10    11    1
     2    10     9    1
     3    13     9    1
     4    13    14    1
     5    11    12    2
     6     9     8    2
     7    14    18    1
     8    12     1    2
     9    12     7    1
    10     1     2    2
    11     8     7    2
    12     7     5    1
    13    18    19   ar
    14    18    17   ar
    15    19    20   ar
    16     2     3    1
    17     2     4    2
    18     5     4    2
    19     5     6    2
    20    17    16   ar
    21    20    15   ar
    22    16    15   ar
    23    15    21    1
    24    21    23   am
    25    21    22    2
    26    23    24    1
    27    31    30   ar
    28    30    24    1
    29    30    32   ar
    30    24    25    1
    31    25    26    1
    32    26    27    1
    33    27    28   ar
    34    27    29   ar
