@<TRIPOS>MOLECULE
1rd9_BV2_D_1.pdb
 24 25 0 0 0
SMALL
GASTEIGER

@<TRIPOS>ATOM
      1  O20      -11.5020  -22.4650    2.2230 O.3   104  BV2104     -0.2135
      2  C48      -10.7030  -21.4000    2.7430 C.3   104  BV2104      0.2542
      3  C47      -11.1020  -21.0940    4.1970 C.3   104  BV2104      0.2211
      4  O19      -10.8290  -22.2020    5.0790 O.3   104  BV2104     -0.2173
      5  C46      -10.3570  -19.8420    4.7130 C.3   104  BV2104      0.2145
      6  O18       -8.9590  -20.1880    4.8910 O.3   104  BV2104     -0.2176
      7  C50      -10.5490  -18.6880    3.7280 C.3   104  BV2104      0.1846
      8  C51       -9.7450  -17.4390    4.1730 C.3   104  BV2104      0.2142
      9  O22      -10.0330  -16.3420    3.2880 O.3   104  BV2104     -0.2176
     10  O21      -10.1270  -19.0760    2.3880 O.3   104  BV2104     -0.3157
     11  C49      -10.8930  -20.1640    1.8690 C.3   104  BV2104      0.3218
     12  O15      -12.3010  -19.8840    1.8320 O.3   104  BV2104     -0.4504
     13  C44      -12.5730  -18.9120    0.9240 C.ar  104  BV2104      0.1432
     14  C45      -12.6760  -19.1580   -0.4410 C.ar  104  BV2104      0.0417
     15  C43      -12.7570  -17.6360    1.4160 C.ar  104  BV2104      0.0610
     16  C42      -13.0400  -16.5960    0.5610 C.ar  104  BV2104      0.1460
     17  N11      -13.1920  -15.3820    1.0880 N.pl3 104  BV2104      0.0578
     18  O17      -13.6670  -14.3790    0.2460 O.2   104  BV2104     -0.1261
     19  O16      -12.8350  -15.1080    2.5260 O.2   104  BV2104     -0.1261
     20  C41      -13.1360  -16.8340   -0.8120 C.ar  104  BV2104      0.0289
     21  C40      -12.9580  -18.1130   -1.3210 C.ar  104  BV2104      0.0613
     22  C39      -13.0530  -18.3250   -2.8490 C.2   104  BV2104      0.2843
     23  O14      -13.2870  -17.3710   -3.5890 O.2   104  BV2104     -0.2667
     24  N10      -12.8460  -19.5590   -3.3040 N.am  104  BV2104     -0.0837
@<TRIPOS>BOND
     1    23    22    2
     2    24    22   am
     3    22    21    1
     4    21    20   ar
     5    21    14   ar
     6    20    16   ar
     7    14    13   ar
     8    18    17    2
     9    16    17    1
    10    16    15   ar
    11    13    15   ar
    12    13    12    1
    13    17    19    2
    14    12    11    1
    15    11    10    1
    16    11     2    1
    17     1     2    1
    18    10     7    1
    19     2     3    1
    20     9     8    1
    21     7     8    1
    22     7     5    1
    23     3     5    1
    24     3     4    1
    25     5     6    1
