@<TRIPOS>MOLECULE
1rdi_MFU_1_1.pdb
 12 12 0 0 0
SMALL
GASTEIGER

@<TRIPOS>ATOM
      1  C1         3.7250   47.9950    0.9270 C.3     1  MFU1        0.2695
      2  C2         4.2030   46.8310    1.7950 C.3     1  MFU1        0.2406
      3  C3         3.0170   46.0070    2.2690 C.3     1  MFU1        0.2197
      4  C4         2.2300   45.5160    1.0540 C.3     1  MFU1        0.2118
      5  C5         1.8170   46.7080    0.1770 C.3     1  MFU1        0.1508
      6  C6         1.1410   46.2830   -1.1180 C.3     1  MFU1        0.0350
      7  O1         2.9890   48.8900    1.7130 O.3     1  MFU1       -0.3259
      8  O2         4.9040   47.3240    2.9230 O.3     1  MFU1       -0.2149
      9  O3         3.4980   44.8950    3.0100 O.3     1  MFU1       -0.2174
     10  O4         3.0420   44.6180    0.3160 O.3     1  MFU1       -0.2177
     11  O5         2.9720   47.5020   -0.1850 O.3     1  MFU1       -0.3284
     12  CM         2.7480   50.1760    1.1080 C.3     1  MFU1        0.1769
@<TRIPOS>BOND
     1     6     5    1
     2    11     5    1
     3    11     1    1
     4     5     4    1
     5    10     4    1
     6     1     7    1
     7     1     2    1
     8     4     3    1
     9    12     7    1
    10     2     3    1
    11     2     8    1
    12     3     9    1
