@<TRIPOS>MOLECULE
1rdj_MFB_1_1.pdb
 11 11 0 0 0
SMALL
GASTEIGER

@<TRIPOS>ATOM
      1  C1         3.8870   47.7670    0.6980 C.3     1  MFB1        0.3023
      2  C2         4.3080   46.6830    1.6840 C.3     1  MFB1        0.2434
      3  C3         3.0830   45.9350    2.1830 C.3     1  MFB1        0.2198
      4  C4         2.3190   45.3520    0.9930 C.3     1  MFB1        0.2118
      5  C5         1.9710   46.4800    0.0140 C.3     1  MFB1        0.1509
      6  C6         1.2930   45.9900   -1.2520 C.3     1  MFB1        0.0350
      7  O1         5.0130   48.4770    0.2650 O.3     1  MFB1       -0.1869
      8  O2         4.9740   47.2660    2.7790 O.3     1  MFB1       -0.2148
      9  O3         3.4910   44.8900    3.0510 O.3     1  MFB1       -0.2174
     10  O4         3.1300   44.3810    0.3430 O.3     1  MFB1       -0.2177
     11  O5         3.1750   47.1760   -0.3830 O.3     1  MFB1       -0.3264
@<TRIPOS>BOND
     1     6     5    1
     2    11     5    1
     3    11     1    1
     4     5     4    1
     5     7     1    1
     6    10     4    1
     7     1     2    1
     8     4     3    1
     9     2     3    1
    10     2     8    1
    11     3     9    1
