@<TRIPOS>MOLECULE
1rdk_GAL_1_1.pdb
 12 12 0 0 0
SMALL
GASTEIGER

@<TRIPOS>ATOM
      1  C1         3.1040   46.1530    2.3930 C.3     1  GAL1        0.3024
      2  C2         4.2700   47.0020    1.9120 C.3     1  GAL1        0.2434
      3  C3         3.7700   48.1430    1.0170 C.3     1  GAL1        0.2199
      4  C4         2.9460   47.5520   -0.1250 C.3     1  GAL1        0.2144
      5  C5         1.8280   46.6800    0.4660 C.3     1  GAL1        0.1836
      6  C6         0.9060   46.0470   -0.5440 C.3     1  GAL1        0.2142
      7  O1         3.5670   45.1110    3.1770 O.3     1  GAL1       -0.1869
      8  O2         4.9490   47.5330    3.0240 O.3     1  GAL1       -0.2148
      9  O3         4.8830   48.8500    0.4810 O.3     1  GAL1       -0.2174
     10  O4         3.8040   46.7610   -0.9330 O.3     1  GAL1       -0.2176
     11  O5         2.3980   45.6160    1.2660 O.3     1  GAL1       -0.3236
     12  O6        -0.1250   45.3260    0.1140 O.3     1  GAL1       -0.2176
@<TRIPOS>BOND
     1    10     4    1
     2     6    12    1
     3     6     5    1
     4     4     5    1
     5     4     3    1
     6     5    11    1
     7     9     3    1
     8     3     2    1
     9    11     1    1
    10     2     1    1
    11     2     8    1
    12     1     7    1
