@<TRIPOS>MOLECULE
1rdl_MMA_1_1.pdb
 12 12 0 0 0
SMALL
GASTEIGER

@<TRIPOS>ATOM
      1  C1         2.0340   46.4730    0.1180 C.3     1  MMA1        0.3024
      2  C2         2.3850   45.3740    1.1240 C.3     1  MMA1        0.2434
      3  C3         3.0440   45.9990    2.3600 C.3     1  MMA1        0.2199
      4  C4         4.2460   46.8250    1.9420 C.3     1  MMA1        0.2144
      5  C5         3.8550   47.8640    0.8910 C.3     1  MMA1        0.1836
      6  C6         5.0800   48.5910    0.3550 C.3     1  MMA1        0.2142
      7  O1         1.0350   47.2970    0.6560 O.3     1  MMA1       -0.1869
      8  O2         3.2810   44.4590    0.5230 O.3     1  MMA1       -0.2148
      9  O3         3.4850   44.9810    3.2460 O.3     1  MMA1       -0.2174
     10  O4         4.7920   47.4640    3.0810 O.3     1  MMA1       -0.2176
     11  O5         3.2090   47.2120   -0.2310 O.3     1  MMA1       -0.3236
     12  O6         4.7640   49.3670   -0.7930 O.3     1  MMA1       -0.2176
@<TRIPOS>BOND
     1    12     6    1
     2    11     1    1
     3    11     5    1
     4     1     7    1
     5     1     2    1
     6     6     5    1
     7     8     2    1
     8     5     4    1
     9     2     3    1
    10     4     3    1
    11     4    10    1
    12     3     9    1
