@<TRIPOS>MOLECULE
1rdm_MMA_1_1.pdb
 12 12 0 0 0
SMALL
GASTEIGER

@<TRIPOS>ATOM
      1  C1         2.0400   46.6490    0.0400 C.3     1  MMA1        0.3024
      2  C2         2.3750   45.4890    1.0280 C.3     1  MMA1        0.2434
      3  C3         3.0410   46.0830    2.2840 C.3     1  MMA1        0.2199
      4  C4         4.2670   46.9210    1.8990 C.3     1  MMA1        0.2144
      5  C5         3.8750   48.0040    0.8950 C.3     1  MMA1        0.1836
      6  C6         5.0940   48.7560    0.3800 C.3     1  MMA1        0.2142
      7  O1         1.2130   47.5850    0.6460 O.3     1  MMA1       -0.1869
      8  O2         3.2390   44.5310    0.4180 O.3     1  MMA1       -0.2148
      9  O3         3.4690   45.0450    3.1560 O.3     1  MMA1       -0.2174
     10  O4         4.8290   47.5160    3.0630 O.3     1  MMA1       -0.2176
     11  O5         3.2440   47.3900   -0.2630 O.3     1  MMA1       -0.3236
     12  O6         4.7120   49.6790   -0.6300 O.3     1  MMA1       -0.2176
@<TRIPOS>BOND
     1    12     6    1
     2    11     1    1
     3    11     5    1
     4     1     7    1
     5     1     2    1
     6     6     5    1
     7     8     2    1
     8     5     4    1
     9     2     3    1
    10     4     3    1
    11     4    10    1
    12     3     9    1
