@<TRIPOS>MOLECULE
1rdp_BV3_D_1.pdb
 24 25 0 0 0
SMALL
GASTEIGER

@<TRIPOS>ATOM
      1  O24      -11.6280  -22.4860    2.4720 O.3   104  BV3104     -0.2135
      2  C60      -10.8710  -21.4020    2.9970 C.3   104  BV3104      0.2542
      3  C59      -11.2680  -21.1270    4.4600 C.3   104  BV3104      0.2211
      4  O23      -10.9320  -22.2450    5.2860 O.3   104  BV3104     -0.2173
      5  C58      -10.5010  -19.8950    4.9760 C.3   104  BV3104      0.2145
      6  O22       -9.1210  -20.2140    5.1090 O.3   104  BV3104     -0.2176
      7  C62      -10.7020  -18.7360    4.0120 C.3   104  BV3104      0.1846
      8  C63       -9.9100  -17.4960    4.4890 C.3   104  BV3104      0.2142
      9  O26      -10.2290  -16.4000    3.6320 O.3   104  BV3104     -0.2176
     10  O25      -10.3200  -19.0650    2.6650 O.3   104  BV3104     -0.3157
     11  C61      -11.0660  -20.1740    2.1340 C.3   104  BV3104      0.3218
     12  O19      -12.4600  -19.8650    2.1150 O.3   104  BV3104     -0.4504
     13  C56      -12.8040  -18.8640    1.2380 C.ar  104  BV3104      0.1432
     14  C57      -13.0250  -19.1350   -0.1090 C.ar  104  BV3104      0.0417
     15  C55      -12.9710  -17.5580    1.6980 C.ar  104  BV3104      0.0610
     16  C54      -13.3520  -16.5330    0.8330 C.ar  104  BV3104      0.1460
     17  N15      -13.4680  -15.2790    1.3170 N.pl3 104  BV3104      0.0578
     18  O21      -13.1490  -15.0250    2.7160 O.2   104  BV3104     -0.1261
     19  O20      -13.8200  -14.2440    0.4650 O.2   104  BV3104     -0.1261
     20  C53      -13.5560  -16.8160   -0.5150 C.ar  104  BV3104      0.0289
     21  C52      -13.3920  -18.1130   -0.9740 C.ar  104  BV3104      0.0613
     22  C51      -13.5840  -18.4810   -2.4410 C.2   104  BV3104      0.2843
     23  O18      -13.4360  -19.6420   -2.7960 O.2   104  BV3104     -0.2667
     24  N14      -13.8710  -17.4790   -3.2610 N.am  104  BV3104     -0.0837
@<TRIPOS>BOND
     1    24    22   am
     2    23    22    2
     3    22    21    1
     4    21    20   ar
     5    21    14   ar
     6    20    16   ar
     7    14    13   ar
     8    19    17    2
     9    16    17    1
    10    16    15   ar
    11    13    15   ar
    12    13    12    1
    13    17    18    2
    14    12    11    1
    15    11    10    1
    16    11     2    1
    17     1     2    1
    18    10     7    1
    19     2     3    1
    20     9     8    1
    21     7     8    1
    22     7     5    1
    23     3     5    1
    24     3     4    1
    25     5     6    1
