@<TRIPOS>MOLECULE
1rdq_ADP_E_1.pdb
 27 29 0 0 0
SMALL
GASTEIGER

@<TRIPOS>ATOM
      1  PB        25.9750   28.2320   13.5450 P.3   599  ADP599      0.5373
      2  O1B       25.8070   26.7590   13.8380 O.3   599  ADP599     -0.1143
      3  O2B       27.0460   28.4620   12.5410 O.2   599  ADP599     -0.2221
      4  O3B       26.1850   29.0880   14.9220 O.3   599  ADP599     -0.1143
      5  PA        23.2040   29.1200   13.7220 P.3   599  ADP599      0.2231
      6  O1A       22.1590   28.0860   13.4720 O.2   599  ADP599     -0.5169
      7  O2A       23.4330   29.4640   15.1580 O.3   599  ADP599     -0.4370
      8  O3A       24.6080   28.8150   12.9600 O.3   599  ADP599     -0.2261
      9  O5'       22.7360   30.4150   12.9670 O.3   599  ADP599     -0.3111
     10  C5'       23.5940   31.5790   12.9340 C.3   599  ADP599      0.1813
     11  C4'       22.8150   32.8250   13.3090 C.3   599  ADP599      0.1821
     12  O4'       21.7280   33.0010   12.3620 O.3   599  ADP599     -0.3135
     13  C3'       22.1140   32.7870   14.6700 C.3   599  ADP599      0.2184
     14  O3'       23.0660   33.1080   15.6900 O.3   599  ADP599     -0.2174
     15  C2'       21.0480   33.8590   14.4670 C.3   599  ADP599      0.2570
     16  O2'       21.6060   35.1700   14.3830 O.3   599  ADP599     -0.2130
     17  C1'       20.6080   33.5510   13.0310 C.3   599  ADP599      0.3186
     18  N9        19.4790   32.6360   12.8980 N.pl3 599  ADP599     -0.1439
     19  C8        19.4780   31.2600   13.0300 C.3   599  ADP599      0.3377
     20  N7        18.3010   30.7170   12.8480 N.2   599  ADP599     -0.2095
     21  C5        17.4610   31.7980   12.6240 C.2   599  ADP599      0.2526
     22  C6        16.0820   31.8690   12.3640 C.2   599  ADP599      0.4393
     23  N6        15.3130   30.7770   12.2860 N.pl3 599  ADP599      0.2180
     24  N1        15.5520   33.1020   12.1970 N.2   599  ADP599      0.0021
     25  C2        16.3660   34.1710   12.2610 C.3   599  ADP599      0.5254
     26  N3        17.6810   34.2130   12.4800 N.2   599  ADP599     -0.0055
     27  C4        18.1760   32.9830   12.6430 C.2   599  ADP599      0.3518
@<TRIPOS>BOND
     1    24    25    1
     2    24    22    2
     3    25    26    1
     4    23    22    1
     5    12    17    1
     6    12    11    1
     7    22    21    1
     8    26    27    2
     9     3     1    2
    10    21    27    1
    11    21    20    2
    12    27    18    1
    13    20    19    1
    14    18    19    1
    15    18    17    1
    16    10     9    1
    17    10    11    1
    18     8     1    1
    19     8     5    1
    20     9     5    1
    21    17    15    1
    22    11    13    1
    23     6     5    2
    24     1     2    1
    25     1     4    1
    26     5     7    1
    27    16    15    1
    28    15    13    1
    29    13    14    1
