@<TRIPOS>MOLECULE
1rdq_ATP_E_1.pdb
 31 33 0 0 0
SMALL
GASTEIGER

@<TRIPOS>ATOM
      1  PG        27.4520   28.5290   16.0470 P.3   600  ATP600      0.5373
      2  O1G       28.7750   29.2620   15.9630 O.2   600  ATP600     -0.2221
      3  O2G       26.7620   28.9120   17.3510 O.3   600  ATP600     -0.1143
      4  O3G       27.6610   27.0290   16.0570 O.3   600  ATP600     -0.1143
      5  PB        26.0120   28.1180   13.5490 P.3   600  ATP600      0.2277
      6  O1B       25.7540   26.6840   13.8770 O.3   600  ATP600     -0.4368
      7  O2B       27.0870   28.2290   12.5170 O.2   600  ATP600     -0.5168
      8  O3B       26.4080   29.0160   14.8680 O.3   600  ATP600     -0.2258
      9  PA        23.3090   29.1010   13.7490 P.3   600  ATP600      0.2189
     10  O1A       22.3160   28.0020   13.5960 O.2   600  ATP600     -0.5170
     11  O2A       23.5190   29.4450   15.1830 O.3   600  ATP600     -0.4371
     12  O3A       24.7240   28.8770   12.9740 O.3   600  ATP600     -0.2700
     13  O5'       22.7500   30.3600   12.9780 O.3   600  ATP600     -0.3112
     14  C5'       23.5760   31.5440   12.9410 C.3   600  ATP600      0.1813
     15  C4'       22.8030   32.7830   13.3150 C.3   600  ATP600      0.1821
     16  O4'       21.7360   32.9840   12.3600 O.3   600  ATP600     -0.3135
     17  C3'       22.1090   32.8000   14.6730 C.3   600  ATP600      0.2184
     18  O3'       23.0380   33.1380   15.7070 O.3   600  ATP600     -0.2174
     19  C2'       21.0580   33.8820   14.4460 C.3   600  ATP600      0.2570
     20  O2'       21.6130   35.1890   14.4060 O.3   600  ATP600     -0.2130
     21  C1'       20.6200   33.5580   13.0120 C.3   600  ATP600      0.3186
     22  N9        19.4940   32.6300   12.9070 N.pl3 600  ATP600     -0.1439
     23  C8        19.4900   31.2560   13.0430 C.3   600  ATP600      0.3377
     24  N7        18.3090   30.7150   12.8870 N.2   600  ATP600     -0.2095
     25  C5        17.4740   31.7960   12.6490 C.2   600  ATP600      0.2526
     26  C6        16.0960   31.8790   12.4020 C.2   600  ATP600      0.4393
     27  N6        15.2970   30.8100   12.3580 N.pl3 600  ATP600      0.2180
     28  N1        15.5700   33.1100   12.2080 N.2   600  ATP600      0.0021
     29  C2        16.3880   34.1710   12.2490 C.3   600  ATP600      0.5254
     30  N3        17.7020   34.2130   12.4650 N.2   600  ATP600     -0.0055
     31  C4        18.1910   32.9800   12.6540 C.2   600  ATP600      0.3518
@<TRIPOS>BOND
     1    28    29    1
     2    28    26    2
     3    29    30    1
     4    27    26    1
     5    16    21    1
     6    16    15    1
     7    26    25    1
     8    30    31    2
     9     7     5    2
    10    25    31    1
    11    25    24    2
    12    31    22    1
    13    24    23    1
    14    22    21    1
    15    22    23    1
    16    14    13    1
    17    14    15    1
    18    12     5    1
    19    12     9    1
    20    13     9    1
    21    21    19    1
    22    15    17    1
    23     5     6    1
    24     5     8    1
    25    10     9    2
    26     9    11    1
    27    20    19    1
    28    19    17    1
    29    17    18    1
    30     8     1    1
    31     2     1    2
    32     1     4    1
    33     1     3    1
