@<TRIPOS>MOLECULE
1rds_GPC_A_1.pdb
 40 44 0 0 0
SMALL
GASTEIGER

@<TRIPOS>ATOM
      1  N1G       26.2750   37.3200   33.1970 N.2   106  GPC106     -0.2485
      2  C2G       27.3830   38.1060   33.2760 C.1   106  GPC106      0.2531
      3  N2G       27.4080   38.9830   34.2750 N.pl3 106  GPC106     -0.0226
      4  N3G       28.3550   37.9390   32.3720 N.2   106  GPC106     -0.3074
      5  C4G       28.2170   36.9880   31.3990 C.2   106  GPC106      0.2300
      6  C5G       27.0790   36.1740   31.3000 C.2   106  GPC106      0.2182
      7  C6G       26.0580   36.3160   32.2700 C.1   106  GPC106      0.2372
      8  O6G       24.9700   35.7740   32.4060 O.2   106  GPC106     -0.2069
      9  N7G       27.2160   35.3370   30.2490 N.2   106  GPC106     -0.2322
     10  C8G       28.4140   35.5980   29.6550 C.3   106  GPC106      0.2246
     11  N9G       29.0210   36.6130   30.3500 N.pl3 106  GPC106     -0.2352
     12  C1D       30.3610   37.1920   30.0440 C.3   106  GPC106      0.2315
     13  C2D       30.2660   38.6090   29.4890 C.3   106  GPC106      0.2371
     14  F2D       30.8090   38.6870   28.2120 F     106  GPC106     -0.2300
     15  C3D       30.8730   39.4140   30.6010 C.3   106  GPC106      0.1880
     16  O3D       31.7590   40.4690   30.0510 O.3   106  GPC106     -0.3110
     17  C4D       31.7180   38.4120   31.3930 C.3   106  GPC106      0.1802
     18  O4D       31.0400   37.1970   31.2930 O.3   106  GPC106     -0.3324
     19  C5D       31.6830   38.8440   32.8670 C.3   106  GPC106      0.2141
     20  O5D       32.4740   38.0560   33.7270 O.3   106  GPC106     -0.2176
     21  PC        31.1010   41.8930   29.8230 P.3   106  GPC106      0.2142
     22  O1C       30.9010   42.1480   28.3970 O.2   106  GPC106     -0.5172
     23  O2C       29.8510   41.8820   30.6330 O.3   106  GPC106     -0.4373
     24  O5B       32.0630   42.9250   30.5080 O.3   106  GPC106     -0.3114
     25  C5X       33.4440   43.1260   30.0800 C.3   106  GPC106      0.1813
     26  C4X       33.7500   44.6350   30.1920 C.3   106  GPC106      0.1799
     27  O4B       32.8240   45.2830   31.0400 O.3   106  GPC106     -0.3320
     28  C3X       35.1530   45.0450   30.5680 C.3   106  GPC106      0.2158
     29  O3B       35.8700   45.8560   29.6330 O.3   106  GPC106     -0.2175
     30  C2X       34.9280   45.9160   31.7660 C.3   106  GPC106      0.2319
     31  O2B       35.9650   46.9010   31.7910 O.3   106  GPC106     -0.2157
     32  C1X       33.5080   46.4600   31.5040 C.3   106  GPC106      0.2400
     33  N1C       32.9430   46.8410   32.8410 N.am  106  GPC106     -0.1778
     34  CC2       32.5920   48.1420   33.1390 C.1   106  GPC106      0.2756
     35  O2X       32.6840   49.0830   32.3750 O.2   106  GPC106     -0.1925
     36  N3C       32.0910   48.3600   34.4040 N.2   106  GPC106     -0.3024
     37  CC4       31.9750   47.3900   35.3330 C.2   106  GPC106      0.2346
     38  N4C       31.4730   47.6860   36.5400 N.pl3 106  GPC106     -0.0921
     39  CC5       32.3370   46.0940   35.0430 C.2   106  GPC106      0.0687
     40  CC6       32.8320   45.8180   33.7700 C.2   106  GPC106      0.0836
@<TRIPOS>BOND
     1    14    13    1
     2    22    21    2
     3    13    12    1
     4    13    15    1
     5    29    28    1
     6    10     9    1
     7    10    11    1
     8    21    16    1
     9    21    24    1
    10    21    23    1
    11    12    11    1
    12    12    18    1
    13    16    15    1
    14    25    26    1
    15    25    24    1
    16    26    28    1
    17    26    27    1
    18     9     6    2
    19    11     5    1
    20    28    30    1
    21    15    17    1
    22    27    32    1
    23    18    17    1
    24     6     5    1
    25     6     7    1
    26    17    19    1
    27     5     4    2
    28    32    30    1
    29    32    33    1
    30    30    31    1
    31     7     8    2
    32     7     1    2
    33     4     2    2
    34    35    34    2
    35    33    34   am
    36    33    40    1
    37    19    20    1
    38    34    36    2
    39     1     2    2
    40     2     3    1
    41    40    39    2
    42    36    37    2
    43    39    37    1
    44    37    38    1
