@<TRIPOS>MOLECULE
1rdt_III_E_1.pdb
 34 33 0 0 0
SMALL
GASTEIGER

@<TRIPOS>ATOM
      1  N         -9.3840   28.2800   15.9790 N.3    67  LYS67      -0.1231
      2  CA       -10.3130   27.8590   14.8920 C.3    67  LYS67       0.1694
      3  C         -9.5630   27.0960   13.8060 C.2    67  LYS67       0.2592
      4  O         -9.9490   25.9880   13.4340 O.2    67  LYS67      -0.2718
      5  CB       -11.0000   29.0800   14.2940 C.3    67  LYS67       0.0304
      6  N         -8.4900   27.6970   13.3000 N.am   68  GLN68      -0.1966
      7  CA        -7.6830   27.0730   12.2580 C.3    68  GLN68       0.1728
      8  C         -7.0090   25.8190   12.8000 C.2    68  GLN68       0.2617
      9  O         -6.9610   24.7880   12.1280 O.2    68  GLN68      -0.2715
     10  CB        -6.6360   28.0550   11.7500 C.3    68  GLN68       0.0334
     11  N         -6.4860   25.9150   14.0180 N.am   69  LEU69      -0.1940
     12  CA        -5.8310   24.7750   14.6300 C.3    69  LEU69       0.2014
     13  C         -6.8190   23.6440   14.8290 C.2    69  LEU69       0.2639
     14  O         -6.4570   22.4690   14.7690 O.2    69  LEU69      -0.2714
     15  N         -8.0750   24.0060   15.0660 N.am   70  SER70      -0.1963
     16  CA        -9.1330   23.0250   15.2680 C.3    70  SER70       0.1728
     17  C         -9.4260   22.3110   13.9540 C.2    70  SER70       0.2616
     18  O         -9.6610   21.1030   13.9300 O.2    70  SER70      -0.2715
     19  CB       -10.3910   23.7120   15.7830 C.3    70  SER70       0.0334
     20  N         -9.4060   23.0680   12.8610 N.am   71  GLU71      -0.1963
     21  CA        -9.6670   22.5170   11.5380 C.3    71  GLU71       0.1728
     22  C         -8.5040   21.6430   11.0840 C.2    71  GLU71       0.2616
     23  O         -8.7050   20.5250   10.6090 O.2    71  GLU71      -0.2715
     24  CB        -9.8920   23.6460   10.5390 C.3    71  GLU71       0.0334
     25  N         -7.2880   22.1610   11.2370 N.am   72  LEU72      -0.1963
     26  CA        -6.0830   21.4380   10.8460 C.3    72  LEU72       0.1728
     27  C         -6.1050   20.0040   11.3650 C.2    72  LEU72       0.2616
     28  O         -5.5050   19.1100   10.7680 O.2    72  LEU72      -0.2715
     29  CB        -4.8490   22.1640   11.3680 C.3    72  LEU72       0.0334
     30  N         -6.7990   19.7900   12.4780 N.am   73  LEU73      -0.1977
     31  CA        -6.9020   18.4620   13.0690 C.3    73  LEU73       0.1597
     32  C         -8.2190   17.8040   12.6790 C.2    73  LEU73       0.2287
     33  O         -8.1740   16.7740   11.9730 O.2    73  LEU73      -0.2864
     34  CB        -6.7960   18.5560   14.5810 C.3    73  LEU73       0.0319
@<TRIPOS>BOND
     1    24    21    1
     2    23    22    2
     3    28    27    2
     4    26    25    1
     5    26    27    1
     6    26    29    1
     7    22    25   am
     8    22    21    1
     9    27    30   am
    10    21    20    1
    11    10     7    1
    12    33    32    2
    13     9     8    2
    14     7     8    1
    15     7     6    1
    16    30    31    1
    17    32    31    1
    18     8    11   am
    19    20    17   am
    20    31    34    1
    21     6     3   am
    22     4     3    2
    23     3     2    1
    24    18    17    2
    25    17    16    1
    26    11    12    1
    27     5     2    1
    28    12    13    1
    29    14    13    2
    30    13    15   am
    31     2     1    1
    32    15    16    1
    33    16    19    1
