@<TRIPOS>MOLECULE
1rdt_L79_A_1.pdb
 28 31 0 0 0
SMALL
GASTEIGER

@<TRIPOS>ATOM
      1  C         10.7170   36.2230   45.5440 C.ar  463  L79463      0.0362
      2  C1        11.7060   35.4770   46.1770 C.ar  463  L79463      0.1448
      3  O         12.7460   35.2610   45.3090 O.2   463  L79463     -0.4581
      4  C2        12.4220   35.8680   44.1240 C.ar  463  L79463      0.1191
      5  C3        11.1730   36.4650   44.2540 C.ar  463  L79463      0.0149
      6  C4        11.5890   35.0460   47.4750 C.2   463  L79463      0.0443
      7  C5        12.1340   33.9130   47.9100 C.2   463  L79463      0.0893
      8  C6        12.0190   33.4180   49.3210 C.2   463  L79463      0.3881
      9  O1        12.6700   32.4120   49.6010 O.co2 463  L79463     -0.2405
     10  O7        11.2670   33.9590   50.1300 O.co2 463  L79463     -0.2405
     11  C8        10.4750   37.2330   43.1460 C.3   463  L79463      0.0473
     12  C9        11.4110   37.5540   41.9780 C.3   463  L79463      0.0093
     13  C10       12.5720   36.5990   41.6880 C.3   463  L79463      0.0086
     14  C11       13.2600   35.9040   42.8630 C.3   463  L79463      0.0642
     15  C12        9.0150   37.0690   42.7910 C.ar  463  L79463     -0.0187
     16  C13        8.2720   38.0890   42.3230 C.ar  463  L79463     -0.0086
     17  C14        6.9700   37.9980   41.9940 C.ar  463  L79463     -0.0271
     18  C15        6.2530   39.2330   41.4750 C.3   463  L79463      0.0186
     19  C16        4.7620   39.1060   41.1670 C.3   463  L79463      0.0044
     20  C17        6.2980   40.4060   42.4540 C.3   463  L79463      0.0044
     21  C18        6.8620   39.7600   40.1760 C.3   463  L79463      0.0044
     22  C19        6.3590   36.8020   42.1430 C.ar  463  L79463     -0.0268
     23  C20        4.8980   36.5650   41.8130 C.3   463  L79463      0.0186
     24  C21        4.0710   36.2260   43.0520 C.3   463  L79463      0.0044
     25  C22        4.1410   37.7090   41.1370 C.3   463  L79463      0.0044
     26  C23        4.6760   35.4050   40.8430 C.3   463  L79463      0.0044
     27  C24        7.0960   35.7750   42.6110 C.ar  463  L79463     -0.0049
     28  C25        8.3940   35.8850   42.9320 C.ar  463  L79463     -0.0043
@<TRIPOS>BOND
     1    21    18    1
     2    26    23    1
     3    25    19    1
     4    25    23    1
     5    19    18    1
     6    18    17    1
     7    18    20    1
     8    13    12    1
     9    13    14    1
    10    23    22    1
    11    23    24    1
    12    12    11    1
    13    17    22   ar
    14    17    16   ar
    15    22    27   ar
    16    16    15   ar
    17    27    28   ar
    18    15    28   ar
    19    15    11    1
    20    14     4    1
    21    11     5    1
    22     4     5   ar
    23     4     3   ar
    24     5     1   ar
    25     3     2   ar
    26     1     2   ar
    27     2     6    1
    28     6     7    2
    29     7     8    1
    30     8     9   ar
    31     8    10   ar
