@<TRIPOS>MOLECULE
1rdt_570_D_1.pdb
 41 45 0 0 0
SMALL
GASTEIGER

@<TRIPOS>ATOM
      1  N          8.5820   34.1780   12.7970 N.pl3 478  570478     -0.2274
      2  CA         8.0210   32.8370   12.9670 C.3   478  570478      0.1992
      3  CB         9.0970   31.8220   13.3500 C.3   478  570478      0.0595
      4  CG        10.1120   31.3740   12.3220 C.ar  478  570478     -0.0197
      5  CD1       11.3430   31.9150   12.3290 C.ar  478  570478     -0.0011
      6  CD2        9.8190   30.4410   11.3990 C.ar  478  570478     -0.0011
      7  CE1       12.2650   31.5310   11.4290 C.ar  478  570478      0.0366
      8  CE2       10.7430   30.0590   10.5020 C.ar  478  570478      0.0366
      9  CZ        11.9760   30.5990   10.5040 C.ar  478  570478      0.1385
     10  OH        12.9620   30.2440    9.6150 O.3   478  570478     -0.4750
     11  C1A        8.0470   35.2280   11.9950 C.ar  478  570478      0.0689
     12  C1F        8.8440   36.1710   11.4510 C.ar  478  570478      0.0538
     13  C1E        8.2740   37.1340   10.7050 C.ar  478  570478      0.0045
     14  C1D        6.9500   37.1940   10.4820 C.ar  478  570478      0.0002
     15  C1C        6.1580   36.2550   11.0250 C.ar  478  570478      0.0013
     16  C1B        6.7220   35.2900   11.7700 C.ar  478  570478      0.0162
     17  C1H       11.2710   37.3710   11.2820 C.ar  478  570478      0.0390
     18  C1I       12.3810   37.1520   10.5530 C.ar  478  570478      0.0032
     19  C1J       13.2020   38.1620   10.2210 C.ar  478  570478      0.0001
     20  C1K       12.9160   39.4140   10.6200 C.ar  478  570478      0.0000
     21  C1L       11.8110   39.6460   11.3480 C.ar  478  570478      0.0001
     22  C1M       10.9970   38.6270   11.6750 C.ar  478  570478      0.0032
     23  C1G       10.3880   36.2210   11.6290 C.2   478  570478      0.1968
     24  O1G       10.9630   35.2380   12.0930 O.2   478  570478     -0.2865
     25  O3F       14.4970   33.7800    5.7130 O.2   478  570478     -0.4486
     26  C3G       13.6620   33.1120    4.8580 C.2   478  570478      0.2771
     27  N3H       13.3960   31.8580    5.3740 N.2   478  570478     -0.3728
     28  C3C       14.0840   31.7690    6.5670 C.2   478  570478      0.1336
     29  C3D       14.7670   32.9610    6.7740 C.3   478  570478      0.2161
     30  C3E       15.6600   33.3740    7.9210 C.3   478  570478      0.0549
     31  C3I       13.1980   33.6230    3.7120 C.ar  478  570478      0.0660
     32  C3N       12.3790   32.9430    2.8900 C.ar  478  570478      0.0058
     33  C3M       11.9250   33.4770    1.7460 C.ar  478  570478      0.0002
     34  C3L       12.2910   34.7230    1.4030 C.ar  478  570478      0.0000
     35  C3K       13.1080   35.4210    2.2080 C.ar  478  570478      0.0002
     36  C3J       13.5510   34.8660    3.3480 C.ar  478  570478      0.0058
     37  C3A       12.7320   30.4170    8.2180 C.3   478  570478      0.2126
     38  C3B       14.0410   30.5390    7.4430 C.3   478  570478      0.1055
     39  O2         5.8790   32.1810   13.7470 O.co2 478  570478     -0.2437
     40  O1         7.0250   33.4250   15.0590 O.co2 478  570478     -0.2437
     41  C          6.9030   32.8150   13.9980 C.2   478  570478      0.3844
@<TRIPOS>BOND
     1    34    33   ar
     2    34    35   ar
     3    33    32   ar
     4    35    36   ar
     5    32    31   ar
     6    36    31   ar
     7    31    26    1
     8    26    27    2
     9    26    25    1
    10    27    28    2
    11    25    29    1
    12    28    29    1
    13    28    38    1
    14    29    30    1
    15    38    37    1
    16    37    10    1
    17    10     9    1
    18    19    18   ar
    19    19    20   ar
    20    14    13   ar
    21    14    15   ar
    22     8     9   ar
    23     8     6   ar
    24     9     7   ar
    25    18    17   ar
    26    20    21   ar
    27    13    12   ar
    28    15    16   ar
    29    17    23    1
    30    17    22   ar
    31    21    22   ar
    32     6     4   ar
    33     7     5   ar
    34    12    23    1
    35    12    11   ar
    36    23    24    2
    37    16    11   ar
    38    11     1    1
    39     4     5   ar
    40     4     3    1
    41     1     2    1
    42     2     3    1
    43     2    41    1
    44    39    41   ar
    45    41    40   ar
