@<TRIPOS>MOLECULE
1rdw_LAR_X_1.pdb
 29 31 0 0 0
SMALL
GASTEIGER

@<TRIPOS>ATOM
      1  S1        90.1020   72.6000   37.3060 S.3   391  LAR391     -0.0192
      2  N1        89.1960   72.8250   34.9610 N.2   391  LAR391     -0.1932
      3  O1        88.9470   69.0650   31.5240 O.2   391  LAR391     -0.2449
      4  O2        91.0600   69.4050   32.0940 O.3   391  LAR391     -0.4490
      5  O3        92.5550   72.0730   33.7740 O.3   391  LAR391     -0.3329
      6  O4        91.2380   70.7480   34.7330 O.3   391  LAR391     -0.1930
      7  O5        87.7630   72.1270   36.4880 O.2   391  LAR391     -0.2155
      8  C1        89.9380   68.5030   31.9070 C.2   391  LAR391      0.3407
      9  C2        89.9150   67.0220   32.1370 C.2   391  LAR391      0.0734
     10  C3        90.9830   66.2020   32.4200 C.2   391  LAR391     -0.0365
     11  C4        92.3380   66.8590   32.6720 C.3   391  LAR391      0.0362
     12  C5        93.6370   66.3690   32.1240 C.3   391  LAR391      0.0804
     13  C6        94.6190   67.0420   32.5690 C.1   391  LAR391     -0.0907
     14  C7        95.4880   67.7680   32.9420 C.1   391  LAR391     -0.0910
     15  C8        96.3240   68.5760   33.4250 C.3   391  LAR391      0.0760
     16  C9        96.5040   69.7260   33.8480 C.3   391  LAR391      0.0139
     17  C10       96.0350   70.8530   34.7130 C.3   391  LAR391      0.0011
     18  C11       95.5550   72.0860   33.9360 C.3   391  LAR391      0.0025
     19  C12       94.7190   71.9370   32.6290 C.3   391  LAR391      0.0298
     20  C13       93.3120   71.3670   32.7870 C.3   391  LAR391      0.1214
     21  C14       92.5860   70.9110   31.5010 C.3   391  LAR391      0.0734
     22  C15       91.0600   70.7930   31.6040 C.3   391  LAR391      0.1766
     23  C16       90.3230   71.5390   32.7030 C.3   391  LAR391      0.1048
     24  C17       91.1600   71.9820   33.9150 C.3   391  LAR391      0.2448
     25  C18       90.5700   73.1650   34.7440 C.3   391  LAR391      0.1810
     26  C19       91.2610   73.1890   36.1250 C.3   391  LAR391      0.1042
     27  C20       88.8580   72.4970   36.1900 C.1   391  LAR391      0.1790
     28  C21       90.7630   64.7070   32.5760 C.3   391  LAR391      0.0266
     29  C22       97.0900   71.2590   35.7560 C.3   391  LAR391      0.0000
@<TRIPOS>BOND
     1    21    22    1
     2    21    20    1
     3     3     8    2
     4    22     4    1
     5    22    23    1
     6     8     4    1
     7     8     9    1
     8    12    13    1
     9    12    11    1
    10     9    10    2
    11    10    28    1
    12    10    11    1
    13    13    14    3
    14    19    20    1
    15    19    18    1
    16    23    24    1
    17    20     5    1
    18    14    15    1
    19    15    16    1
    20     5    24    1
    21    16    17    1
    22    24     6    1
    23    24    25    1
    24    18    17    1
    25    17    29    1
    26    25     2    1
    27    25    26    1
    28     2    27    2
    29    26     1    1
    30    27     7    2
    31    27     1    1
