@<TRIPOS>MOLECULE
1rdw_ATP_X_1.pdb
 31 33 0 0 0
SMALL
GASTEIGER

@<TRIPOS>ATOM
      1  PG        85.0180   75.9050   26.6820 P.3   390  ATP390      0.5373
      2  O1G       85.9540   76.8210   25.9980 O.3   390  ATP390     -0.1143
      3  O2G       84.5080   76.6480   27.9510 O.3   390  ATP390     -0.1143
      4  O3G       83.9490   75.4460   25.6930 O.2   390  ATP390     -0.2221
      5  PB        86.1070   73.2480   26.5810 P.3   390  ATP390      0.2277
      6  O1B       87.5270   72.9130   26.8880 O.3   390  ATP390     -0.4368
      7  O2B       85.6660   73.1890   25.1580 O.2   390  ATP390     -0.5168
      8  O3B       86.0040   74.7210   27.1530 O.3   390  ATP390     -0.2258
      9  PA        84.6550   70.9680   27.4190 P.3   390  ATP390      0.2189
     10  O1A       83.2880   70.9260   26.8420 O.3   390  ATP390     -0.4371
     11  O2A       85.7580   70.0650   26.7470 O.2   390  ATP390     -0.5170
     12  O3A       85.1600   72.4790   27.5450 O.3   390  ATP390     -0.2700
     13  O5'       84.4550   70.5680   28.9520 O.3   390  ATP390     -0.3112
     14  C5'       85.4450   70.4010   29.9230 C.3   390  ATP390      0.1813
     15  C4'       84.7640   70.6880   31.2260 C.3   390  ATP390      0.1821
     16  O4'       83.6810   69.8000   31.4360 O.3   390  ATP390     -0.3135
     17  C3'       85.7180   70.5610   32.4410 C.3   390  ATP390      0.2184
     18  O3'       85.3730   71.5830   33.3620 O.3   390  ATP390     -0.2174
     19  C2'       85.3130   69.2300   33.0050 C.3   390  ATP390      0.2570
     20  O2'       85.5320   69.1210   34.3540 O.3   390  ATP390     -0.2130
     21  C1'       83.7820   69.2800   32.7410 C.3   390  ATP390      0.3186
     22  N9        83.2410   67.9430   32.7890 N.pl3 390  ATP390     -0.1439
     23  C8        83.7180   66.8570   32.0460 C.3   390  ATP390      0.3377
     24  N7        82.9610   65.7960   32.4010 N.2   390  ATP390     -0.2095
     25  C5        82.0920   66.1810   33.3550 C.2   390  ATP390      0.2526
     26  C6        81.0940   65.4990   33.9990 C.2   390  ATP390      0.4393
     27  N6        80.9210   64.1860   33.7580 N.pl3 390  ATP390      0.2180
     28  N1        80.3220   66.1450   34.9070 N.2   390  ATP390      0.0021
     29  C2        80.5060   67.4720   35.1630 C.3   390  ATP390      0.5254
     30  N3        81.4800   68.1490   34.4760 N.2   390  ATP390     -0.0055
     31  C4        82.2690   67.5140   33.6200 C.2   390  ATP390      0.3518
@<TRIPOS>BOND
     1     7     5    2
     2     4     1    2
     3     2     1    1
     4     5     6    1
     5     5     8    1
     6     5    12    1
     7     1     8    1
     8     1     3    1
     9    11     9    2
    10    10     9    1
    11     9    12    1
    12     9    13    1
    13    13    14    1
    14    14    15    1
    15    15    16    1
    16    15    17    1
    17    16    21    1
    18    23    24    1
    19    23    22    1
    20    24    25    2
    21    17    19    1
    22    17    18    1
    23    21    22    1
    24    21    19    1
    25    22    31    1
    26    19    20    1
    27    25    31    1
    28    25    26    1
    29    31    30    2
    30    27    26    1
    31    26    28    2
    32    30    29    1
    33    28    29    1
