@<TRIPOS>MOLECULE
1rdx_F6P_A_1.pdb
 16 16 0 0 0
SMALL
GASTEIGER

@<TRIPOS>ATOM
      1  O1        41.1220   89.9140   25.0850 O.3   338  F6P338     -0.2148
      2  C1        40.0090   90.4710   25.7200 C.3   338  F6P338      0.2434
      3  C2        38.6800   90.0450   25.1030 C.3   338  F6P338      0.2807
      4  O2        38.8660   89.1640   23.9730 O.3   338  F6P338     -0.1896
      5  C3        38.0310   91.4340   24.9120 C.3   338  F6P338      0.2409
      6  O3        38.3550   92.1160   23.7120 O.3   338  F6P338     -0.2149
      7  C4        36.5240   91.1680   25.1300 C.3   338  F6P338      0.2167
      8  O4        35.7760   92.3190   25.5230 O.3   338  F6P338     -0.2175
      9  C5        36.5080   90.0380   26.1690 C.3   338  F6P338      0.1808
     10  O5        37.8290   89.4340   26.0300 O.3   338  F6P338     -0.3254
     11  C6        35.4010   89.0850   25.9940 C.3   338  F6P338      0.1859
     12  O6        34.0960   89.6050   26.4840 O.3   338  F6P338     -0.2675
     13  P         33.2730   88.7520   27.5980 P.3   338  F6P338      0.5327
     14  O1P       33.2220   87.2600   27.2690 O.2   338  F6P338     -0.2224
     15  O2P       31.8380   89.2690   27.6540 O.3   338  F6P338     -0.1145
     16  O3P       33.9240   88.9220   28.9640 O.3   338  F6P338     -0.1145
@<TRIPOS>BOND
     1     6     5    1
     2     4     3    1
     3     5     3    1
     4     5     7    1
     5     1     2    1
     6     3     2    1
     7     3    10    1
     8     7     8    1
     9     7     9    1
    10    11     9    1
    11    11    12    1
    12    10     9    1
    13    12    13    1
    14    14    13    2
    15    13    15    1
    16    13    16    1
