@<TRIPOS>MOLECULE
1rdy_F6P_A_1.pdb
 16 16 0 0 0
SMALL
GASTEIGER

@<TRIPOS>ATOM
      1  O1        43.6480  107.1860   12.1130 O.3   338  F6P338     -0.2148
      2  C1        43.6260  108.5210   11.6540 C.3   338  F6P338      0.2434
      3  C2        42.7050  109.4440   12.4840 C.3   338  F6P338      0.2807
      4  O2        42.5830  108.9140   13.8020 O.3   338  F6P338     -0.1896
      5  C3        41.3280  109.5850   11.8130 C.3   338  F6P338      0.2409
      6  O3        40.5940  108.4000   12.0140 O.3   338  F6P338     -0.2149
      7  C4        40.7200  110.8550   12.4550 C.3   338  F6P338      0.2167
      8  O4        39.7880  111.5620   11.6460 O.3   338  F6P338     -0.2175
      9  C5        41.9640  111.6450   12.8830 C.3   338  F6P338      0.1808
     10  O5        43.0820  110.7910   12.5030 O.3   338  F6P338     -0.3254
     11  C6        41.8990  111.9270   14.3150 C.3   338  F6P338      0.1859
     12  O6        42.9150  112.9930   14.4320 O.3   338  F6P338     -0.2675
     13  P         43.1890  114.2560   15.4080 P.3   338  F6P338      0.5327
     14  O1P       42.1550  115.3470   15.2220 O.3   338  F6P338     -0.1145
     15  O2P       43.1350  113.8350   16.8690 O.3   338  F6P338     -0.1145
     16  O3P       44.5600  114.8270   15.1030 O.2   338  F6P338     -0.2224
@<TRIPOS>BOND
     1     8     7    1
     2     2     1    1
     3     2     3    1
     4     5     6    1
     5     5     7    1
     6     5     3    1
     7     7     9    1
     8     3    10    1
     9     3     4    1
    10    10     9    1
    11     9    11    1
    12    11    12    1
    13    12    13    1
    14    16    13    2
    15    14    13    1
    16    13    15    1
