@<TRIPOS>MOLECULE
1rdy_AMP_A_1.pdb
 23 25 0 0 0
SMALL
GASTEIGER

@<TRIPOS>ATOM
      1  P         36.1110   90.7730  -13.3920 P.3   339  AMP339      0.5327
      2  O1P       37.4870   90.6280  -12.8860 O.3   339  AMP339     -0.1145
      3  O2P       36.0610   89.9530  -14.6460 O.2   339  AMP339     -0.2224
      4  O3P       35.2490   89.9560  -12.3830 O.3   339  AMP339     -0.1145
      5  O5'       35.6320   92.2870  -13.6160 O.3   339  AMP339     -0.2675
      6  C5'       34.2900   92.5210  -14.1700 C.3   339  AMP339      0.1860
      7  C4'       33.8110   93.8390  -13.8280 C.3   339  AMP339      0.1823
      8  O4'       32.4380   93.6960  -13.4380 O.3   339  AMP339     -0.3135
      9  C3'       34.3940   94.4610  -12.5560 C.3   339  AMP339      0.2184
     10  O3'       35.5900   95.1750  -12.7500 O.3   339  AMP339     -0.2174
     11  C2'       33.2840   95.4550  -12.1840 C.3   339  AMP339      0.2570
     12  O2'       33.3440   96.6950  -12.8710 O.3   339  AMP339     -0.2130
     13  C1'       31.9920   94.7160  -12.5640 C.3   339  AMP339      0.3186
     14  N9        31.3000   94.2280  -11.3000 N.pl3 339  AMP339     -0.1439
     15  C8        30.2500   94.8080  -10.6050 C.3   339  AMP339      0.3377
     16  N7        29.8630   94.0390   -9.5220 N.2   339  AMP339     -0.2095
     17  C5        30.7200   92.9760   -9.5840 C.2   339  AMP339      0.2526
     18  C6        30.7530   91.8150   -8.7790 C.2   339  AMP339      0.4393
     19  N6        30.0450   91.6570   -7.6850 N.pl3 339  AMP339      0.2180
     20  N1        31.6820   90.8650   -9.1940 N.2   339  AMP339      0.0021
     21  C2        32.4450   90.9840  -10.3300 C.3   339  AMP339      0.5254
     22  N3        32.4350   92.1180  -11.0670 N.2   339  AMP339     -0.0055
     23  C4        31.5190   93.0450  -10.7320 C.2   339  AMP339      0.3518
@<TRIPOS>BOND
     1     3     1    2
     2     6     7    1
     3     6     5    1
     4     7     8    1
     5     7     9    1
     6     5     1    1
     7     8    13    1
     8     1     2    1
     9     1     4    1
    10    12    11    1
    11    10     9    1
    12    13    11    1
    13    13    14    1
    14     9    11    1
    15    14    23    1
    16    14    15    1
    17    22    23    2
    18    22    21    1
    19    23    17    1
    20    15    16    1
    21    21    20    1
    22    17    16    2
    23    17    18    1
    24    20    18    2
    25    18    19    1
