@<TRIPOS>MOLECULE
1rdz_AMP_A_1.pdb
 23 25 0 0 0
SMALL
GASTEIGER

@<TRIPOS>ATOM
      1  P         35.8380   90.3380  -13.2910 P.3   339  AMP339      0.5327
      2  O1P       37.1150   91.0560  -13.1320 O.3   339  AMP339     -0.1145
      3  O2P       36.2060   89.2850  -14.3060 O.2   339  AMP339     -0.2224
      4  O3P       35.3780   89.4310  -12.1090 O.3   339  AMP339     -0.1145
      5  O5'       34.6330   91.2990  -13.7610 O.3   339  AMP339     -0.2675
      6  C5'       34.9870   92.6270  -14.2770 C.3   339  AMP339      0.1860
      7  C4'       34.1100   93.7120  -13.8290 C.3   339  AMP339      0.1823
      8  O4'       32.7610   93.4050  -13.4580 O.3   339  AMP339     -0.3135
      9  C3'       34.5670   94.5330  -12.5960 C.3   339  AMP339      0.2184
     10  O3'       35.8340   95.2510  -12.5920 O.3   339  AMP339     -0.2174
     11  C2'       33.3380   95.4360  -12.4120 C.3   339  AMP339      0.2570
     12  O2'       33.3420   96.6910  -13.0970 O.3   339  AMP339     -0.2130
     13  C1'       32.1640   94.5440  -12.8680 C.3   339  AMP339      0.3186
     14  N9        31.2760   94.2460  -11.6520 N.pl3 339  AMP339     -0.1439
     15  C8        30.4440   95.1400  -10.9210 C.3   339  AMP339      0.3377
     16  N7        29.9820   94.5530   -9.7440 N.2   339  AMP339     -0.2095
     17  C5        30.5730   93.3190   -9.7910 C.2   339  AMP339      0.2526
     18  C6        30.4540   92.3370   -8.8420 C.2   339  AMP339      0.4393
     19  N6        29.7240   92.5450   -7.8080 N.pl3 339  AMP339      0.2180
     20  N1        31.1420   91.1770   -9.0730 N.2   339  AMP339      0.0021
     21  C2        31.9350   91.0250  -10.2380 C.3   339  AMP339      0.5254
     22  N3        32.0620   91.9850  -11.2150 N.2   339  AMP339     -0.0055
     23  C4        31.3630   93.1130  -10.9360 C.2   339  AMP339      0.3518
@<TRIPOS>BOND
     1     3     1    2
     2     6     7    1
     3     6     5    1
     4     7     8    1
     5     7     9    1
     6     5     1    1
     7     8    13    1
     8     1     2    1
     9     1     4    1
    10    12    11    1
    11    13    11    1
    12    13    14    1
    13     9    10    1
    14     9    11    1
    15    14    23    1
    16    14    15    1
    17    22    23    2
    18    22    21    1
    19    23    17    1
    20    15    16    1
    21    21    20    1
    22    17    16    2
    23    17    18    1
    24    20    18    2
    25    18    19    1
