@<TRIPOS>MOLECULE
1rdz_F6P_A_1.pdb
 16 16 0 0 0
SMALL
GASTEIGER

@<TRIPOS>ATOM
      1  O1        44.4970  109.2260   10.8120 O.3   338  F6P338     -0.2148
      2  C1        43.1980  108.6790   10.9100 C.3   338  F6P338      0.2434
      3  C2        42.4340  109.0900   12.1920 C.3   338  F6P338      0.2807
      4  O2        42.7080  108.0670   13.1890 O.3   338  F6P338     -0.1896
      5  C3        40.9080  109.2100   11.8840 C.3   338  F6P338      0.2409
      6  O3        40.3370  107.9430   12.1730 O.3   338  F6P338     -0.2149
      7  C4        40.3910  110.3600   12.7910 C.3   338  F6P338      0.2167
      8  O4        39.0970  110.8750   12.4910 O.3   338  F6P338     -0.2175
      9  C5        41.6300  111.2670   12.8270 C.3   338  F6P338      0.1808
     10  O5        42.7750  110.4150   12.6010 O.3   338  F6P338     -0.3254
     11  C6        41.7270  111.8790   14.1390 C.3   338  F6P338      0.1859
     12  O6        42.9970  112.6200   14.3360 O.3   338  F6P338     -0.2675
     13  P         42.9330  113.8790   15.3770 P.3   338  F6P338      0.5327
     14  O1P       41.6560  114.7040   15.1840 O.2   338  F6P338     -0.2224
     15  O2P       42.9870  113.3430   16.8160 O.3   338  F6P338     -0.1145
     16  O3P       44.1150  114.8450   15.2110 O.3   338  F6P338     -0.1145
@<TRIPOS>BOND
     1     1     2    1
     2     2     3    1
     3     5     6    1
     4     5     3    1
     5     5     7    1
     6     3    10    1
     7     3     4    1
     8     8     7    1
     9    10     9    1
    10     7     9    1
    11     9    11    1
    12    11    12    1
    13    12    13    1
    14    14    13    2
    15    16    13    1
    16    13    15    1
