@<TRIPOS>MOLECULE
1re0_AFB_A_1.pdb
 20 21 0 0 0
SMALL
GASTEIGER

@<TRIPOS>ATOM
      1  OC7       41.7120   12.2160   35.5400 O.3   702  AFB702     -0.2231
      2  C7        41.6340   10.9370   36.2550 C.3   702  AFB702      0.1524
      3  C8        42.9750   10.4790   36.7710 C.3   702  AFB702      0.0373
      4  C6        40.7910   10.7860   37.4900 C.3   702  AFB702      0.0361
      5  C5        41.1120    9.3440   37.9420 C.3   702  AFB702      0.0413
      6  C9        42.6250    9.1410   37.4240 C.3   702  AFB702      0.0271
      7  C10       43.5350    8.7580   38.5480 C.2   702  AFB702     -0.0309
      8  C11       44.0620    7.5590   38.6970 C.2   702  AFB702     -0.0307
      9  C12       44.9780    7.0910   39.8160 C.3   702  AFB702      0.0258
     10  C13       44.4180    5.8920   40.6060 C.3   702  AFB702      0.0084
     11  C14       44.2590    4.5810   39.8140 C.3   702  AFB702      0.0440
     12  C15       42.8780    3.9220   39.8640 C.3   702  AFB702      0.1693
     13  C16       42.8250    2.6630   39.0710 C.3   702  AFB702      0.0473
     14  O16       42.0060    4.9390   39.2700 O.3   702  AFB702     -0.4492
     15  C1        40.7060    5.0400   39.6300 C.2   702  AFB702      0.3411
     16  OC1       40.1610    4.3330   40.4350 O.2   702  AFB702     -0.2449
     17  C2        39.9910    6.1330   38.9320 C.2   702  AFB702      0.0798
     18  C3        40.5820    6.9190   38.0530 C.2   702  AFB702      0.0127
     19  C4        40.0980    8.2470   37.5120 C.3   702  AFB702      0.1745
     20  OC4       38.8340    8.6170   38.0610 O.3   702  AFB702     -0.2183
@<TRIPOS>BOND
     1     1     2    1
     2     2     3    1
     3     2     4    1
     4     3     6    1
     5     6     5    1
     6     6     7    1
     7     4     5    1
     8    19     5    1
     9    19    18    1
    10    19    20    1
    11    18    17    2
    12     7     8    2
    13     8     9    1
    14    17    15    1
    15    13    12    1
    16    14    15    1
    17    14    12    1
    18    15    16    2
    19    11    12    1
    20    11    10    1
    21     9    10    1
