@<TRIPOS>MOLECULE
1re0_GDP_A_1.pdb
 28 30 0 0 0
SMALL
GASTEIGER

@<TRIPOS>ATOM
      1  PB        27.5820    9.4350   39.8410 P.3   700  GDP700      0.5373
      2  O1B       27.5590    8.9770   38.4380 O.2   700  GDP700     -0.2221
      3  O2B       28.3990    8.7060   40.8170 O.3   700  GDP700     -0.1143
      4  O3B       27.9880   10.9310   39.8440 O.3   700  GDP700     -0.1143
      5  O3A       26.0740    9.4930   40.4400 O.3   700  GDP700     -0.2261
      6  PA        25.4910    8.9030   41.8420 P.3   700  GDP700      0.2231
      7  O1A       25.6000    7.4190   41.8470 O.2   700  GDP700     -0.5169
      8  O2A       26.0560    9.6840   42.9520 O.3   700  GDP700     -0.4370
      9  O5'       23.9220    9.2930   41.6210 O.3   700  GDP700     -0.3111
     10  C5'       23.5050   10.6760   41.6320 C.3   700  GDP700      0.1813
     11  C4'       22.1180   10.8200   42.2800 C.3   700  GDP700      0.1799
     12  O4'       21.1810   10.0470   41.5180 O.3   700  GDP700     -0.3326
     13  C3'       22.0280   10.2900   43.7180 C.3   700  GDP700      0.2158
     14  O3'       21.2510   11.1790   44.4860 O.3   700  GDP700     -0.2175
     15  C2'       21.4030    8.9040   43.5800 C.3   700  GDP700      0.2310
     16  O2'       20.7320    8.3550   44.7290 O.3   700  GDP700     -0.2158
     17  C1'       20.5150    9.0970   42.3710 C.3   700  GDP700      0.2293
     18  N9        20.3070    7.8520   41.6130 N.pl3 700  GDP700     -0.2354
     19  C8        21.2070    6.9270   41.1560 C.3   700  GDP700      0.2246
     20  N7        20.7120    5.9220   40.5120 N.2   700  GDP700     -0.2322
     21  C5        19.3450    6.1810   40.5350 C.2   700  GDP700      0.2182
     22  C6        18.2400    5.4240   39.9740 C.1   700  GDP700      0.2372
     23  O6        18.2820    4.3600   39.3490 O.2   700  GDP700     -0.2069
     24  N1        16.9900    6.0440   40.2240 N.2   700  GDP700     -0.2485
     25  C2        16.8050    7.2400   40.9160 C.1   700  GDP700      0.2531
     26  N2        15.5500    7.6670   41.0480 N.pl3 700  GDP700     -0.0226
     27  N3        17.8340    7.9570   41.4400 N.2   700  GDP700     -0.3074
     28  C4        19.0730    7.3680   41.2130 C.2   700  GDP700      0.2300
@<TRIPOS>BOND
     1     2     1    2
     2    23    22    2
     3     1     4    1
     4     1     5    1
     5     1     3    1
     6    22    24    2
     7    22    21    1
     8    24    25    2
     9     5     6    1
    10    20    21    2
    11    20    19    1
    12    21    28    1
    13    25    26    1
    14    25    27    2
    15    19    18    1
    16    28    27    2
    17    28    18    1
    18    12    11    1
    19    12    17    1
    20    18    17    1
    21     9    10    1
    22     9     6    1
    23    10    11    1
    24     6     7    2
    25     6     8    1
    26    11    13    1
    27    17    15    1
    28    15    13    1
    29    15    16    1
    30    13    14    1
