@<TRIPOS>MOLECULE
1re1_NA3_A_1.pdb
 17 17 0 0 0
SMALL
GASTEIGER

@<TRIPOS>ATOM
      1  C7        39.1260   92.6950   21.1940 C.ar  501  NA3501      0.0144
      2  C8        40.0710   93.4100   21.9020 C.ar  501  NA3501      0.0539
      3  C9        40.3110   94.7460   21.6210 C.ar  501  NA3501      0.1055
      4  N2        39.6650   95.3880   20.6690 N.ar  501  NA3501     -0.2417
      5  C10       38.7390   94.6860   19.9690 C.ar  501  NA3501      0.1034
      6  C6        38.4260   93.3370   20.1870 C.ar  501  NA3501      0.0747
      7 BR1        41.0220   92.5010   23.2430 Br    501  NA3501     -0.0474
      8  C5        37.2780   92.6690   19.4350 C.2   501  NA3501      0.2663
      9  O4        36.7690   91.5970   19.7590 O.2   501  NA3501     -0.2683
     10  N1        36.9000   93.3400   18.3470 N.am  501  NA3501     -0.2001
     11  C3        35.7550   92.9370   17.5070 C.3   501  NA3501      0.1397
     12  C2        34.9560   94.1610   17.0120 C.3   501  NA3501      0.1383
     13  C4        36.0620   91.8800   16.4060 C.3   501  NA3501      0.2041
     14  O3        34.8670   91.5300   15.7050 O.3   501  NA3501     -0.2185
     15  C1        34.3700   94.9510   18.1600 C.2   501  NA3501      0.3667
     16  O2        33.9470   96.1170   17.9900 O.co2 501  NA3501     -0.2456
     17  O1        34.2880   94.4020   19.2770 O.co2 501  NA3501     -0.2456
@<TRIPOS>BOND
     1    14    13    1
     2    13    11    1
     3    12    11    1
     4    12    15    1
     5    11    10    1
     6    16    15   ar
     7    15    17   ar
     8    10     8   am
     9     8     9    2
    10     8     6    1
    11     5     6   ar
    12     5     4   ar
    13     6     1   ar
    14     4     3   ar
    15     1     2   ar
    16     3     2   ar
    17     2     7    1
