@<TRIPOS>MOLECULE
1re2_NAG_A_1.pdb
 14 14 0 0 0
SMALL
GASTEIGER

@<TRIPOS>ATOM
      1  C1        15.0970    5.4030   31.6790 C.3   132  NAG132      0.1665
      2  C2        15.2180    6.5500   32.6640 C.3   132  NAG132      0.1576
      3  C3        16.4800    6.3340   33.4940 C.3   132  NAG132      0.2069
      4  C4        16.4130    4.9800   34.1700 C.3   132  NAG132      0.2134
      5  C5        16.1550    3.8960   33.1330 C.3   132  NAG132      0.1809
      6  C6        15.8990    2.5330   33.7030 C.3   132  NAG132      0.2141
      7  C7        14.2420    8.6310   31.9640 C.2   132  NAG132      0.2420
      8  C8        14.3970    9.8930   31.1290 C.3   132  NAG132      0.0964
      9  N2        15.2740    7.7970   31.9320 N.am  132  NAG132     -0.2019
     10  O3        16.6100    7.3410   34.4840 O.3   132  NAG132     -0.2184
     11  O4        17.6790    4.7320   34.7930 O.3   132  NAG132     -0.2176
     12  O5        14.9950    4.1890   32.3780 O.3   132  NAG132     -0.3489
     13  O6        14.5610    2.1360   33.4270 O.3   132  NAG132     -0.2176
     14  O7        13.2480    8.4310   32.6680 O.2   132  NAG132     -0.2733
@<TRIPOS>BOND
     1     8     7    1
     2     1    12    1
     3     1     2    1
     4     9     7   am
     5     9     2    1
     6     7    14    2
     7    12     5    1
     8     2     3    1
     9     5     6    1
    10     5     4    1
    11    13     6    1
    12     3     4    1
    13     3    10    1
    14     4    11    1
