@<TRIPOS>MOLECULE
1re2_GAL_A_1.pdb
 11 11 0 0 0
SMALL
GASTEIGER

@<TRIPOS>ATOM
      1  C1        17.6930    4.4460   36.1390 C.3   131  GAL131      0.1777
      2  C2        19.1120    4.0480   36.5150 C.3   131  GAL131      0.2141
      3  C3        19.3400    4.0280   38.0210 C.3   131  GAL131      0.2173
      4  C4        18.7710    5.2900   38.6770 C.3   131  GAL131      0.2142
      5  C5        17.3190    5.4420   38.2550 C.3   131  GAL131      0.1810
      6  C6        16.5860    6.6150   38.8730 C.3   131  GAL131      0.2141
      7  O2        19.3620    2.7570   35.9760 O.3   131  GAL131     -0.2176
      8  O3        20.7360    3.9840   38.2440 O.3   131  GAL131     -0.2175
      9  O4        19.5240    6.4270   38.2580 O.3   131  GAL131     -0.2176
     10  O5        17.2730    5.6150   36.8360 O.3   131  GAL131     -0.3481
     11  O6        16.4060    6.4320   40.2690 O.3   131  GAL131     -0.2176
@<TRIPOS>BOND
     1     7     2    1
     2     1     2    1
     3     1    10    1
     4     2     3    1
     5    10     5    1
     6     3     8    1
     7     3     4    1
     8     5     4    1
     9     5     6    1
    10     9     4    1
    11     6    11    1
