@<TRIPOS>MOLECULE
1re3_III_G_1.pdb
 33 34 0 0 0
SMALL
GASTEIGER

@<TRIPOS>ATOM
      1  N         24.6410   32.5460   99.2820 N.3     1  GLY1       -0.1210
      2  CA        24.5870   31.5660  100.3900 C.3     1  GLY1        0.1956
      3  C         25.8730   31.5510  101.1950 C.2     1  GLY1        0.2612
      4  O         26.8410   32.2470  100.8650 O.2     1  GLY1       -0.2717
      5  N         25.8720   30.7580  102.2600 N.am    2  HIS2       -0.1961
      6  CA        27.0220   30.6250  103.1400 C.3     2  HIS2        0.1784
      7  C         27.9250   29.5050  102.6580 C.2     2  HIS2        0.2620
      8  O         27.4570   28.5010  102.1230 O.2     2  HIS2       -0.2715
      9  CB        26.5620   30.3240  104.5660 C.3     2  HIS2        0.0745
     10  CG        27.6820   30.0550  105.5220 C.2     2  HIS2        0.0653
     11  ND1       28.7300   30.9320  105.7110 N.2     2  HIS2       -0.2310
     12  CD2       27.8970   29.0270  106.3760 C.3     2  HIS2        0.1683
     13  CE1       29.5390   30.4580  106.6400 C.2     2  HIS2        0.1939
     14  NE2       29.0560   29.3030  107.0600 N.2     2  HIS2       -0.2440
     15  N         29.2240   29.6840  102.8440 N.am    3  ARG3       -0.1964
     16  CA        30.1840   28.6760  102.4410 C.3     3  ARG3        0.1714
     17  C         30.8500   28.1860  103.7280 C.2     3  ARG3        0.2459
     18  O         31.7340   28.8480  104.2760 O.2     3  ARG3       -0.2730
     19  CB        31.2110   29.2870  101.4880 C.3     3  ARG3        0.0347
     20  CG        31.6560   28.3420  100.3900 C.3     3  ARG3        0.0492
     21  CD        31.2490   28.8360   99.0140 C.3     3  ARG3        0.2205
     22  NE        29.8450   29.2090   98.9770 N.pl3   3  ARG3       -0.0865
     23  CZ        29.2010   29.6070   97.8870 C.cat   3  ARG3        0.5346
     24  NH1       29.8280   29.6850   96.7250 N.pl3   3  ARG3        0.1354
     25  NH2       27.9220   29.9320   97.9670 N.pl3   3  ARG3        0.1354
     26  N         30.4260   27.0150  104.2300 N.am    4  PRO4       -0.2699
     27  CA        30.9890   26.4580  105.4650 C.3     4  PRO4        0.1791
     28  C         32.5150   26.4540  105.5090 C.2     4  PRO4        0.3825
     29  O         33.1390   26.4850  104.4250 O.co2   4  PRO4       -0.2438
     30  CB        30.4030   25.0490  105.5040 C.3     4  PRO4        0.0332
     31  CG        30.2430   24.7130  104.0490 C.3     4  PRO4        0.0238
     32  CD        29.6510   25.9900  103.5070 C.3     4  PRO4        0.0940
     33  OXT       33.0640   26.4070  106.6320 O.co2   4  PRO4       -0.2438
@<TRIPOS>BOND
     1    24    23    1
     2    23    25    1
     3    23    22    2
     4    22    21    1
     5    21    20    1
     6     1     2    1
     7     2     3    1
     8    20    19    1
     9     4     3    2
    10     3     5   am
    11    19    16    1
    12     8     7    2
    13     5     6    1
    14    16    15    1
    15    16    17    1
    16     7    15   am
    17     7     6    1
    18     6     9    1
    19    32    31    1
    20    32    26    1
    21    17    26   am
    22    17    18    2
    23    31    30    1
    24    26    27    1
    25    29    28   ar
    26     9    10    1
    27    27    30    1
    28    27    28    1
    29    28    33   ar
    30    10    11    2
    31    10    12    1
    32    11    13    1
    33    12    14    1
    34    13    14    2
