@<TRIPOS>MOLECULE
1re5_CIT_C_1.pdb
 13 13 0 0 0
SMALL
GASTEIGER

@<TRIPOS>ATOM
      1  C1        14.5190   52.5930  -20.4100 C.2   800  CIT800      0.3676
      2  O1        14.4560   53.6200  -21.1670 O.co2 800  CIT800     -0.2456
      3  O2        15.6430   52.0100  -20.2340 O.co2 800  CIT800     -0.2456
      4  C2        13.2250   52.1400  -19.7350 C.3   800  CIT800      0.1524
      5  C3        12.5420   52.7370  -18.4460 C.3   800  CIT800      0.2253
      6  O7        11.7070   53.9770  -18.5380 O.3   800  CIT800     -0.2800
      7  C4        13.1800   52.0560  -17.2140 C.3   800  CIT800      0.1524
      8  C5        12.7730   52.3510  -15.8270 C.2   800  CIT800      0.3676
      9  O3        13.5210   52.3840  -14.8640 O.co2 800  CIT800     -0.2456
     10  O4        11.5700   52.5890  -15.6140 O.co2 800  CIT800     -0.2456
     11  C6        13.4500   54.0640  -17.9440 C.3   800  CIT800      0.4795
     12  O5        14.6750   54.0830  -18.3520 O.2   800  CIT800     -0.2414
     13  O6        12.8160   54.9170  -17.1340 O.2   800  CIT800     -0.2414
@<TRIPOS>BOND
     1     2     1   ar
     2     1     3   ar
     3     1     4    1
     4     4     5    1
     5     6     5    1
     6     6    11    1
     7     5    11    1
     8     5     7    1
     9    12    11    1
    10    11    13    1
    11     7     8    1
    12     8    10   ar
    13     8     9   ar
