@<TRIPOS>MOLECULE
1re7_FOL_A_1.pdb
 32 34 0 0 0
SMALL
GASTEIGER

@<TRIPOS>ATOM
      1  N1        17.1410   33.3020   76.4730 N.2   161  FOL161     -0.2672
      2  C2        17.1750   33.9990   77.5850 C.1   161  FOL161      0.2609
      3  NA2       16.2080   34.6970   78.0110 N.pl3 161  FOL161     -0.0220
      4  N3        18.3360   33.9680   78.3570 N.2   161  FOL161     -0.2466
      5  C4        19.4440   33.2680   78.0530 C.1   161  FOL161      0.2569
      6  O4        20.4120   33.3090   78.8150 O.2   161  FOL161     -0.2052
      7  C4A       19.3980   32.5190   76.7770 C.2   161  FOL161      0.2988
      8  N5        20.4330   31.6910   76.4200 N.2   161  FOL161     -0.3839
      9  C6        20.1850   30.9230   75.3210 C.2   161  FOL161      0.1356
     10  C7        18.9490   31.0680   74.6780 C.3   161  FOL161      0.1931
     11  N8        17.9850   31.8520   75.0090 N.2   161  FOL161     -0.1992
     12  C8A       18.2530   32.5810   76.0840 C.1   161  FOL161      0.1401
     13  C9        21.2020   29.9840   74.7930 C.3   161  FOL161      0.1683
     14  N10       22.2550   29.6540   75.7850 N.pl3 161  FOL161     -0.2303
     15  C11       21.5120   27.6810   79.3980 C.ar  161  FOL161      0.0551
     16  C12       22.8020   27.9930   78.9850 C.ar  161  FOL161      0.0059
     17  C13       23.0040   28.6220   77.7920 C.ar  161  FOL161      0.0162
     18  C14       21.8940   28.9760   76.9630 C.ar  161  FOL161      0.0658
     19  C15       20.6150   28.6920   77.3070 C.ar  161  FOL161      0.0162
     20  C16       20.4490   28.0350   78.5600 C.ar  161  FOL161      0.0059
     21  C         21.2510   26.9930   80.6460 C.2   161  FOL161      0.2652
     22  O         22.1740   26.5770   81.3120 O.2   161  FOL161     -0.2684
     23  N         20.0060   26.7870   81.0730 N.am  161  FOL161     -0.1918
     24  CA        19.6110   25.8980   82.2370 C.3   161  FOL161      0.1986
     25  CB        19.4590   26.7240   83.5560 C.3   161  FOL161      0.0451
     26  CG        20.7240   26.4000   84.5010 C.3   161  FOL161      0.1164
     27  CD        20.8380   27.4650   85.5870 C.2   161  FOL161      0.3649
     28  OE1       22.0660   27.7080   85.8280 O.co2 161  FOL161     -0.2457
     29  OE2       19.8200   27.9810   86.1060 O.co2 161  FOL161     -0.2457
     30  CT        18.3690   25.0790   81.9640 C.2   161  FOL161      0.3842
     31  O1        17.6680   25.3580   80.9500 O.co2 161  FOL161     -0.2437
     32  O2        18.1190   24.1380   82.8110 O.co2 161  FOL161     -0.2437
@<TRIPOS>BOND
     1    10    11    1
     2    10     9    1
     3    13     9    1
     4    13    14    1
     5    11    12    2
     6     9     8    2
     7    14    18    1
     8    12     1    2
     9    12     7    1
    10     8     7    2
    11     1     2    2
    12     7     5    1
    13    18    19   ar
    14    18    17   ar
    15    19    20   ar
    16     2     3    1
    17     2     4    2
    18    17    16   ar
    19     5     4    2
    20     5     6    2
    21    20    15   ar
    22    16    15   ar
    23    15    21    1
    24    21    23   am
    25    21    22    2
    26    31    30   ar
    27    23    24    1
    28    30    24    1
    29    30    32   ar
    30    24    25    1
    31    25    26    1
    32    26    27    1
    33    27    28   ar
    34    27    29   ar
