@<TRIPOS>MOLECULE
1re8_BD2_A_1.pdb
 35 38 0 0 0
SMALL
GASTEIGER

@<TRIPOS>ATOM
      1  O1        17.2500   39.0190   20.1380 O.3   351  BD2351     -0.2866
      2  C1        15.9620   39.3050   19.9190 C.ar  351  BD2351      0.1957
      3  C2        15.5600   40.6340   19.7310 C.ar  351  BD2351      0.0422
      4  C3        14.2200   40.9310   19.5050 C.ar  351  BD2351      0.0078
      5  C4        13.2670   39.8980   19.4620 C.ar  351  BD2351      0.0552
      6  C5        13.6730   38.5730   19.6400 C.ar  351  BD2351      0.0078
      7  C6        15.0220   38.2770   19.8690 C.ar  351  BD2351      0.0422
      8  C7        11.9300   40.1900   19.2320 C.2   351  BD2351      0.2649
      9  O7        11.5140   41.3510   19.4060 O.2   351  BD2351     -0.2684
     10  N8        11.0860   39.2270   18.8290 N.am  351  BD2351     -0.1982
     11  C8         9.6810   39.2580   19.2150 C.3   351  BD2351      0.1528
     12  C9         8.6060   39.5970   18.1760 C.3   351  BD2351      0.1904
     13  C10        7.3800   38.7050   18.0430 C.3   351  BD2351      0.0470
     14  C11        6.3740   39.0360   19.1410 C.3   351  BD2351      0.0226
     15  C12        6.9100   38.6030   20.5000 C.3   351  BD2351      0.0889
     16  N13        7.9670   39.5040   20.9410 N.3   351  BD2351     -0.2161
     17  C14        9.2740   38.9430   20.6460 C.3   351  BD2351      0.1140
     18  O9         8.7430   40.7760   17.3730 O.3   351  BD2351     -0.4474
     19  C15        8.2870   40.5830   16.0360 C.2   351  BD2351      0.3411
     20  O15        8.5550   39.5230   15.4270 O.2   351  BD2351     -0.2449
     21  C16        7.5560   41.5820   15.4020 C.ar  351  BD2351      0.0756
     22  C17        7.5900   41.6930   14.0050 C.ar  351  BD2351      0.0065
     23  C18        6.8540   42.6900   13.3670 C.ar  351  BD2351      0.0034
     24  C19        6.0850   43.6000   14.1060 C.ar  351  BD2351      0.0391
     25  C20        6.0590   43.4990   15.5040 C.ar  351  BD2351      0.0034
     26  C21        6.7910   42.4860   16.1490 C.ar  351  BD2351      0.0065
     27  C22        5.3620   44.5860   13.4360 C.2   351  BD2351      0.1986
     28  O22        4.9900   44.3650   12.2710 O.2   351  BD2351     -0.2865
     29  C23        5.0260   45.8130   14.0180 C.ar  351  BD2351      0.0778
     30  C24        3.6740   46.1440   14.1670 C.ar  351  BD2351      0.0064
     31  C25        3.3040   47.3720   14.7390 C.ar  351  BD2351      0.0003
     32  C26        4.2900   48.2590   15.1650 C.ar  351  BD2351      0.0033
     33  C27        5.6400   47.9370   15.0230 C.ar  351  BD2351      0.0421
     34  C28        6.0170   46.7200   14.4480 C.ar  351  BD2351      0.1987
     35  O28        7.3150   46.4200   14.3260 O.3   351  BD2351     -0.2865
@<TRIPOS>BOND
     1    28    27    2
     2    23    22   ar
     3    23    24   ar
     4    27    29    1
     5    27    24    1
     6    22    21   ar
     7    29    30   ar
     8    29    34   ar
     9    24    25   ar
    10    30    31   ar
    11    35    34    1
    12    34    33   ar
    13    31    32   ar
    14    33    32   ar
    15    21    19    1
    16    21    26   ar
    17    20    19    2
    18    25    26   ar
    19    19    18    1
    20    18    12    1
    21    13    12    1
    22    13    14    1
    23    12    11    1
    24    10    11    1
    25    10     8   am
    26    14    15    1
    27    11    17    1
    28     8     9    2
    29     8     5    1
    30     5     4   ar
    31     5     6   ar
    32     4     3   ar
    33     6     7   ar
    34     3     2   ar
    35     7     2   ar
    36     2     1    1
    37    15    16    1
    38    17    16    1
