@<TRIPOS>MOLECULE
1re9_DSO_A_1.pdb
 38 42 0 0 0
SMALL
GASTEIGER

@<TRIPOS>ATOM
      1  C1        31.4300   24.1000   24.2150 C.3   601  DSO601      0.0000
      2  C2        30.3910   24.1120   23.0280 C.3   601  DSO601      0.0005
      3  C3        28.9610   24.5020   23.4690 C.3   601  DSO601      0.0000
      4  C4        30.9340   25.1180   21.9490 C.3   601  DSO601      0.0087
      5  C5        31.3970   25.4830   24.9210 C.3   601  DSO601      0.0005
      6  C6        29.9020   25.8260   25.2950 C.3   601  DSO601      0.0000
      7  C7        31.9000   26.4980   23.8460 C.3   601  DSO601      0.0087
      8  C8        28.8730   25.9030   24.1190 C.3   601  DSO601      0.0005
      9  C9        30.9300   26.5300   22.6120 C.3   601  DSO601      0.0705
     10  C10       29.4770   26.9660   23.1040 C.3   601  DSO601      0.0087
     11  C11       21.4050   38.1540   19.8130 C.ar  601  DSO601      0.0145
     12  C12       21.5880   36.7870   19.5110 C.ar  601  DSO601      0.0013
     13  C13       22.5220   36.3720   18.6000 C.ar  601  DSO601      0.0014
     14  C14       22.1640   39.1250   19.1960 C.ar  601  DSO601      0.0479
     15  C15       23.1520   38.7200   18.2300 C.ar  601  DSO601      0.0146
     16  C16       23.3260   37.3230   17.9350 C.ar  601  DSO601      0.0199
     17  C17       24.3320   36.9870   16.9620 C.ar  601  DSO601      0.1236
     18  C18       25.0860   37.9430   16.3450 C.ar  601  DSO601      0.0200
     19  C19       24.8900   39.3020   16.6550 C.ar  601  DSO601      0.0014
     20  C20       23.9490   39.6940   17.5680 C.ar  601  DSO601      0.0013
     21  N21       22.0080   40.5420   19.4650 N.pl3 601  DSO601     -0.3041
     22  C22       20.6360   40.8940   19.8960 C.3   601  DSO601      0.1122
     23  C23       23.0050   41.1870   20.3530 C.3   601  DSO601      0.1122
     24  C24       31.4490   27.5620   21.5950 C.2   601  DSO601      0.2404
     25  N25       31.4130   28.8760   21.9870 N.am  601  DSO601     -0.2054
     26  C26       31.8660   30.0460   21.1790 C.3   601  DSO601      0.1151
     27  C27       30.8190   30.3990   20.1370 C.3   601  DSO601      0.0234
     28  C28       29.4190   30.4330   20.6690 C.3   601  DSO601      0.0018
     29  C29       28.8070   31.8090   20.4580 C.3   601  DSO601      0.0001
     30  C30       27.8580   31.7980   19.2480 C.3   601  DSO601      0.0000
     31  C31       26.9670   33.0360   19.1100 C.3   601  DSO601      0.0015
     32  C32       25.6750   32.4920   18.5500 C.3   601  DSO601      0.0208
     33  C33       24.6700   33.6440   18.4050 C.3   601  DSO601      0.1155
     34  N34       25.4980   34.6870   17.7620 N.3   601  DSO601     -0.0778
     35  O35       25.4900   35.2280   15.3370 O.2   601  DSO601     -0.1516
     36  S36       24.5650   35.2980   16.4140 S.O2  601  DSO601      0.0768
     37  O37       23.2470   34.7870   16.2610 O.2   601  DSO601     -0.1516
     38  O38       32.0150   27.2240   20.5630 O.2   601  DSO601     -0.2734
@<TRIPOS>BOND
     1    35    36    2
     2    37    36    2
     3    18    19   ar
     4    18    17   ar
     5    36    17    1
     6    36    34    1
     7    19    20   ar
     8    17    16   ar
     9    20    15   ar
    10    34    33    1
    11    16    15   ar
    12    16    13   ar
    13    15    14   ar
    14    33    32    1
    15    32    31    1
    16    13    12   ar
    17    31    30    1
    18    14    21    1
    19    14    11   ar
    20    30    29    1
    21    21    22    1
    22    21    23    1
    23    12    11   ar
    24    27    28    1
    25    27    26    1
    26    29    28    1
    27    38    24    2
    28    26    25    1
    29    24    25   am
    30    24     9    1
    31     4     9    1
    32     4     2    1
    33     9    10    1
    34     9     7    1
    35     2     3    1
    36     2     1    1
    37    10     8    1
    38     3     8    1
    39     7     5    1
    40     8     6    1
    41     1     5    1
    42     5     6    1
