@<TRIPOS>MOLECULE
1re9_HEM_A_1.pdb
 43 50 0 0 0
SMALL
GASTEIGER

@<TRIPOS>ATOM
      1 FE         33.3600   22.1430   27.7460 Fe    501  HEM501      0.0000
      2  CHA       32.4370   20.4150   24.9390 C.2   501  HEM501      0.0000
      3  CHB       30.0680   22.4190   28.6460 C.2   501  HEM501      0.0000
      4  CHC       34.2520   24.0060   30.4120 C.2   501  HEM501      0.0000
      5  CHD       36.5240   22.3340   26.5340 C.2   501  HEM501      0.0000
      6  NA        31.5660   21.5970   26.9080 N.2   501  HEM501      0.0000
      7  C1A       31.3920   20.8110   25.8100 C.2   501  HEM501      0.0000
      8  C2A       30.0510   20.4810   25.6350 C.2   501  HEM501      0.0000
      9  C3A       29.3670   21.1380   26.6510 C.2   501  HEM501      0.0000
     10  C4A       30.3240   21.7580   27.4440 C.2   501  HEM501      0.0000
     11  CMA       27.8700   21.1110   26.8840 C.3   501  HEM501      0.0000
     12  CAA       29.4030   19.6100   24.5190 C.3   501  HEM501      0.0000
     13  CBA       28.8660   20.4740   23.3900 C.3   501  HEM501      0.0000
     14  CGA       28.2750   19.6590   22.2340 C.2   501  HEM501      0.0000
     15  O1A       27.8820   20.2510   21.2190 O.co2 501  HEM501      0.0000
     16  O2A       27.8050   18.5360   22.4400 O.co2 501  HEM501      0.0000
     17  NB        32.3290   23.1720   29.2100 N.ar  501  HEM501      0.0000
     18  C1B       31.0180   23.0750   29.4810 C.ar  501  HEM501      0.0000
     19  C2B       30.7000   23.6700   30.7150 C.ar  501  HEM501      0.0000
     20  C3B       31.9030   24.1030   31.2260 C.ar  501  HEM501      0.0000
     21  C4B       32.8760   23.7650   30.2670 C.ar  501  HEM501      0.0000
     22  CMB       29.2960   23.6850   31.3120 C.3   501  HEM501      0.0000
     23  CAB       32.2160   24.7570   32.4440 C.3   501  HEM501      0.0000
     24  CBB       31.3630   24.8770   33.5780 C.3   501  HEM501      0.0000
     25  NC        35.1060   23.0280   28.3560 N.2   501  HEM501      0.0000
     26  C1C       35.2820   23.7200   29.4850 C.2   501  HEM501      0.0000
     27  C2C       36.6300   24.0130   29.7200 C.2   501  HEM501      0.0000
     28  C3C       37.2690   23.6850   28.5130 C.2   501  HEM501      0.0000
     29  C4C       36.3180   23.0310   27.7480 C.2   501  HEM501      0.0000
     30  CMC       37.2640   24.5520   31.0120 C.3   501  HEM501      0.0000
     31  CAC       38.6340   23.8220   28.2220 C.3   501  HEM501      0.0000
     32  CBC       39.2540   24.4220   27.0830 C.3   501  HEM501      0.0000
     33  ND        34.2920   21.6100   25.9890 N.ar  501  HEM501      0.0000
     34  C1D       35.6210   21.7160   25.6790 C.ar  501  HEM501      0.0000
     35  C2D       35.9360   20.9940   24.5070 C.ar  501  HEM501      0.0000
     36  C3D       34.7550   20.4050   24.1020 C.ar  501  HEM501      0.0000
     37  C4D       33.7980   20.7510   25.0590 C.ar  501  HEM501      0.0000
     38  CMD       37.2830   20.9020   23.8260 C.3   501  HEM501      0.0000
     39  CAD       34.5190   19.7050   22.7320 C.3   501  HEM501      0.0000
     40  CBD       34.6250   18.1470   22.8490 C.3   501  HEM501      0.0000
     41  CGD       34.3390   17.4620   21.5000 C.2   501  HEM501      0.0000
     42  O1D       34.5230   16.2550   21.4260 O.co2 501  HEM501      0.0000
     43  O2D       33.6960   18.1240   20.6710 O.co2 501  HEM501      0.0000
@<TRIPOS>BOND
     1    43    41   ar
     2    15    14   ar
     3    42    41   ar
     4    41    40    1
     5    14    16   ar
     6    14    13    1
     7    39    40    1
     8    39    36    1
     9    13    12    1
    10    38    35    1
    11    36    35   ar
    12    36    37   ar
    13    35    34   ar
    14    12     8    1
    15     2    37    2
    16     2     7    1
    17    37    33   ar
    18     8     7    1
    19     8     9    2
    20    34    33   ar
    21    34     5    2
    22     7     6    2
    23    33     1    1
    24     5    29    1
    25     9    11    1
    26     9    10    1
    27     6    10    1
    28     6     1    1
    29    32    31    1
    30    10     3    2
    31     1    25    1
    32     1    17    1
    33    29    25    2
    34    29    28    1
    35    31    28    1
    36    25    26    1
    37    28    27    2
    38     3    18    1
    39    17    18   ar
    40    17    21   ar
    41    18    19   ar
    42    26    27    1
    43    26     4    2
    44    27    30    1
    45    21     4    1
    46    21    20   ar
    47    19    20   ar
    48    19    22    1
    49    20    23    1
    50    23    24    1
