@<TRIPOS>MOLECULE
1rea_ADP_A_1.pdb
 27 29 0 0 0
SMALL
GASTEIGER

@<TRIPOS>ATOM
      1  PB        18.1850   17.8340    7.2340 P.3   500  ADP500      0.5373
      2  O1B       17.6670   16.4410    7.1020 O.2   500  ADP500     -0.2221
      3  O2B       17.2870   18.8480    7.7940 O.3   500  ADP500     -0.1143
      4  O3B       19.3850   17.8150    8.1920 O.3   500  ADP500     -0.1143
      5  PA        20.0810   18.7680    5.2650 P.3   500  ADP500      0.2231
      6  O1A       20.7030   19.8270    6.0700 O.3   500  ADP500     -0.4370
      7  O2A       20.8360   17.5210    4.9950 O.2   500  ADP500     -0.5169
      8  O3A       18.6440   18.4480    5.8440 O.3   500  ADP500     -0.2261
      9  O5'       19.6370   19.3010    3.8420 O.3   500  ADP500     -0.3111
     10  C5'       19.0030   20.5250    3.5450 C.3   500  ADP500      0.1813
     11  C4'       19.4490   21.0170    2.1690 C.3   500  ADP500      0.1821
     12  O4'       20.8790   21.2520    2.1310 O.3   500  ADP500     -0.3135
     13  C3'       19.1940   20.0330    1.0300 C.3   500  ADP500      0.2184
     14  O3'       17.8420   19.9500    0.5390 O.3   500  ADP500     -0.2174
     15  C2'       20.2300   20.5190    0.0320 C.3   500  ADP500      0.2570
     16  O2'       20.0040   21.8480   -0.4970 O.3   500  ADP500     -0.2130
     17  C1'       21.4230   20.6660    0.9300 C.3   500  ADP500      0.3186
     18  N9        22.1390   19.3680    1.1020 N.pl3 500  ADP500     -0.1439
     19  C8        22.0820   18.4700    2.1640 C.3   500  ADP500      0.3377
     20  N7        22.9390   17.4860    2.0830 N.2   500  ADP500     -0.2095
     21  C5        23.5770   17.7150    0.8670 C.2   500  ADP500      0.2526
     22  C6        24.6180   17.0270    0.2450 C.2   500  ADP500      0.4393
     23  N6        25.1090   15.8990    0.7710 N.pl3 500  ADP500      0.2180
     24  N1        25.1200   17.5780   -0.8760 N.2   500  ADP500      0.0021
     25  C2        24.5750   18.7030   -1.3600 C.3   500  ADP500      0.5254
     26  N3        23.6140   19.4700   -0.8620 N.2   500  ADP500     -0.0055
     27  C4        23.1380   18.8810    0.2730 C.2   500  ADP500      0.3518
@<TRIPOS>BOND
     1    25    24    1
     2    25    26    1
     3    24    22    2
     4    26    27    2
     5    16    15    1
     6    15    17    1
     7    15    13    1
     8    22    23    1
     9    22    21    1
    10    27    21    1
    11    27    18    1
    12    14    13    1
    13    21    20    2
    14    17    18    1
    15    17    12    1
    16    13    11    1
    17    18    19    1
    18    20    19    1
    19    12    11    1
    20    11    10    1
    21    10     9    1
    22     9     5    1
    23     7     5    2
    24     5     8    1
    25     5     6    1
    26     8     1    1
    27     2     1    2
    28     1     3    1
    29     1     4    1
