@<TRIPOS>MOLECULE
1red_C5X_B_1.pdb
 16 16 0 0 0
SMALL
GASTEIGER

@<TRIPOS>ATOM
      1  C1        82.2580   22.8250   10.5840 C.3   401  C5X401      0.2695
      2  C2        81.8680   23.9790   11.5150 C.3   401  C5X401      0.2406
      3  C3        83.0940   24.2700   12.3840 C.3   401  C5X401      0.2198
      4  C4        83.5210   23.0130   13.1570 C.3   401  C5X401      0.2143
      5  C5        83.6940   21.8160   12.2100 C.3   401  C5X401      0.1803
      6  O1        81.2380   22.5430    9.6450 O.3   401  C5X401     -0.3286
      7  O2        81.4980   25.1470   10.8060 O.3   401  C5X401     -0.2149
      8  O3        82.8350   25.2980   13.3040 O.3   401  C5X401     -0.2174
      9  O4        84.7590   23.2700   13.8090 O.3   401  C5X401     -0.2176
     10  O5        82.5430   21.6770   11.3730 O.3   401  C5X401     -0.3257
     11  C1'       81.4970   21.4700    8.7060 C.3   401  C5X401      0.1450
     12  C2'       80.5720   21.5850    7.4710 C.3   401  C5X401      0.0348
     13  C3'       79.1610   21.0250    7.7230 C.3   401  C5X401      0.0355
     14  C4'       78.4740   21.6850    8.9340 C.3   401  C5X401      0.1522
     15  C5'       77.2950   20.9290    9.4850 C.3   401  C5X401      0.0355
     16  O'        78.0490   22.9830    8.5450 O.3   401  C5X401     -0.2231
@<TRIPOS>BOND
     1    12    13    1
     2    12    11    1
     3    13    14    1
     4    16    14    1
     5    11     6    1
     6    14    15    1
     7     6     1    1
     8     1    10    1
     9     1     2    1
    10     7     2    1
    11    10     5    1
    12     2     3    1
    13     5     4    1
    14     3     4    1
    15     3     8    1
    16     4     9    1
