@<TRIPOS>MOLECULE
1ree_C4X_B_1.pdb
 15 15 0 0 0
SMALL
GASTEIGER

@<TRIPOS>ATOM
      1  C1        81.7270   22.7270   10.6690 C.3   401  C4X401      0.2695
      2  C2        81.5110   23.9290   11.6290 C.3   401  C4X401      0.2406
      3  C3        82.8390   24.2050   12.3590 C.3   401  C4X401      0.2198
      4  C4        83.2900   22.9650   13.1530 C.3   401  C4X401      0.2143
      5  C5        83.3480   21.7540   12.1930 C.3   401  C4X401      0.1803
      6  O1        80.5500   22.3690    9.9040 O.3   401  C4X401     -0.3285
      7  O2        81.1570   25.1110   10.9360 O.3   401  C4X401     -0.2149
      8  O3        82.7050   25.2890   13.2350 O.3   401  C4X401     -0.2174
      9  O4        84.5650   23.2000   13.7510 O.3   401  C4X401     -0.2176
     10  O5        82.1140   21.6090   11.4620 O.3   401  C4X401     -0.3257
     11  C1'       80.8060   22.0160    8.5100 C.3   401  C4X401      0.1475
     12  C2'       79.6650   21.2260    7.8350 C.3   401  C4X401      0.0650
     13  C3'       78.4470   21.9950    7.2880 C.3   401  C4X401      0.1546
     14  C4'       78.7590   22.9980    6.1450 C.3   401  C4X401      0.0356
     15  O'        77.8740   22.6900    8.3660 O.3   401  C4X401     -0.2231
@<TRIPOS>BOND
     1    14    13    1
     2    13    12    1
     3    13    15    1
     4    12    11    1
     5    11     6    1
     6     6     1    1
     7     1    10    1
     8     1     2    1
     9     7     2    1
    10    10     5    1
    11     2     3    1
    12     5     4    1
    13     3     4    1
    14     3     8    1
    15     4     9    1
