@<TRIPOS>MOLECULE
1ref_C3X_B_1.pdb
 14 14 0 0 0
SMALL
GASTEIGER

@<TRIPOS>ATOM
      1  C1        81.8890   22.6450   10.7480 C.3   401  C3X401      0.2695
      2  C2        81.8160   23.9420   11.5850 C.3   401  C3X401      0.2406
      3  C3        83.1800   24.2440   12.2200 C.3   401  C3X401      0.2198
      4  C4        83.7320   23.0200   12.9650 C.3   401  C3X401      0.2143
      5  C5        83.7480   21.7910   12.0430 C.3   401  C3X401      0.1803
      6  O1        80.5750   22.2260   10.3410 O.3   401  C3X401     -0.3258
      7  O2        81.4670   25.0410   10.7590 O.3   401  C3X401     -0.2149
      8  O3        83.0610   25.3090   13.1310 O.3   401  C3X401     -0.2174
      9  O4        85.0420   23.2930   13.4000 O.3   401  C3X401     -0.2176
     10  O5        82.4390   21.5810   11.5090 O.3   401  C3X401     -0.3257
     11  C1'       80.4480   21.9050    8.9430 C.3   401  C3X401      0.1775
     12  C2'       79.1460   21.1780    8.5780 C.3   401  C3X401      0.1816
     13  C3'       77.8400   21.7730    9.1790 C.3   401  C3X401      0.0382
     14  O'        79.0060   21.2780    7.1520 O.3   401  C3X401     -0.2204
@<TRIPOS>BOND
     1    14    12    1
     2    12    11    1
     3    12    13    1
     4    11     6    1
     5     6     1    1
     6     1    10    1
     7     1     2    1
     8     7     2    1
     9    10     5    1
    10     2     3    1
    11     5     4    1
    12     3     4    1
    13     3     8    1
    14     4     9    1
