@<TRIPOS>MOLECULE
1rej_B1L_A_1.pdb
 27 29 0 0 0
SMALL
GASTEIGER

@<TRIPOS>ATOM
      1  O1        16.9020   39.1290   19.4210 O.3   351  B1L351     -0.2866
      2  C1        15.6260   39.4820   19.2210 C.ar  351  B1L351      0.1957
      3  C2        15.2800   40.8300   19.0950 C.ar  351  B1L351      0.0422
      4  C3        13.9470   41.1980   18.8910 C.ar  351  B1L351      0.0078
      5  C4        12.9590   40.2120   18.8100 C.ar  351  B1L351      0.0552
      6  C5        13.3010   38.8640   18.9310 C.ar  351  B1L351      0.0078
      7  C6        14.6340   38.5000   19.1430 C.ar  351  B1L351      0.0422
      8  C7        11.6330   40.5750   18.6060 C.2   351  B1L351      0.2649
      9  O7        11.3220   41.7800   18.4860 O.2   351  B1L351     -0.2684
     10  N8        10.6710   39.6300   18.5350 N.am  351  B1L351     -0.1982
     11  C8         9.2740   39.9710   18.7520 C.3   351  B1L351      0.1528
     12  C9         8.4700   39.6660   17.4790 C.3   351  B1L351      0.1904
     13  C10        6.9560   39.6620   17.7350 C.3   351  B1L351      0.0470
     14  C11        6.5410   38.4710   18.5840 C.3   351  B1L351      0.0226
     15  C12        6.3870   38.9240   20.0260 C.3   351  B1L351      0.0889
     16  N13        7.5010   39.7750   20.4130 N.3   351  B1L351     -0.2161
     17  C14        8.7570   39.2010   19.9620 C.3   351  B1L351      0.1140
     18  O9         8.7600   40.6800   16.5230 O.3   351  B1L351     -0.4474
     19  C15        8.1770   40.3930   15.2660 C.2   351  B1L351      0.3411
     20  O15        8.3170   39.2670   14.7700 O.2   351  B1L351     -0.2449
     21  C16        7.4700   41.3770   14.5890 C.ar  351  B1L351      0.0758
     22  C17        6.6430   42.2620   15.2960 C.ar  351  B1L351      0.0097
     23  C18        5.9290   43.2540   14.6040 C.ar  351  B1L351      0.0422
     24  C19        6.0590   43.3760   13.2190 C.ar  351  B1L351      0.1958
     25  C20        6.8880   42.4920   12.5160 C.ar  351  B1L351      0.0422
     26  C21        7.6010   41.5040   13.2060 C.ar  351  B1L351      0.0097
     27  O19        5.3820   44.3220   12.5500 O.3   351  B1L351     -0.2866
@<TRIPOS>BOND
     1    25    26   ar
     2    25    24   ar
     3    27    24    1
     4    26    21   ar
     5    24    23   ar
     6    21    19    1
     7    21    22   ar
     8    23    22   ar
     9    20    19    2
    10    19    18    1
    11    18    12    1
    12    12    13    1
    13    12    11    1
    14    13    14    1
    15     9     8    2
    16    10     8   am
    17    10    11    1
    18    14    15    1
    19     8     5    1
    20    11    17    1
    21     5     4   ar
    22     5     6   ar
    23     4     3   ar
    24     6     7   ar
    25     3     2   ar
    26     7     2   ar
    27     2     1    1
    28    17    16    1
    29    15    16    1
