@<TRIPOS>MOLECULE
1rek_B8L_A_1.pdb
 41 44 0 0 0
SMALL
GASTEIGER

@<TRIPOS>ATOM
      1  O1        17.4550   38.8030   20.0470 O.3   351  B8L351     -0.2869
      2  C1        16.0770   39.1820   19.8310 C.ar  351  B8L351      0.1917
      3  C2        15.7230   40.5320   19.8190 C.ar  351  B8L351      0.0418
      4  C3        14.3960   40.9000   19.5690 C.ar  351  B8L351      0.0078
      5  C4        13.3930   39.9380   19.3460 C.ar  351  B8L351      0.0549
      6  C5        13.7820   38.5800   19.3750 C.ar  351  B8L351      0.0034
      7  C6        15.1130   38.1930   19.6170 C.ar  351  B8L351      0.0166
      8  C7        12.0380   40.3230   19.3110 C.2   351  B8L351      0.2649
      9  O7        11.6680   41.5020   19.3660 O.2   351  B8L351     -0.2684
     10  N8        11.1770   39.3140   19.1060 N.am  351  B8L351     -0.1982
     11  C8         9.7340   39.4380   19.2820 C.3   351  B8L351      0.1528
     12  C9         8.9540   39.1420   17.9680 C.3   351  B8L351      0.1904
     13  C10        7.5320   38.5560   18.0870 C.3   351  B8L351      0.0470
     14  C11        6.6600   39.3150   19.0750 C.3   351  B8L351      0.0226
     15  C12        6.8090   38.7520   20.4870 C.3   351  B8L351      0.0889
     16  N13        8.1220   39.0270   21.0620 N.3   351  B8L351     -0.2161
     17  O9         8.9290   40.4050   17.2870 O.3   351  B8L351     -0.4474
     18  C14        9.3870   38.5830   20.4960 C.3   351  B8L351      0.1140
     19  C15        8.5220   40.3350   15.8860 C.2   351  B8L351      0.3411
     20  O15        8.6230   39.2810   15.2610 O.2   351  B8L351     -0.2449
     21  C16        7.7830   41.3680   15.3100 C.ar  351  B8L351      0.0756
     22  C17        7.8520   41.6350   13.9320 C.ar  351  B8L351      0.0065
     23  C18        7.1140   42.6800   13.3620 C.ar  351  B8L351      0.0034
     24  C19        6.3030   43.4920   14.1580 C.ar  351  B8L351      0.0391
     25  C20        6.2370   43.2300   15.5290 C.ar  351  B8L351      0.0034
     26  C21        6.9760   42.1860   16.0990 C.ar  351  B8L351      0.0065
     27  C22        5.5260   44.5080   13.5760 C.2   351  B8L351      0.1987
     28  O22        4.9230   44.2530   12.5260 O.2   351  B8L351     -0.2865
     29  C23        5.3570   45.7720   14.1560 C.ar  351  B8L351      0.0808
     30  C24        4.0420   46.2140   14.2960 C.ar  351  B8L351      0.0433
     31  C26        3.7410   47.5190   14.7160 C.ar  351  B8L351      0.1390
     32  O26        2.3560   47.9510   14.8370 O.3   351  B8L351     -0.4714
     33  C27        4.7600   48.4250   14.9870 C.ar  351  B8L351      0.0402
     34  C28        6.0790   48.0090   14.8580 C.ar  351  B8L351      0.0452
     35  C29        6.3720   46.7090   14.4220 C.ar  351  B8L351      0.1989
     36  O29        7.7500   46.3220   14.2310 O.3   351  B8L351     -0.2865
     37  C66       15.5120   36.7540   19.6510 C.3   351  B8L351      0.0255
     38  C71       15.1790   36.0260   18.3340 C.3   351  B8L351      0.0045
     39  C72       14.9010   36.0550   20.8600 C.3   351  B8L351      0.0048
     40  C81       16.1880   36.3800   17.2120 C.3   351  B8L351      0.0003
     41  C30        1.2890   47.0600   15.0440 C.3   351  B8L351      0.2525
@<TRIPOS>BOND
     1    28    27    2
     2    23    22   ar
     3    23    24   ar
     4    27    29    1
     5    27    24    1
     6    22    21   ar
     7    29    30   ar
     8    29    35   ar
     9    24    25   ar
    10    36    35    1
    11    30    31   ar
    12    35    34   ar
    13    31    32    1
    14    31    33   ar
    15    32    41    1
    16    34    33   ar
    17    20    19    2
    18    21    19    1
    19    21    26   ar
    20    25    26   ar
    21    19    17    1
    22    40    38    1
    23    17    12    1
    24    12    13    1
    25    12    11    1
    26    13    14    1
    27    38    37    1
    28    14    15    1
    29    10    11    1
    30    10     8   am
    31    11    18    1
    32     8     5    1
    33     8     9    2
    34     5     6   ar
    35     5     4   ar
    36     6     7   ar
    37     4     3   ar
    38     7    37    1
    39     7     2   ar
    40    37    39    1
    41     3     2   ar
    42     2     1    1
    43    15    16    1
    44    18    16    1
