@<TRIPOS>MOLECULE
1rem_NAG_A_1.pdb
 14 14 0 0 0
SMALL
GASTEIGER

@<TRIPOS>ATOM
      1  C1         1.6300   24.2670   35.6580 C.3   132  NAG132      0.1665
      2  C2         2.1260   23.2220   36.6530 C.3   132  NAG132      0.1576
      3  C3         1.1620   23.0830   37.8220 C.3   132  NAG132      0.2069
      4  C4         0.8890   24.4510   38.4400 C.3   132  NAG132      0.2134
      5  C5         0.4300   25.4210   37.3590 C.3   132  NAG132      0.1809
      6  C6         0.1400   26.8200   37.8630 C.3   132  NAG132      0.2141
      7  C7         3.4620   21.4690   35.6870 C.2   132  NAG132      0.2420
      8  C8         3.4830   20.1470   34.9570 C.3   132  NAG132      0.0964
      9  N2         2.2590   21.9540   35.9600 N.am  132  NAG132     -0.2019
     10  O3         1.7160   22.2190   38.7960 O.3   132  NAG132     -0.2184
     11  O4        -0.1540   24.3310   39.4240 O.3   132  NAG132     -0.2176
     12  O5         1.4280   25.5180   36.3210 O.3   132  NAG132     -0.3489
     13  O6        -0.2020   27.6860   36.7870 O.3   132  NAG132     -0.2176
     14  O7         4.5070   22.0250   36.0420 O.2   132  NAG132     -0.2733
@<TRIPOS>BOND
     1     8     7    1
     2     1    12    1
     3     1     2    1
     4     7     9   am
     5     7    14    2
     6     9     2    1
     7    12     5    1
     8     2     3    1
     9    13     6    1
    10     5     6    1
    11     5     4    1
    12     3     4    1
    13     3    10    1
    14     4    11    1
