@<TRIPOS>MOLECULE
1rem_BMA_A_1.pdb
 11 11 0 0 0
SMALL
GASTEIGER

@<TRIPOS>ATOM
      1  C1         0.1610   24.6310   40.7360 C.3   131  BMA131      0.1777
      2  C2        -1.0480   25.2910   41.3840 C.3   131  BMA131      0.2141
      3  C3        -0.7450   25.5640   42.8440 C.3   131  BMA131      0.2173
      4  C4        -0.3420   24.2670   43.5270 C.3   131  BMA131      0.2142
      5  C5         0.8050   23.5890   42.7900 C.3   131  BMA131      0.1810
      6  C6         1.1000   22.2140   43.3530 C.3   131  BMA131      0.2141
      7  O2        -2.1820   24.4300   41.2900 O.3   131  BMA131     -0.2176
      8  O3        -1.9170   26.0770   43.4590 O.3   131  BMA131     -0.2175
      9  O4         0.0450   24.5440   44.8620 O.3   131  BMA131     -0.2176
     10  O5         0.4700   23.4030   41.4060 O.3   131  BMA131     -0.3481
     11  O6         0.1060   21.2770   42.9740 O.3   131  BMA131     -0.2176
@<TRIPOS>BOND
     1     1     2    1
     2     1    10    1
     3     7     2    1
     4     2     3    1
     5    10     5    1
     6     5     6    1
     7     5     4    1
     8     3     8    1
     9     3     4    1
    10    11     6    1
    11     4     9    1
