@<TRIPOS>MOLECULE
1rer_FUL_A_1.pdb
 10 10 0 0 0
SMALL
GASTEIGER

@<TRIPOS>ATOM
      1  C1       103.1760  -35.2840   55.6530 C.3   402  FUL402      0.1776
      2  C2       102.2030  -34.9110   56.7980 C.3   402  FUL402      0.2141
      3  O2       102.9370  -34.6670   57.9960 O.3   402  FUL402     -0.2176
      4  C3       101.3970  -33.6460   56.4020 C.3   402  FUL402      0.2172
      5  O3       100.4830  -33.2670   57.4320 O.3   402  FUL402     -0.2175
      6  C4       100.6560  -33.9100   55.0780 C.3   402  FUL402      0.2116
      7  O4        99.7110  -34.9820   55.2230 O.3   402  FUL402     -0.2177
      8  C5       101.7220  -34.2600   54.0160 C.3   402  FUL402      0.1483
      9  C6       101.1780  -34.5300   52.6330 C.3   402  FUL402      0.0349
     10  O5       102.4580  -35.4350   54.4240 O.3   402  FUL402     -0.3508
@<TRIPOS>BOND
     1     9     8    1
     2     8    10    1
     3     8     6    1
     4    10     1    1
     5     6     7    1
     6     6     4    1
     7     1     2    1
     8     4     2    1
     9     4     5    1
    10     2     3    1
