@<TRIPOS>MOLECULE
1rev_TB9_A_1.pdb
 21 23 0 0 0
SMALL
GASTEIGER

@<TRIPOS>ATOM
      1  N1         0.8980  -37.3110   18.5140 N.2   999  TB9999     -0.3541
      2  C1A        0.2840  -37.1300   19.7030 C.2   999  TB9999      0.1225
      3  C2         2.1420  -37.7570   18.7700 C.1   999  TB9999      0.0948
      4  S2         3.3020  -38.0590   17.5780 S.2   999  TB9999      0.0398
      5  N3         2.3500  -37.8790   20.1140 N.am  999  TB9999     -0.2462
      6  C3A        1.2110  -37.4930   20.7250 C.3   999  TB9999      0.1368
      7  C4         3.6220  -38.3840   20.6320 C.3   999  TB9999      0.1176
      8  C5         3.5360  -38.9920   22.0390 C.3   999  TB9999      0.0784
      9  N6         3.0190  -38.0210   23.0050 N.3   999  TB9999     -0.2683
     10  C7         1.5670  -38.1600   23.1250 C.3   999  TB9999      0.0788
     11  C7A        0.8230  -37.3720   22.0740 C.3   999  TB9999      0.0638
     12  C8        -0.4320  -36.8990   22.3890 C.2   999  TB9999     -0.0155
     13 CL9        -2.8610  -36.0010   21.8380 Cl    999  TB9999     -0.0868
     14  C9        -1.3250  -36.5530   21.3970 C.2   999  TB9999      0.0381
     15  C10       -0.9800  -36.6610   20.0660 C.3   999  TB9999      0.0946
     16  C11        2.7330  -40.2820   22.0090 C.3   999  TB9999      0.0192
     17  C12        3.7770  -36.8760   23.5370 C.3   999  TB9999      0.0983
     18  C13        3.0080  -36.1580   24.6020 C.2   999  TB9999     -0.0173
     19  C14        3.4910  -35.2020   25.3750 C.2   999  TB9999     -0.0465
     20  C15        2.6420  -34.5480   26.4230 C.3   999  TB9999      0.0261
     21  C16        4.8940  -34.7090   25.2550 C.3   999  TB9999      0.0261
@<TRIPOS>BOND
     1     4     3    2
     2     1     3    2
     3     1     2    2
     4     3     5    1
     5     2    15    1
     6     2     6    1
     7    15    14    1
     8     5     7    1
     9     5     6    1
    10     7     8    1
    11     6    11    1
    12    14    13    1
    13    14    12    2
    14    16     8    1
    15     8     9    1
    16    11    12    1
    17    11    10    1
    18     9    10    1
    19     9    17    1
    20    17    18    1
    21    18    19    2
    22    21    19    1
    23    19    20    1
