@<TRIPOS>MOLECULE
1rey_NAG_A_1.pdb
 14 14 0 0 0
SMALL
GASTEIGER

@<TRIPOS>ATOM
      1  C1        16.0460    3.5950   37.2310 C.3   131  NAG131      0.1665
      2  C2        17.2110    2.7220   37.7150 C.3   131  NAG131      0.1576
      3  C3        17.1380    2.5470   39.2310 C.3   131  NAG131      0.2069
      4  C4        17.0520    3.9240   39.9140 C.3   131  NAG131      0.2134
      5  C5        15.8880    4.7310   39.3230 C.3   131  NAG131      0.1809
      6  C6        15.8100    6.1280   39.8900 C.3   131  NAG131      0.2141
      7  C7        17.9680    1.1010   36.0730 C.2   131  NAG131      0.2420
      8  C8        17.8000   -0.2850   35.4770 C.3   131  NAG131      0.0964
      9  N2        17.1480    1.4240   37.0710 N.am  131  NAG131     -0.2019
     10  O3        18.2960    1.8460   39.6740 O.3   131  NAG131     -0.2184
     11  O4        16.8500    3.7650   41.3110 O.3   131  NAG131     -0.2176
     12  O5        16.0490    4.8580   37.8970 O.3   131  NAG131     -0.3489
     13  O6        16.9850    6.8490   39.5610 O.3   131  NAG131     -0.2176
     14  O7        18.8230    1.8770   35.6450 O.2   131  NAG131     -0.2733
@<TRIPOS>BOND
     1     8     7    1
     2    14     7    2
     3     7     9   am
     4     9     2    1
     5     1     2    1
     6     1    12    1
     7     2     3    1
     8    12     5    1
     9     3    10    1
    10     3     4    1
    11     5     6    1
    12     5     4    1
    13    13     6    1
    14     4    11    1
