@<TRIPOS>MOLECULE
1rez_NAG_A_1.pdb
 14 14 0 0 0
SMALL
GASTEIGER

@<TRIPOS>ATOM
      1  C1        14.2770    4.6500   32.2590 C.3   132  NAG132      0.1665
      2  C2        14.3360    5.8520   33.1910 C.3   132  NAG132      0.1576
      3  C3        15.4850    5.6860   34.1840 C.3   132  NAG132      0.2069
      4  C4        15.4510    4.3250   34.8650 C.3   132  NAG132      0.2134
      5  C5        15.3420    3.2300   33.8260 C.3   132  NAG132      0.1809
      6  C6        15.2700    1.8320   34.4200 C.3   132  NAG132      0.2141
      7  C7        13.6250    7.9960   32.2770 C.2   132  NAG132      0.2420
      8  C8        13.9790    9.2500   31.4620 C.3   132  NAG132      0.0964
      9  N2        14.5630    7.0610   32.4080 N.am  132  NAG132     -0.2019
     10  O3        15.4260    6.6960   35.1680 O.3   132  NAG132     -0.2184
     11  O4        16.6930    4.1450   35.5740 O.3   132  NAG132     -0.2176
     12  O5        14.1810    3.4360   33.0110 O.3   132  NAG132     -0.3489
     13  O6        15.6270    0.8530   33.4540 O.3   132  NAG132     -0.2176
     14  O7        12.5330    7.8930   32.8120 O.2   132  NAG132     -0.2733
@<TRIPOS>BOND
     1     8     7    1
     2     1    12    1
     3     1     2    1
     4     7     9   am
     5     7    14    2
     6     9     2    1
     7    12     5    1
     8     2     3    1
     9    13     6    1
    10     5     6    1
    11     5     4    1
    12     3     4    1
    13     3    10    1
    14     4    11    1
