@<TRIPOS>MOLECULE
1rez_GAL_A_1.pdb
 11 11 0 0 0
SMALL
GASTEIGER

@<TRIPOS>ATOM
      1  C1        16.6300    3.9070   36.9240 C.3   131  GAL131      0.1777
      2  C2        18.0220    3.5180   37.4110 C.3   131  GAL131      0.2141
      3  C3        18.0990    3.5060   38.9390 C.3   131  GAL131      0.2173
      4  C4        17.5460    4.8240   39.5020 C.3   131  GAL131      0.2142
      5  C5        16.1280    5.0020   38.9620 C.3   131  GAL131      0.1810
      6  C6        15.3970    6.2270   39.4740 C.3   131  GAL131      0.2141
      7  O2        18.3380    2.2310   36.9100 O.3   131  GAL131     -0.2176
      8  O3        19.4480    3.3390   39.3480 O.3   131  GAL131     -0.2175
      9  O4        18.3740    5.9150   39.0850 O.3   131  GAL131     -0.2176
     10  O5        16.1880    5.1100   37.5400 O.3   131  GAL131     -0.3481
     11  O6        15.0630    6.0830   40.8420 O.3   131  GAL131     -0.2176
@<TRIPOS>BOND
     1     7     2    1
     2     1     2    1
     3     1    10    1
     4     2     3    1
     5    10     5    1
     6     3     8    1
     7     3     4    1
     8     5     6    1
     9     5     4    1
    10     9     4    1
    11     6    11    1
