@<TRIPOS>MOLECULE
1rf1_III_G_1.pdb
 33 34 0 0 0
SMALL
GASTEIGER

@<TRIPOS>ATOM
      1  N         41.3970    9.1810   67.9730 N.3     1  GLY1       -0.1210
      2  CA        40.8240    9.2040   69.3470 C.3     1  GLY1        0.1956
      3  C         41.5090   10.2370   70.2170 C.2     1  GLY1        0.2612
      4  O         41.0860   11.3880   70.2740 O.2     1  GLY1       -0.2717
      5  N         42.5690    9.8190   70.9020 N.am    2  HIS2       -0.1961
      6  CA        43.3410   10.7040   71.7720 C.3     2  HIS2        0.1784
      7  C         44.7920   10.6330   71.3080 C.2     2  HIS2        0.2620
      8  O         45.2170    9.6230   70.7480 O.2     2  HIS2       -0.2715
      9  CB        43.2580   10.2290   73.2210 C.3     2  HIS2        0.0745
     10  CG        43.9550    8.9270   73.4610 C.2     2  HIS2        0.0653
     11  ND1       43.6060    7.7650   72.8070 N.2     2  HIS2       -0.2310
     12  CD2       45.0100    8.6120   74.2490 C.3     2  HIS2        0.1683
     13  CE1       44.4170    6.7910   73.1800 C.2     2  HIS2        0.1939
     14  NE2       45.2790    7.2790   74.0530 N.2     2  HIS2       -0.2440
     15  N         45.5550   11.6920   71.5360 N.am    3  ARG3       -0.1964
     16  CA        46.9500   11.6890   71.1190 C.3     3  ARG3        0.1714
     17  C         47.8480   11.7330   72.3530 C.2     3  ARG3        0.2459
     18  O         48.3060   12.7990   72.7650 O.2     3  ARG3       -0.2730
     19  CB        47.2310   12.8850   70.2040 C.3     3  ARG3        0.0347
     20  CG        47.9990   12.5310   68.9350 C.3     3  ARG3        0.0492
     21  CD        47.1200   12.5500   67.6800 C.3     3  ARG3        0.2205
     22  NE        46.0870   11.5150   67.6820 N.pl3   3  ARG3       -0.0865
     23  CZ        45.3180   11.2240   66.6350 C.cat   3  ARG3        0.5346
     24  NH1       45.4630   11.8910   65.4970 N.pl3   3  ARG3        0.1354
     25  NH2       44.4030   10.2660   66.7240 N.pl3   3  ARG3        0.1354
     26  N         48.1140   10.5620   72.9570 N.am    4  PRO4       -0.2699
     27  CA        48.9550   10.4570   74.1520 C.3     4  PRO4        0.1791
     28  C         50.3990   10.8650   73.8810 C.2     4  PRO4        0.3825
     29  O         50.6910   11.2390   72.7230 O.co2   4  PRO4       -0.2438
     30  CB        48.8260    8.9840   74.5270 C.3     4  PRO4        0.0332
     31  CG        48.7470    8.3260   73.1910 C.3     4  PRO4        0.0238
     32  CD        47.7710    9.2210   72.4470 C.3     4  PRO4        0.0940
     33  OXT       51.2130   10.8060   74.8280 O.co2   4  PRO4       -0.2438
@<TRIPOS>BOND
     1    24    23    1
     2    23    25    1
     3    23    22    2
     4    21    22    1
     5    21    20    1
     6     1     2    1
     7    20    19    1
     8     2     3    1
     9    19    16    1
    10     3     4    2
    11     3     5   am
    12     8     7    2
    13     5     6    1
    14    16    15    1
    15    16    17    1
    16     7    15   am
    17     7     6    1
    18     6     9    1
    19    17    18    2
    20    17    26   am
    21    32    26    1
    22    32    31    1
    23    29    28   ar
    24    11    13    1
    25    11    10    2
    26    26    27    1
    27    13    14    2
    28    31    30    1
    29     9    10    1
    30    10    12    1
    31    28    27    1
    32    28    33   ar
    33    14    12    1
    34    27    30    1
