@<TRIPOS>MOLECULE
1rf2_BV4_D_1.pdb
 24 25 0 0 0
SMALL
GASTEIGER

@<TRIPOS>ATOM
      1  O31      -11.5900  -22.4590    2.3570 O.3   104  BV4104     -0.2135
      2  C73      -10.8340  -21.3730    2.9340 C.3   104  BV4104      0.2542
      3  C72      -11.2130  -21.1300    4.4060 C.3   104  BV4104      0.2211
      4  O30      -10.8640  -22.2580    5.1990 O.3   104  BV4104     -0.2173
      5  C71      -10.4510  -19.9300    4.9710 C.3   104  BV4104      0.2145
      6  O29       -9.0460  -20.2480    5.0540 O.3   104  BV4104     -0.2176
      7  C70      -10.6650  -18.7310    4.0560 C.3   104  BV4104      0.1846
      8  C75       -9.8350  -17.4940    4.4720 C.3   104  BV4104      0.2142
      9  O32      -10.1160  -16.3730    3.5900 O.3   104  BV4104     -0.2176
     10  O28      -10.2720  -19.0180    2.6730 O.3   104  BV4104     -0.3157
     11  C74      -11.0310  -20.0940    2.1170 C.3   104  BV4104      0.3218
     12  O25      -12.4370  -19.8330    2.1330 O.3   104  BV4104     -0.4504
     13  C66      -12.7930  -18.8340    1.2830 C.ar  104  BV4104      0.1432
     14  C65      -13.0830  -19.1480   -0.0340 C.ar  104  BV4104      0.0417
     15  C67      -12.9110  -17.5210    1.7370 C.ar  104  BV4104      0.0610
     16  C68      -13.2890  -16.5080    0.8550 C.ar  104  BV4104      0.1460
     17  N14      -13.3710  -15.2520    1.3150 N.pl3 104  BV4104      0.0578
     18  O27      -13.7090  -14.1930    0.4560 O.2   104  BV4104     -0.1261
     19  O26      -13.0840  -14.9890    2.6830 O.2   104  BV4104     -0.1261
     20  C69      -13.5740  -16.8290   -0.4710 C.ar  104  BV4104      0.0289
     21  C64      -13.4620  -18.1390   -0.9040 C.ar  104  BV4104      0.0613
     22  C13      -13.7550  -18.5000   -2.3510 C.2   104  BV4104      0.2843
     23  O24      -13.5030  -19.6210   -2.7950 O.2   104  BV4104     -0.2667
     24  N13      -14.2810  -17.5120   -3.0520 N.am  104  BV4104     -0.0837
@<TRIPOS>BOND
     1    24    22   am
     2    23    22    2
     3    22    21    1
     4    21    20   ar
     5    21    14   ar
     6    20    16   ar
     7    14    13   ar
     8    18    17    2
     9    16    17    1
    10    16    15   ar
    11    13    15   ar
    12    13    12    1
    13    17    19    2
    14    11    12    1
    15    11    10    1
    16    11     2    1
    17     1     2    1
    18    10     7    1
    19     2     3    1
    20     9     8    1
    21     7     8    1
    22     7     5    1
    23     3     5    1
    24     3     4    1
    25     5     6    1
