@<TRIPOS>MOLECULE
1rf4_SPQ_A_1.pdb
 27 27 0 0 0
SMALL
GASTEIGER

@<TRIPOS>ATOM
      1  O6P       55.9890  123.2350    1.6750 O.2   1451  SPQ1451    -0.2223
      2  P2        55.1500  122.9140    3.0010 P.3   1451  SPQ1451     0.5348
      3  O4P       56.1050  122.8650    4.1390 O.3   1451  SPQ1451    -0.1145
      4  O5P       54.0180  123.8580    3.0770 O.3   1451  SPQ1451    -0.1145
      5  O10       54.6080  121.3940    2.6830 O.3   1451  SPQ1451    -0.2360
      6  C9        53.9030  120.5250    3.6310 C.3   1451  SPQ1451     0.3249
      7  C8        52.4190  120.3770    3.1820 C.2   1451  SPQ1451     0.4185
      8  O2'       52.1670  120.4530    1.9580 O.co2 1451  SPQ1451    -0.2401
      9  O9        51.5560  120.1250    4.0560 O.co2 1451  SPQ1451    -0.2401
     10  C10       54.0000  121.0350    5.1190 C.3   1451  SPQ1451     0.2611
     11  F         53.1910  122.1180    5.3770 F     1451  SPQ1451    -0.2282
     12  O3        54.4610  119.1870    3.5160 O.3   1451  SPQ1451    -0.3235
     13  C5        55.8690  119.0310    3.8770 C.3   1451  SPQ1451     0.1514
     14  C4        55.9770  117.9350    4.9650 C.3   1451  SPQ1451     0.2064
     15  O2        55.2190  118.3230    6.1110 O.3   1451  SPQ1451    -0.2179
     16  C6        56.6150  118.5870    2.5900 C.3   1451  SPQ1451     0.0437
     17  C1        58.0130  117.9810    2.8650 C.3   1451  SPQ1451     0.1084
     18  C7        59.0780  118.0140    1.7570 C.2   1451  SPQ1451     0.3645
     19  O5        60.2720  117.8470    2.0820 O.co2 1451  SPQ1451    -0.2457
     20  O4        58.6960  118.2050    0.5800 O.co2 1451  SPQ1451    -0.2457
     21  C2        58.2970  117.1970    4.1700 C.3   1451  SPQ1451     0.0442
     22  C3        57.4450  117.6450    5.3830 C.3   1451  SPQ1451     0.1594
     23  O1        58.0540  118.7850    6.0320 O.3   1451  SPQ1451    -0.2701
     24  P1        59.0860  118.5390    7.3060 P.3   1451  SPQ1451     0.5326
     25  O3P       59.0440  119.9240    8.1030 O.3   1451  SPQ1451    -0.1145
     26  O2P       58.5210  117.4670    8.1550 O.3   1451  SPQ1451    -0.1145
     27  O1P       60.4620  118.3740    6.7800 O.2   1451  SPQ1451    -0.2224
@<TRIPOS>BOND
     1    20    18   ar
     2     1     2    2
     3    18    19   ar
     4    18    17    1
     5     8     7   ar
     6    16    17    1
     7    16    13    1
     8     5     2    1
     9     5     6    1
    10    17    21    1
    11     2     4    1
    12     2     3    1
    13     7     6    1
    14     7     9   ar
    15    12     6    1
    16    12    13    1
    17     6    10    1
    18    13    14    1
    19    21    22    1
    20    14    22    1
    21    14    15    1
    22    10    11    1
    23    22    23    1
    24    23    24    1
    25    27    24    2
    26    24    25    1
    27    24    26    1
