@<TRIPOS>MOLECULE
1rf6_GPJ_A_1.pdb
 10 9 0 0 0
SMALL
GASTEIGER

@<TRIPOS>ATOM
      1  P1        56.0690  123.0670    3.3450 P.3   1428  GPJ1428     0.1347
      2  O1        56.3050  122.4020    2.0570 O.2   1428  GPJ1428    -0.4587
      3  O2        57.2300  123.1270    4.2380 O.3   1428  GPJ1428    -0.3562
      4  O3        55.4910  124.4570    3.1180 O.3   1428  GPJ1428    -0.3562
      5  O4        52.2120  119.8880    2.1110 O.co2 1428  GPJ1428    -0.2440
      6  O5        51.1580  119.1920    3.9450 O.co2 1428  GPJ1428    -0.2440
      7  C1        54.9380  122.1620    4.3370 C.3   1428  GPJ1428     0.1476
      8  C2        52.9580  120.6000    4.3080 C.3   1428  GPJ1428     0.2033
      9  C3        52.0330  119.8290    3.3780 C.2   1428  GPJ1428     0.3823
     10  N1        53.9960  121.3800    3.5440 N.3   1428  GPJ1428    -0.1988
@<TRIPOS>BOND
     1     2     1    2
     2     5     9   ar
     3     4     1    1
     4     1     3    1
     5     1     7    1
     6     9     6   ar
     7     9     8    1
     8    10     8    1
     9    10     7    1
