@<TRIPOS>MOLECULE
1rf6_S3P_A_1.pdb
 16 16 0 0 0
SMALL
GASTEIGER

@<TRIPOS>ATOM
      1  C1        58.8070  117.6870    2.7120 C.2   1429  S3P1429     0.0583
      2  C2        59.1130  117.4910    4.0890 C.2   1429  S3P1429     0.0084
      3  C3        58.0450  117.6010    5.1910 C.3   1429  S3P1429     0.1809
      4  C4        56.5800  117.8190    4.6360 C.3   1429  S3P1429     0.2140
      5  C5        56.6060  118.7220    3.3680 C.3   1429  S3P1429     0.1895
      6  C6        57.4430  118.0000    2.2970 C.3   1429  S3P1429     0.0684
      7  C7        59.9030  117.5630    1.6780 C.2   1429  S3P1429     0.3837
      8  O1        58.4300  118.7080    6.1470 O.3   1429  S3P1429    -0.2655
      9  O2        55.8110  118.4070    5.6900 O.3   1429  S3P1429    -0.2174
     10  O3        55.2890  118.9390    2.8430 O.3   1429  S3P1429    -0.2200
     11  O4        61.1010  117.4940    2.0730 O.co2 1429  S3P1429    -0.2409
     12  O5        59.5540  117.5410    0.4960 O.co2 1429  S3P1429    -0.2409
     13  P1        59.5470  118.5190    7.4040 P.3   1429  S3P1429     0.5329
     14  O6        60.8580  118.1820    6.7850 O.2   1429  S3P1429    -0.2224
     15  O7        58.9490  117.4100    8.2620 O.3   1429  S3P1429    -0.1145
     16  O8        59.5600  119.8680    8.0510 O.3   1429  S3P1429    -0.1145
@<TRIPOS>BOND
     1    12     7   ar
     2     7    11   ar
     3     7     1    1
     4     6     1    1
     5     6     5    1
     6     1     2    2
     7    10     5    1
     8     5     4    1
     9     2     3    1
    10     4     3    1
    11     4     9    1
    12     3     8    1
    13     8    13    1
    14    14    13    2
    15    13    16    1
    16    13    15    1
