@<TRIPOS>MOLECULE
1rf7_DHF_A_1.pdb
 29 31 0 0 0
SMALL
GASTEIGER

@<TRIPOS>ATOM
      1  N1        32.0870   34.1450   13.1450 N.2   161  DHF161     -0.2672
      2  C2        32.9330   33.1130   13.1640 C.1   161  DHF161      0.2609
      3  NA2       32.6850   32.0470   13.6050 N.pl3 161  DHF161     -0.0220
      4  N3        34.2760   33.3050   12.6120 N.2   161  DHF161     -0.2466
      5  C4        34.7150   34.5140   12.0710 C.1   161  DHF161      0.2569
      6  O4        35.8720   34.6100   11.6220 O.2   161  DHF161     -0.2052
      7  C4A       33.7530   35.6480   12.0440 C.2   161  DHF161      0.2988
      8  N5        34.1720   36.9470   11.5090 N.2   161  DHF161     -0.3839
      9  C6        33.2340   37.9290   11.6120 C.2   161  DHF161      0.1356
     10  C7        32.0350   37.5220   12.1910 C.3   161  DHF161      0.1931
     11  N8        31.6420   36.3100   12.6780 N.2   161  DHF161     -0.1992
     12  C8A       32.5200   35.4230   12.5800 C.1   161  DHF161      0.1401
     13  C9        33.5350   39.2580   11.1100 C.3   161  DHF161      0.1683
     14  N10       34.8030   39.2180   10.2950 N.pl3 161  DHF161     -0.2303
     15  C11       35.6290   37.3880    6.3040 C.ar  161  DHF161      0.0551
     16  C12       36.5670   38.2730    6.9920 C.ar  161  DHF161      0.0059
     17  C13       36.2090   38.8610    8.3630 C.ar  161  DHF161      0.0162
     18  C14       34.9180   38.5930    9.1050 C.ar  161  DHF161      0.0658
     19  C15       33.9880   37.7750    8.5410 C.ar  161  DHF161      0.0162
     20  C16       34.2910   37.1180    7.1020 C.ar  161  DHF161      0.0059
     21  C         35.7780   36.7140    4.9900 C.2   161  DHF161      0.2652
     22  O         36.5500   36.8560    3.9550 O.2   161  DHF161     -0.2684
     23  N         35.0190   35.8360    4.8750 N.am  161  DHF161     -0.1918
     24  CA        34.9480   34.8950    3.6610 C.3   161  DHF161      0.1981
     25  CB        35.7330   33.7160    3.9690 C.3   161  DHF161      0.0333
     26  CG        35.4500   32.4850    2.9990 C.3   161  DHF161      0.0024
     27  CT        33.4460   34.5420    3.3220 C.2   161  DHF161      0.3842
     28  O1        32.5490   34.3820    4.2300 O.co2 161  DHF161     -0.2437
     29  O2        33.1930   34.5620    2.1110 O.co2 161  DHF161     -0.2437
@<TRIPOS>BOND
     1    29    27   ar
     2    26    25    1
     3    27    24    1
     4    27    28   ar
     5    24    25    1
     6    24    23    1
     7    22    21    2
     8    23    21   am
     9    21    15    1
    10    15    16   ar
    11    15    20   ar
    12    16    17   ar
    13    20    19   ar
    14    17    18   ar
    15    19    18   ar
    16    18    14    1
    17    14    13    1
    18    13     9    1
    19     8     9    2
    20     8     7    2
    21     9    10    1
    22     6     5    2
    23     7     5    1
    24     7    12    1
    25     5     4    2
    26    10    11    1
    27    12    11    2
    28    12     1    2
    29     4     2    2
    30     1     2    2
    31     2     3    1
