@<TRIPOS>MOLECULE
1rf8_M7G_A_1.pdb
 44 46 0 0 0
SMALL
GASTEIGER

@<TRIPOS>ATOM
      1  PA        17.8910    4.2990    2.4230 P.3   325  M7G325      0.2224
      2  O1A       17.0260    5.1350    1.5600 O.2   325  M7G325     -0.5170
      3  O2A       19.2210    3.8630    1.9430 O.3   325  M7G325     -0.4370
      4  O3A       17.0620    3.0330    2.9700 O.3   325  M7G325     -0.2261
      5  O5'       18.0780    5.0480    3.8360 O.3   325  M7G325     -0.3245
      6  PB        15.7270    2.3640    2.3670 P.3   325  M7G325      0.5373
      7  O1B       15.6630    2.6890    0.9350 O.2   325  M7G325     -0.2221
      8  O2B       14.6020    2.7280    3.2410 O.3   325  M7G325     -0.1143
      9  O3B       16.0270    0.8530    2.5310 O.3   325  M7G325     -0.1143
     10  C5'       18.2900    6.4670    3.8810 C.3   325  M7G325      0.0836
     11  C4'       18.8730    6.9370    5.2070 C.3   325  M7G325      0.1130
     12  O4'       17.8420    7.0270    6.2140 O.3   325  M7G325     -0.3478
     13  C3'       19.9360    5.9780    5.7140 C.3   325  M7G325      0.1133
     14  O3'       21.2460    6.5310    5.5550 O.3   325  M7G325     -0.3864
     15  C2'       19.6180    5.7460    7.1710 C.3   325  M7G325      0.1263
     16  O2'       20.5480    6.4160    8.0260 O.3   325  M7G325     -0.3849
     17  C1'       18.2140    6.2560    7.3760 C.3   325  M7G325      0.1570
     18  N9        17.3350    5.1020    7.5490 N.pl3 325  M7G325     -0.2598
     19  C8        16.6930    4.3700    6.6110 C.3   325  M7G325      0.1149
     20  N7        16.1110    3.2920    6.9970 N.3   325  M7G325     -0.2618
     21  CM7       15.3750    2.3310    6.1800 C.3   325  M7G325     -0.0095
     22  C5        16.3780    3.2930    8.3630 C.3   325  M7G325      0.2028
     23  C6        16.0040    2.3550    9.3530 C.2   325  M7G325      0.2517
     24  O6        15.3630    1.3200    9.2070 O.2   325  M7G325     -0.2727
     25  N1        16.4750    2.7220   10.6060 N.am  325  M7G325     -0.2461
     26  C2        17.2210    3.8520   10.8750 C.2   325  M7G325      0.2388
     27  N2        17.5880    4.0270   12.1440 N.pl3 325  M7G325     -0.3207
     28  N3        17.5790    4.7410    9.9430 N.2   325  M7G325     -0.3609
     29  C4        17.1280    4.4000    8.7140 C.2   325  M7G325      0.1887
     30 H5'1       17.3340    6.9700    3.7330 H     325  M7G325      0.0591
     31 H5'2       18.9820    6.7450    3.0840 H     325  M7G325      0.0591
     32  H4'       19.3150    7.9240    5.0670 H     325  M7G325      0.0647
     33  H3'       19.8610    5.0270    5.1850 H     325  M7G325      0.0647
     34 HO3'       21.4980    6.9180    6.3960 H     325  M7G325      0.2100
     35  H2'       19.6260    4.6720    7.3680 H     325  M7G325      0.0663
     36 HO2'       20.7350    5.8290    8.7620 H     325  M7G325      0.2101
     37  H1'       18.1680    6.8840    8.2660 H     325  M7G325      0.0837
     38  H82       16.6710    4.6830    5.5680 H     325  M7G325      0.0705
     39 HM71       14.8450    1.6890    6.8020 H     325  M7G325      0.0392
     40 HM72       16.0470    1.7870    5.6080 H     325  M7G325      0.0392
     41 HM73       14.7190    2.8340    5.5560 H     325  M7G325      0.0392
     42  HN1       16.2450    2.0980   11.3670 H     325  M7G325      0.1585
     43 HN21       18.1400    4.8320   12.4040 H     325  M7G325      0.1459
     44 HN22       17.3150    3.3540   12.8460 H     325  M7G325      0.1459
@<TRIPOS>BOND
     1     7     6    2
     2     2     1    2
     3     3     1    1
     4     6     9    1
     5     6     4    1
     6     6     8    1
     7     1     4    1
     8     1     5    1
     9    31    10    1
    10    30    10    1
    11     5    10    1
    12    10    11    1
    13    32    11    1
    14    33    13    1
    15    11    13    1
    16    11    12    1
    17    14    13    1
    18    14    34    1
    19    41    21    1
    20    38    19    1
    21    40    21    1
    22    13    15    1
    23    21    39    1
    24    21    20    1
    25    12    17    1
    26    19    20    1
    27    19    18    1
    28    20    22    1
    29    15    35    1
    30    15    17    1
    31    15    16    1
    32    17    18    1
    33    17    37    1
    34    18    29    1
    35    16    36    1
    36    22    29    1
    37    22    23    1
    38    29    28    2
    39    24    23    2
    40    23    25   am
    41    28    26    2
    42    25    26    1
    43    25    42    1
    44    26    27    1
    45    27    43    1
    46    27    44    1
