@<TRIPOS>MOLECULE
1rf8_MTN_A_1.pdb
 27 27 0 0 0
SMALL
GASTEIGER

@<TRIPOS>ATOM
      1  O1        19.7190    7.6940  -14.5300 O.3   320  MTN320     -0.1177
      2  N1        18.5930    7.1570  -14.3040 N.4   320  MTN320     -0.1352
      3  C1        17.5210    7.8230  -13.5370 C.3   320  MTN320      0.0636
      4  C2        16.4790    6.7690  -13.5890 C.2   320  MTN320     -0.0603
      5  C3        16.8480    5.6890  -14.2510 C.2   320  MTN320     -0.0392
      6  C4        16.0020    4.4790  -14.4560 C.3   320  MTN320      0.0268
      7  S1        14.2800    4.6480  -13.8890 S.3   320  MTN320     -0.0884
      8  C5        18.2510    5.7930  -14.7970 C.3   320  MTN320      0.0669
      9  C6        19.1700    4.6800  -14.3110 C.3   320  MTN320     -0.0407
     10  C7        18.2010    5.8260  -16.3200 C.3   320  MTN320     -0.0407
     11  C8        17.0560    9.0710  -14.2700 C.3   320  MTN320     -0.0410
     12  C9        17.9270    8.1460  -12.1010 C.3   320  MTN320     -0.0410
     13  H2        15.5090    6.8760  -13.1270 H     320  MTN320      0.0591
     14  H41       16.4440    3.6600  -13.9130 H     320  MTN320      0.0431
     15  H42       15.9920    4.2500  -15.5150 H     320  MTN320      0.0431
     16  H61       19.8820    5.0840  -13.6050 H     320  MTN320      0.0251
     17  H62       19.7000    4.2570  -15.1520 H     320  MTN320      0.0251
     18  H63       18.5840    3.9120  -13.8300 H     320  MTN320      0.0251
     19  H71       17.2780    6.2830  -16.6410 H     320  MTN320      0.0251
     20  H72       18.2550    4.8180  -16.7040 H     320  MTN320      0.0251
     21  H73       19.0360    6.3990  -16.6960 H     320  MTN320      0.0251
     22  H81       16.0290    9.2800  -14.0120 H     320  MTN320      0.0251
     23  H82       17.1350    8.9120  -15.3360 H     320  MTN320      0.0251
     24  H83       17.6760    9.9080  -13.9860 H     320  MTN320      0.0251
     25  H91       19.0020    8.1140  -12.0140 H     320  MTN320      0.0251
     26  H92       17.4910    7.4190  -11.4310 H     320  MTN320      0.0251
     27  H93       17.5730    9.1320  -11.8390 H     320  MTN320      0.0251
@<TRIPOS>BOND
     1    20    10    1
     2    21    10    1
     3    19    10    1
     4    10     8    1
     5    15     6    1
     6    23    11    1
     7    17     9    1
     8     8     9    1
     9     8     2    1
    10     8     5    1
    11     1     2    1
    12     6     5    1
    13     6    14    1
    14     6     7    1
    15     9    18    1
    16     9    16    1
    17     2     3    1
    18    11    22    1
    19    11    24    1
    20    11     3    1
    21     5     4    2
    22     4     3    1
    23     4    13    1
    24     3    12    1
    25    12    25    1
    26    12    27    1
    27    12    26    1
