@<TRIPOS>MOLECULE
1rf9_DBR_A_1.pdb
 34 38 0 0 0
SMALL
GASTEIGER

@<TRIPOS>ATOM
      1  C1        29.5190   24.4110   23.4530 C.3   900  DBR900      0.0000
      2  C2        29.3950   25.8720   24.0710 C.3   900  DBR900      0.0005
      3  C3        30.2940   25.9060   25.3930 C.3   900  DBR900      0.0000
      4  C4        29.9800   26.9260   23.0300 C.3   900  DBR900      0.0087
      5  C5        31.0410   24.0530   23.1020 C.3   900  DBR900      0.0005
      6  C6        31.9110   24.1380   24.4240 C.3   900  DBR900      0.0000
      7  C7        31.6000   25.1050   22.0570 C.3   900  DBR900      0.0087
      8  C8        31.8320   25.6030   25.0700 C.3   900  DBR900      0.0005
      9  C9        31.5130   26.5970   22.6610 C.3   900  DBR900      0.0705
     10  C10       32.3700   26.6700   24.0050 C.3   900  DBR900      0.0087
     11  C11       32.0350   27.6480   21.6680 C.2   900  DBR900      0.2404
     12  N12       31.9530   29.0000   22.0540 N.am  900  DBR900     -0.2054
     13  C13       32.3460   30.2680   21.3650 C.3   900  DBR900      0.1152
     14  C14       31.6320   30.7530   20.0830 C.3   900  DBR900      0.0250
     15  C15       30.0980   30.9040   20.2350 C.3   900  DBR900      0.0226
     16  C16       29.4620   32.3110   20.0570 C.3   900  DBR900      0.1155
     17  O17       32.4630   27.2840   20.5780 O.2   900  DBR900     -0.2734
     18  N31       29.5310   33.2280   18.8680 N.3   900  DBR900     -0.0778
     19  S33       28.9090   32.8980   17.5010 S.O2  900  DBR900      0.0768
     20  O32       29.4410   33.8500   16.5910 O.2   900  DBR900     -0.1516
     21  O34       29.0580   31.5080   17.1010 O.2   900  DBR900     -0.1516
     22  N28       23.2480   36.0880   19.3160 N.pl3 900  DBR900     -0.3041
     23  C18       27.1710   33.2310   17.8880 C.ar  900  DBR900      0.1236
     24  C19       26.2930   32.1500   17.7500 C.ar  900  DBR900      0.0200
     25  C20       24.9020   32.3030   18.0280 C.ar  900  DBR900      0.0014
     26  C21       24.3860   33.5210   18.4410 C.ar  900  DBR900      0.0013
     27  C22       25.2340   34.6810   18.6040 C.ar  900  DBR900      0.0146
     28  C23       26.6950   34.5600   18.3220 C.ar  900  DBR900      0.0199
     29  C24       27.5230   35.7230   18.4890 C.ar  900  DBR900      0.0014
     30  C25       26.9860   36.9410   18.9040 C.ar  900  DBR900      0.0013
     31  C26       25.5820   37.0790   19.1810 C.ar  900  DBR900      0.0145
     32  C27       24.6980   35.9820   19.0410 C.ar  900  DBR900      0.0479
     33  C28       22.9440   36.6470   20.6650 C.3   900  DBR900      0.1122
     34  C29       22.5040   36.9240   18.3140 C.3   900  DBR900      0.1122
@<TRIPOS>BOND
     1    20    19    2
     2    21    19    2
     3    19    23    1
     4    19    18    1
     5    24    23   ar
     6    24    25   ar
     7    23    28   ar
     8    25    26   ar
     9    34    22    1
    10    28    29   ar
    11    28    27   ar
    12    26    27   ar
    13    29    30   ar
    14    27    32   ar
    15    18    16    1
    16    30    31   ar
    17    32    31   ar
    18    32    22    1
    19    22    33    1
    20    16    15    1
    21    14    15    1
    22    14    13    1
    23    17    11    2
    24    13    12    1
    25    11    12   am
    26    11     9    1
    27     7     9    1
    28     7     5    1
    29     9     4    1
    30     9    10    1
    31     4     2    1
    32     5     1    1
    33     5     6    1
    34     1     2    1
    35    10     8    1
    36     2     3    1
    37     6     8    1
    38     8     3    1
