@<TRIPOS>MOLECULE
1rf9_HEM_A_1.pdb
 43 50 0 0 0
SMALL
GASTEIGER

@<TRIPOS>ATOM
      1 FE         33.7310   22.0930   27.9240 Fe    417  HEM417      0.0000
      2  CHA       32.7970   20.5290   25.0690 C.2   417  HEM417      0.0000
      3  CHB       30.5300   22.3170   28.8280 C.2   417  HEM417      0.0000
      4  CHC       34.6580   23.7280   30.6620 C.2   417  HEM417      0.0000
      5  CHD       36.8530   22.2010   26.7900 C.2   417  HEM417      0.0000
      6  NA        31.9250   21.4950   27.1080 N.2   417  HEM417      0.0000
      7  C1A       31.7490   20.7500   25.9730 C.2   417  HEM417      0.0000
      8  C2A       30.3740   20.5410   25.7370 C.2   417  HEM417      0.0000
      9  C3A       29.7250   21.0980   26.8360 C.2   417  HEM417      0.0000
     10  C4A       30.7280   21.6480   27.6460 C.2   417  HEM417      0.0000
     11  CMA       28.1930   20.9980   27.1840 C.3   417  HEM417      0.0000
     12  CAA       29.7710   19.7360   24.5590 C.2   417  HEM417      0.0000
     13  CBA       29.0490   20.5480   23.5040 C.2   417  HEM417      0.0000
     14  CGA       28.3050   19.7730   22.4210 C.2   417  HEM417      0.0000
     15  O1A       28.2070   20.2730   21.2960 O.co2 417  HEM417      0.0000
     16  O2A       28.0990   18.5740   22.5290 O.co2 417  HEM417      0.0000
     17  NB        32.7320   22.9200   29.5270 N.ar  417  HEM417      0.0000
     18  C1B       31.4250   22.8150   29.7810 C.ar  417  HEM417      0.0000
     19  C2B       31.0930   23.3840   31.0370 C.ar  417  HEM417      0.0000
     20  C3B       32.3440   23.7870   31.5920 C.ar  417  HEM417      0.0000
     21  C4B       33.2990   23.4640   30.5900 C.ar  417  HEM417      0.0000
     22  CMB       29.6710   23.5150   31.5770 C.3   417  HEM417      0.0000
     23  CAB       32.6220   24.5350   32.7790 C.3   417  HEM417      0.0000
     24  CBB       31.8050   24.8110   33.9810 C.3   417  HEM417      0.0000
     25  NC        35.5010   22.8060   28.6600 N.2   417  HEM417      0.0000
     26  C1C       35.6990   23.3350   29.8490 C.2   417  HEM417      0.0000
     27  C2C       37.0200   23.6590   30.0480 C.2   417  HEM417      0.0000
     28  C3C       37.6540   23.5090   28.8070 C.2   417  HEM417      0.0000
     29  C4C       36.6860   22.8350   28.0160 C.2   417  HEM417      0.0000
     30  CMC       37.6830   24.1270   31.3820 C.3   417  HEM417      0.0000
     31  CAC       38.9880   23.5320   28.5040 C.3   417  HEM417      0.0000
     32  CBC       39.6690   24.3070   27.5350 C.3   417  HEM417      0.0000
     33  ND        34.7110   21.4230   26.2290 N.ar  417  HEM417      0.0000
     34  C1D       35.9750   21.5520   25.9880 C.ar  417  HEM417      0.0000
     35  C2D       36.3000   20.9390   24.7760 C.ar  417  HEM417      0.0000
     36  C3D       35.1410   20.4240   24.2610 C.ar  417  HEM417      0.0000
     37  C4D       34.1490   20.7950   25.1900 C.ar  417  HEM417      0.0000
     38  CMD       37.7090   20.6940   24.2010 C.3   417  HEM417      0.0000
     39  CAD       34.9360   19.7470   22.8650 C.3   417  HEM417      0.0000
     40  CBD       34.9460   18.1770   22.9240 C.3   417  HEM417      0.0000
     41  CGD       34.5310   17.4140   21.6340 C.2   417  HEM417      0.0000
     42  O1D       34.9040   16.2820   21.4320 O.co2 417  HEM417      0.0000
     43  O2D       33.9210   18.0200   20.7440 O.co2 417  HEM417      0.0000
@<TRIPOS>BOND
     1    43    41   ar
     2    15    14   ar
     3    42    41   ar
     4    41    40    1
     5    14    16   ar
     6    14    13    1
     7    39    40    1
     8    39    36    1
     9    13    12    2
    10    38    35    1
    11    36    35   ar
    12    36    37   ar
    13    12     8    1
    14    35    34   ar
    15     2    37    2
    16     2     7    1
    17    37    33   ar
    18     8     7    1
    19     8     9    2
    20     7     6    2
    21    34    33   ar
    22    34     5    2
    23    33     1    1
    24     5    29    1
    25     9    11    1
    26     9    10    1
    27     6    10    1
    28     6     1    1
    29    32    31    1
    30    10     3    2
    31     1    25    1
    32     1    17    1
    33    29    25    2
    34    29    28    1
    35    31    28    1
    36    25    26    1
    37    28    27    2
    38     3    18    1
    39    17    18   ar
    40    17    21   ar
    41    18    19   ar
    42    26    27    1
    43    26     4    2
    44    27    30    1
    45    21     4    1
    46    21    20   ar
    47    19    22    1
    48    19    20   ar
    49    20    23    1
    50    23    24    1
