@<TRIPOS>MOLECULE
1rfg_GMP_E_1.pdb
 20 22 0 0 0
SMALL
GASTEIGER

@<TRIPOS>ATOM
      1  O5'       50.3000  130.1250   56.2620 O.3   290  GMP290     -0.2176
      2  C5'       51.2420  129.5310   57.2160 C.3   290  GMP290      0.2142
      3  C4'       51.0050  128.0230   57.4680 C.3   290  GMP290      0.1828
      4  O4'       50.6940  127.5240   56.1460 O.3   290  GMP290     -0.3325
      5  C3'       52.2350  127.2060   57.9740 C.3   290  GMP290      0.2159
      6  O3'       51.8690  126.1940   59.0000 O.3   290  GMP290     -0.2175
      7  C2'       52.8690  126.5250   56.6460 C.3   290  GMP290      0.2310
      8  O2'       52.9880  125.0500   56.7280 O.3   290  GMP290     -0.2158
      9  C1'       51.8400  126.7900   55.5420 C.3   290  GMP290      0.2293
     10  N9        52.2820  127.5470   54.3460 N.pl3 290  GMP290     -0.2354
     11  C8        51.4320  128.2860   53.5720 C.3   290  GMP290      0.2246
     12  N7        52.1570  128.9150   52.4810 N.2   290  GMP290     -0.2322
     13  C5        53.4770  128.4770   52.6870 C.2   290  GMP290      0.2182
     14  C6        54.6240  128.8410   51.8590 C.1   290  GMP290      0.2372
     15  O6        54.6400  129.5820   50.8420 O.2   290  GMP290     -0.2069
     16  N1        55.7760  128.2380   52.3640 N.2   290  GMP290     -0.2485
     17  C2        55.8580  127.4210   53.4700 C.1   290  GMP290      0.2531
     18  N2        57.1490  126.8900   53.8450 N.pl3 290  GMP290     -0.0226
     19  N3        54.7620  127.1230   54.1830 N.2   290  GMP290     -0.3074
     20  C4        53.6050  127.6760   53.7730 C.2   290  GMP290      0.2300
@<TRIPOS>BOND
     1    15    14    2
     2    14    16    2
     3    14    13    1
     4    16    17    2
     5    12    13    2
     6    12    11    1
     7    13    20    1
     8    17    18    1
     9    17    19    2
    10    11    10    1
    11    20    19    2
    12    20    10    1
    13    10     9    1
    14     9     4    1
    15     9     7    1
    16     4     3    1
    17     1     2    1
    18     7     8    1
    19     7     5    1
    20     2     3    1
    21     3     5    1
    22     5     6    1
