@<TRIPOS>MOLECULE
1rfi_III_C_1.pdb
 47 47 0 0 0
SMALL
GASTEIGER

@<TRIPOS>ATOM
      1  N         17.7490   56.5710   -4.0920 N.3   720  LYS720     -0.1231
      2  CA        16.4890   56.1410   -4.7570 C.3   720  LYS720      0.1693
      3  C         15.4830   57.2900   -4.7240 C.2   720  LYS720      0.2592
      4  O         15.1240   57.7730   -3.6470 O.2   720  LYS720     -0.2718
      5  CB        15.9220   54.9040   -4.0570 C.3   720  LYS720      0.0285
      6  CG        15.3680   53.8490   -4.9980 C.3   720  LYS720      0.0035
      7  CD        14.6940   52.7270   -4.2220 C.3   720  LYS720      0.0206
      8  CE        14.7390   51.4180   -5.0050 C.3   720  LYS720      0.1093
      9  NZ        13.4330   51.1280   -5.6670 N.3   720  LYS720     -0.1314
     10  N         15.0470   57.7380   -5.9030 N.am  721  LEU721     -0.1966
     11  CA        14.1050   58.8580   -5.9980 C.3   721  LEU721      0.1728
     12  C         12.6420   58.4080   -6.0810 C.2   721  LEU721      0.2616
     13  O         11.7320   59.2370   -6.0310 O.2   721  LEU721     -0.2715
     14  CB        14.4330   59.7600   -7.1930 C.3   721  LEU721      0.0311
     15  CG        15.7400   60.5550   -7.1930 C.3   721  LEU721      0.0022
     16  CD1       16.2990   60.6200   -8.6150 C.3   721  LEU721      0.0001
     17  CD2       15.5250   61.9570   -6.6440 C.3   721  LEU721      0.0001
     18  N         12.4220   57.1020   -6.2190 N.am  722  ASN722     -0.1958
     19  CA        11.0700   56.5410   -6.2950 C.3   722  ASN722      0.1819
     20  C         11.0790   55.0030   -6.3530 C.2   722  ASN722      0.2621
     21  O         12.1380   54.3700   -6.3150 O.2   722  ASN722     -0.2715
     22  CB        10.2790   57.1280   -7.4830 C.3   722  ASN722      0.1195
     23  CG        10.9640   56.8850   -8.8400 C.2   722  ASN722      0.2630
     24  OD1       11.2260   55.7380   -9.2310 O.2   722  ASN722     -0.2716
     25  ND2       11.2480   57.9680   -9.5650 N.am  722  ASN722     -0.0877
     26  N          9.8900   54.4170   -6.4450 N.am  723  TYR723     -0.1960
     27  CA         9.7310   52.9700   -6.5310 C.3   723  TYR723      0.1771
     28  C         10.0660   52.4720   -7.9370 C.2   723  TYR723      0.2620
     29  O         10.4590   51.3100   -8.1310 O.2   723  TYR723     -0.2715
     30  CB         8.2780   52.6030   -6.2210 C.3   723  TYR723      0.0574
     31  CG         7.8400   52.8610   -4.8000 C.ar  723  TYR723     -0.0198
     32  CD1        6.5330   52.6160   -4.4190 C.ar  723  TYR723     -0.0009
     33  CD2        8.7310   53.3430   -3.8320 C.ar  723  TYR723     -0.0009
     34  CE1        6.1040   52.8360   -3.1120 C.ar  723  TYR723      0.0417
     35  CE2        8.3100   53.5710   -2.5090 C.ar  723  TYR723      0.0417
     36  CZ         6.9910   53.3090   -2.1570 C.ar  723  TYR723      0.1957
     37  OH         6.5290   53.5100   -0.8640 O.3   723  TYR723     -0.2866
     38  N          9.9120   53.3730   -8.9080 N.am  724  LYS724     -0.1941
     39  CA         9.8890   53.0320  -10.3260 C.3   724  LYS724      0.1978
     40  C         11.2700   52.7950  -10.9280 C.2   724  LYS724      0.3842
     41  O         12.2430   52.4850  -10.2230 O.co2 724  LYS724     -0.2437
     42  CB         9.1300   54.1210  -11.1130 C.3   724  LYS724      0.0333
     43  CG         7.7520   54.4920  -10.4950 C.3   724  LYS724      0.0039
     44  CD         7.2610   55.8970  -10.9030 C.3   724  LYS724      0.0206
     45  CE         5.7440   55.9990  -10.7050 C.3   724  LYS724      0.1093
     46  NZ         5.1340   57.4000  -10.5690 N.3   724  LYS724     -0.1314
     47  OXT       11.4200   52.9060  -12.1520 O.co2 724  LYS724     -0.2437
@<TRIPOS>BOND
     1    47    40   ar
     2    42    43    1
     3    42    39    1
     4    40    39    1
     5    40    41   ar
     6    44    45    1
     7    44    43    1
     8    45    46    1
     9    39    38    1
    10    25    23   am
    11    24    23    2
    12    38    28   am
    13    23    22    1
    14    16    15    1
    15    29    28    2
    16    28    27    1
    17    22    19    1
    18    14    15    1
    19    14    11    1
    20    15    17    1
    21    27    26    1
    22    27    30    1
    23    26    20   am
    24    20    21    2
    25    20    19    1
    26    19    18    1
    27    30    31    1
    28    18    12   am
    29    12    13    2
    30    12    11    1
    31    11    10    1
    32    10     3   am
    33     9     8    1
    34     8     7    1
    35     6     7    1
    36     6     5    1
    37    31    32   ar
    38    31    33   ar
    39     2     3    1
    40     2     1    1
    41     2     5    1
    42     3     4    2
    43    32    34   ar
    44    33    35   ar
    45    34    36   ar
    46    35    36   ar
    47    36    37    1
