@<TRIPOS>MOLECULE
1rfi_NUC_D_1.pdb
 50 54 0 0 0
SMALL
GASTEIGER

@<TRIPOS>ATOM
      1  P          7.1580   33.9360   -3.5180 P.3   804  DG804       0.3942
      2  OP1        6.3650   33.2740   -2.4480 O.3   804  DG804      -0.1425
      3  OP2        6.4870   34.4570   -4.7400 O.3   804  DG804      -0.1425
      4  O5'        8.0410   35.1210   -2.8760 O.3   804  DG804      -0.2926
      5  C5'        9.0910   34.8590   -1.9390 C.3   804  DG804       0.1827
      6  C4'        9.9910   36.0790   -1.7820 C.3   804  DG804       0.1726
      7  O4'       11.0230   36.0990   -2.8150 O.3   804  DG804      -0.3511
      8  C3'        9.2570   37.4230   -1.8780 C.3   804  DG804       0.1538
      9  O3'        8.8750   37.8920   -0.5590 O.3   804  DG804      -0.3139
     10  C2'       10.2920   38.3070   -2.5710 C.3   804  DG804       0.0646
     11  C1'       10.9470   37.3140   -3.5360 C.3   804  DG804       0.1449
     12  P          7.8580   39.1280   -0.3250 P.3   805  DT805       0.2141
     13  OP1        7.5930   39.2050    1.1290 O.3   805  DT805      -0.4373
     14  OP2        6.7490   38.9760   -1.2910 O.2   805  DT805      -0.5172
     15  O5'        8.7390   40.3930   -0.7590 O.3   805  DT805      -0.3114
     16  C5'        8.1340   41.6440   -0.9840 C.3   805  DT805       0.1811
     17  C4'        9.2010   42.7140   -0.8970 C.3   805  DT805       0.1745
     18  O4'       10.1250   42.5740   -1.9940 O.3   805  DT805      -0.3340
     19  C3'        8.6840   44.1380   -0.9840 C.3   805  DT805       0.1556
     20  O3'        8.5550   44.6170    0.3440 O.3   805  DT805      -0.3139
     21  C2'        9.7680   44.8980   -1.7540 C.3   805  DT805       0.0845
     22  C1'       10.7720   43.8130   -2.1590 C.3   805  DT805       0.2089
     23  N1        11.2160   43.8740   -3.5720 N.am  805  DT805      -0.1794
     24  C2        12.5060   44.2550   -3.8420 C.1   805  DT805       0.2844
     25  O2        13.3110   44.5550   -2.9740 O.2   805  DT805      -0.1918
     26  N3        12.8260   44.2690   -5.1770 N.2   805  DT805      -0.2455
     27  C4        12.0030   43.9460   -6.2350 C.1   805  DT805       0.2134
     28  O4        12.4060   43.9930   -7.3900 O.2   805  DT805      -0.2088
     29  C5        10.6600   43.5430   -5.8760 C.2   805  DT805       0.0891
     30  C7         9.6620   43.1510   -6.9280 C.3   805  DT805       0.0462
     31  C6        10.3370   43.5260   -4.5760 C.2   805  DT805       0.0877
     32  P          7.2670   45.4760    0.7680 P.3   806  DC806       0.2141
     33  OP1        7.1900   45.4280    2.2480 O.3   806  DC806      -0.4373
     34  OP2        6.1040   45.0400   -0.0370 O.2   806  DC806      -0.5172
     35  O5'        7.6520   46.9500    0.2390 O.3   806  DC806      -0.3114
     36  C5'        8.8260   47.6380    0.6990 C.3   806  DC806       0.1812
     37  C4'        8.9570   48.9420   -0.0680 C.3   806  DC806       0.1773
     38  O4'        9.3630   48.5870   -1.4100 O.3   806  DC806      -0.3339
     39  C3'        7.6800   49.7900   -0.2090 C.3   806  DC806       0.1857
     40  O3'        7.9640   51.1720   -0.1790 O.3   806  DC806      -0.2203
     41  C2'        7.1720   49.4380   -1.5920 C.3   806  DC806       0.0874
     42  C1'        8.4940   49.1900   -2.3280 C.3   806  DC806       0.2090
     43  N1         8.3280   48.3220   -3.5250 N.am  806  DC806      -0.1802
     44  C2         9.1300   48.5730   -4.6380 C.1   806  DC806       0.2756
     45  O2         9.9620   49.4810   -4.5640 O.2   806  DC806      -0.1925
     46  N3         8.9840   47.8090   -5.7490 N.2   806  DC806      -0.3024
     47  C4         8.0760   46.8360   -5.7550 C.2   806  DC806       0.2346
     48  N4         7.9660   46.1190   -6.8740 N.pl3 806  DC806      -0.0921
     49  C5         7.2380   46.5650   -4.6260 C.2   806  DC806       0.0687
     50  C6         7.3950   47.3270   -3.5360 C.2   806  DC806       0.0835
@<TRIPOS>BOND
     1    28    27    2
     2    30    29    1
     3    48    47    1
     4    27    29    1
     5    27    26    2
     6    29    31    2
     7    47    46    2
     8    47    49    1
     9    46    44    2
    10    26    24    2
    11     3     1    1
    12    44    45    2
    13    44    43   am
    14    49    50    2
    15    31    23    1
    16    24    23   am
    17    24    25    2
    18    23    22    1
    19    50    43    1
    20    11     7    1
    21    11    10    1
    22    43    42    1
    23     1     4    1
    24     1     2    1
    25     4     5    1
    26     7     6    1
    27    10     8    1
    28    42    41    1
    29    42    38    1
    30    22    18    1
    31    22    21    1
    32    18    17    1
    33     5     6    1
    34     8     6    1
    35     8     9    1
    36    21    19    1
    37    41    39    1
    38    38    37    1
    39    14    12    2
    40    19    17    1
    41    19    20    1
    42    16    17    1
    43    16    15    1
    44    15    12    1
    45     9    12    1
    46    12    13    1
    47    39    40    1
    48    39    37    1
    49    37    36    1
    50    34    32    2
    51    35    36    1
    52    35    32    1
    53    20    32    1
    54    32    33    1
