@<TRIPOS>MOLECULE
1rfn_PBZ_A_1.pdb
 10 10 0 0 0
SMALL
GASTEIGER

@<TRIPOS>ATOM
      1  N2        20.9030   14.8300   55.7340 N.pl3 501  PBZ501      0.2047
      2  N3        19.9420   13.2080   57.0310 N.pl3 501  PBZ501      0.2047
      3  C7        19.8290   14.1420   56.1000 C.2   501  PBZ501      0.4766
      4  C4        18.5640   14.3460   55.5560 C.ar  501  PBZ501      0.0976
      5  C2        16.1990   13.8150   55.4810 C.ar  501  PBZ501      0.0183
      6  C3        17.4720   13.5860   55.9810 C.ar  501  PBZ501      0.0094
      7  C5        18.3430   15.3440   54.6020 C.ar  501  PBZ501      0.0094
      8  C6        17.0690   15.5830   54.0940 C.ar  501  PBZ501      0.0183
      9  C1        16.0010   14.8170   54.5430 C.ar  501  PBZ501      0.0891
     10  N1        14.7790   15.0760   54.1000 N.pl3 501  PBZ501     -0.1281
@<TRIPOS>BOND
     1     8     9   ar
     2     8     7   ar
     3    10     9    1
     4     9     5   ar
     5     7     4   ar
     6     5     6   ar
     7     4     6   ar
     8     4     3    1
     9     1     3    2
    10     3     2    1
