@<TRIPOS>MOLECULE
1rfq_ATP_A_1.pdb
 31 33 0 0 0
SMALL
GASTEIGER

@<TRIPOS>ATOM
      1  PG       -18.3640  123.3200   57.3850 P.3   376  ATP376      0.5373
      2  O1G      -18.0300  124.3900   56.3850 O.2   376  ATP376     -0.2221
      3  O2G      -18.8750  123.8160   58.6860 O.3   376  ATP376     -0.1143
      4  O3G      -19.2840  122.3280   56.7580 O.3   376  ATP376     -0.1143
      5  PB       -16.3710  121.2360   57.1340 P.3   376  ATP376      0.2277
      6  O1B      -15.0870  120.9090   57.5960 O.3   376  ATP376     -0.4368
      7  O2B      -16.9590  120.6060   55.9540 O.2   376  ATP376     -0.5168
      8  O3B      -17.0580  122.4880   57.7920 O.3   376  ATP376     -0.2258
      9  PA       -17.5670  118.7690   58.0490 P.3   376  ATP376      0.2189
     10  O1A      -18.9850  118.5920   57.9970 O.3   376  ATP376     -0.4371
     11  O2A      -16.6330  117.6700   57.7770 O.2   376  ATP376     -0.5170
     12  O3A      -16.9920  120.2070   58.2680 O.3   376  ATP376     -0.2700
     13  O5'      -17.8240  118.5910   59.4850 O.3   376  ATP376     -0.3112
     14  C5'      -17.5310  118.5140   60.7110 C.3   376  ATP376      0.1813
     15  C4'      -17.9470  118.7570   62.1000 C.3   376  ATP376      0.1821
     16  O4'      -19.0310  117.8280   62.3390 O.3   376  ATP376     -0.3135
     17  C3'      -16.7270  118.3170   62.8040 C.3   376  ATP376      0.2184
     18  O3'      -15.7220  119.2930   62.9900 O.3   376  ATP376     -0.2174
     19  C2'      -17.3380  117.7220   64.0860 C.3   376  ATP376      0.2570
     20  O2'      -17.4380  118.7080   65.1080 O.3   376  ATP376     -0.2130
     21  C1'      -18.7210  117.1680   63.6310 C.3   376  ATP376      0.3186
     22  N9       -18.7250  115.7050   63.4470 N.pl3 376  ATP376     -0.1439
     23  C8       -17.7780  114.8310   62.8850 C.3   376  ATP376      0.3377
     24  N7       -18.1290  113.5850   62.9090 N.2   376  ATP376     -0.2095
     25  C5       -19.3710  113.6370   63.5310 C.2   376  ATP376      0.2526
     26  C6       -20.4040  112.6090   63.9170 C.2   376  ATP376      0.4393
     27  N6       -20.2540  111.3280   63.7000 N.pl3 376  ATP376      0.2180
     28  N1       -21.5470  113.0450   64.5300 N.2   376  ATP376      0.0021
     29  C2       -21.7390  114.3460   64.7740 C.3   376  ATP376      0.5254
     30  N3       -20.8940  115.3670   64.4760 N.2   376  ATP376     -0.0055
     31  C4       -19.7170  114.9190   63.8540 C.2   376  ATP376      0.3518
@<TRIPOS>BOND
     1     7     5    2
     2     2     1    2
     3     4     1    1
     4     5     6    1
     5     5     8    1
     6     5    12    1
     7     1     8    1
     8     1     3    1
     9    11     9    2
    10    10     9    1
    11     9    12    1
    12     9    13    1
    13    13    14    1
    14    14    15    1
    15    15    16    1
    16    15    17    1
    17    16    21    1
    18    17    18    1
    19    17    19    1
    20    23    24    1
    21    23    22    1
    22    24    25    2
    23    22    21    1
    24    22    31    1
    25    25    31    1
    26    25    26    1
    27    21    19    1
    28    27    26    1
    29    31    30    2
    30    26    28    2
    31    19    20    1
    32    30    29    1
    33    28    29    1
