@<TRIPOS>MOLECULE
1rfq_LAR_A_1.pdb
 29 31 0 0 0
SMALL
GASTEIGER

@<TRIPOS>ATOM
      1  S1       -14.3710  121.5120   68.5530 S.3   377  LAR377     -0.0192
      2  N1       -14.6990  121.4060   66.0520 N.2   377  LAR377     -0.1932
      3  O1       -13.5670  117.5980   62.4750 O.2   377  LAR377     -0.2449
      4  O2       -11.7800  118.4410   63.6350 O.3   377  LAR377     -0.4490
      5  O3       -11.1530  121.6030   65.2900 O.3   377  LAR377     -0.3329
      6  O4       -12.3550  119.8230   66.1630 O.3   377  LAR377     -0.1930
      7  O5       -16.4660  120.5560   67.2360 O.2   377  LAR377     -0.2155
      8  C1       -12.6180  117.4230   63.2290 C.2   377  LAR377      0.3407
      9  C2       -12.2710  116.0880   63.7770 C.2   377  LAR377      0.0734
     10  C3       -11.2520  115.5540   64.4870 C.2   377  LAR377     -0.0372
     11  C4       -10.0460  116.3050   64.9670 C.3   377  LAR377      0.0269
     12  C5        -8.8360  115.8770   64.1890 C.3   377  LAR377      0.0304
     13  C6        -7.6780  116.8230   64.3020 C.2   377  LAR377     -0.0258
     14  C7        -7.5550  117.9640   64.9760 C.2   377  LAR377     -0.0049
     15  C8        -6.3650  118.7810   64.9740 C.2   377  LAR377     -0.0049
     16  C9        -6.3000  119.9500   65.6840 C.2   377  LAR377     -0.0265
     17  C10       -7.4540  120.4880   66.5410 C.3   377  LAR377      0.0221
     18  C11       -8.2140  121.6690   65.9480 C.3   377  LAR377      0.0068
     19  C12       -8.8410  121.4600   64.5860 C.3   377  LAR377      0.0301
     20  C13      -10.1680  120.7460   64.5750 C.3   377  LAR377      0.1214
     21  C14      -10.6340  120.5040   63.1460 C.3   377  LAR377      0.0734
     22  C15      -12.0030  119.8390   63.1500 C.3   377  LAR377      0.1766
     23  C16      -13.0110  120.5850   64.0150 C.3   377  LAR377      0.1048
     24  C17      -12.4440  121.0080   65.3810 C.3   377  LAR377      0.2448
     25  C18      -13.3150  122.0120   66.1090 C.3   377  LAR377      0.1810
     26  C19      -12.9930  122.2300   67.5600 C.3   377  LAR377      0.1042
     27  C20      -15.3720  121.0710   67.1330 C.1   377  LAR377      0.1790
     28  C21      -11.3640  114.0370   64.8340 C.3   377  LAR377      0.0266
     29  C22       -6.8470  120.8260   67.9910 C.3   377  LAR377      0.0047
@<TRIPOS>BOND
     1     3     8    2
     2    21    22    1
     3    21    20    1
     4    22     4    1
     5    22    23    1
     6     8     4    1
     7     8     9    1
     8     9    10    2
     9    23    24    1
    10    12    13    1
    11    12    11    1
    12    13    14    2
    13    10    28    1
    14    10    11    1
    15    20    19    1
    16    20     5    1
    17    19    18    1
    18    15    14    1
    19    15    16    2
    20     5    24    1
    21    24    25    1
    22    24     6    1
    23    16    17    1
    24    18    17    1
    25     2    25    1
    26     2    27    2
    27    25    26    1
    28    17    29    1
    29    27     7    2
    30    27     1    1
    31    26     1    1
