@<TRIPOS>MOLECULE
1rft_ACP_A_1.pdb
 31 33 0 0 0
SMALL
GASTEIGER

@<TRIPOS>ATOM
      1  PG        49.4360   46.8650   -5.5550 P.3   401  ACP401      0.1295
      2  O1G       50.3920   45.7400   -5.3380 O.3   401  ACP401     -0.3567
      3  O2G       48.0790   46.4780   -5.9670 O.2   401  ACP401     -0.4595
      4  O3G       49.4380   47.7820   -4.3430 O.3   401  ACP401     -0.3567
      5  PB        51.1280   47.5150   -7.9300 P.3   401  ACP401      0.3815
      6  O1B       50.4930   47.6450   -9.2540 O.2   401  ACP401     -0.2547
      7  O2B       51.9370   46.3370   -7.6310 O.3   401  ACP401     -0.1391
      8  C3B       49.9480   47.7270   -6.8090 C.3   401  ACP401      0.1768
      9  PA        53.2970   49.3440   -7.7100 P.3   401  ACP401      0.2209
     10  O1A       54.0830   48.6000   -6.7010 O.3   401  ACP401     -0.4371
     11  O2A       53.7610   49.3920   -9.1150 O.2   401  ACP401     -0.5170
     12  O3A       51.8400   48.8110   -7.6310 O.3   401  ACP401     -0.2483
     13  O5'       53.0640   50.7870   -7.1760 O.3   401  ACP401     -0.3111
     14  C5'       52.4510   51.8360   -7.9180 C.3   401  ACP401      0.1813
     15  C4'       52.9340   53.1620   -7.3850 C.3   401  ACP401      0.1821
     16  O4'       53.0700   53.0600   -5.9530 O.3   401  ACP401     -0.3135
     17  C3'       54.2690   53.6380   -7.9310 C.3   401  ACP401      0.2184
     18  O3'       54.0690   54.9660   -8.4010 O.3   401  ACP401     -0.2174
     19  C2'       55.1900   53.5610   -6.7760 C.3   401  ACP401      0.2570
     20  O2'       56.0070   54.7120   -6.6990 O.3   401  ACP401     -0.2130
     21  C1'       54.3550   53.4970   -5.5190 C.3   401  ACP401      0.3186
     22  N9        54.8920   52.5630   -4.4840 N.pl3 401  ACP401     -0.1439
     23  C8        54.2810   51.4910   -3.8740 C.3   401  ACP401      0.3377
     24  N7        54.9930   50.8690   -2.9800 N.2   401  ACP401     -0.2095
     25  C5        56.1630   51.5850   -2.9980 C.2   401  ACP401      0.2526
     26  C6        57.3850   51.4630   -2.2690 C.2   401  ACP401      0.4393
     27  N6        57.5490   50.5110   -1.3680 N.pl3 401  ACP401      0.2180
     28  N1        58.4000   52.3550   -2.5160 N.2   401  ACP401      0.0021
     29  C2        58.2310   53.3210   -3.4300 C.3   401  ACP401      0.5254
     30  N3        57.1320   53.5510   -4.1880 N.2   401  ACP401     -0.0055
     31  C4        56.1210   52.6310   -3.9130 C.2   401  ACP401      0.3518
@<TRIPOS>BOND
     1     6     5    2
     2    11     9    2
     3    18    17    1
     4    17    15    1
     5    17    19    1
     6     5     7    1
     7     5    12    1
     8     5     8    1
     9    14    15    1
    10    14    13    1
    11     9    12    1
    12     9    13    1
    13     9    10    1
    14    15    16    1
    15     8     1    1
    16    19    20    1
    17    19    21    1
    18     3     1    2
    19    16    21    1
    20     1     2    1
    21     1     4    1
    22    21    22    1
    23    22    31    1
    24    22    23    1
    25    30    31    2
    26    30    29    1
    27    31    25    1
    28    23    24    1
    29    29    28    1
    30    25    24    2
    31    25    26    1
    32    28    26    2
    33    26    27    1
