@<TRIPOS>MOLECULE
1rft_PXM_A_1.pdb
 12 12 0 0 0
SMALL
GASTEIGER

@<TRIPOS>ATOM
      1  N1        40.2890   45.5980   -2.2720 N.ar  402  PXM402     -0.2452
      2  C2        40.4590   44.6890   -1.2470 C.ar  402  PXM402      0.0978
      3  C2A       39.2390   44.1180   -0.5470 C.3   402  PXM402      0.0555
      4  C3        41.7960   44.2960   -0.9370 C.ar  402  PXM402      0.2063
      5  O3        41.9430   43.3890    0.0520 O.3   402  PXM402     -0.2856
      6  C4        42.9040   44.8350   -1.6730 C.ar  402  PXM402      0.0370
      7  C5        42.6250   45.7500   -2.7970 C.ar  402  PXM402      0.0302
      8  C5A       43.8190   46.2400   -3.6570 C.3   402  PXM402      0.2100
      9  O5        43.3940   47.0890   -4.6800 O.3   402  PXM402     -0.2151
     10  C6        41.3020   46.1470   -3.0650 C.ar  402  PXM402      0.0966
     11  C4A       44.2390   44.4250   -1.3310 C.3   402  PXM402      0.1386
     12  N4        44.4260   43.1830   -2.1020 N.3   402  PXM402     -0.1261
@<TRIPOS>BOND
     1     9     8    1
     2     8     7    1
     3    10     7   ar
     4    10     1   ar
     5     7     6   ar
     6     1     2   ar
     7    12    11    1
     8     6    11    1
     9     6     4   ar
    10     2     4   ar
    11     2     3    1
    12     4     5    1
