@<TRIPOS>MOLECULE
1rfu_PLP_A_1.pdb
 15 15 0 0 0
SMALL
GASTEIGER

@<TRIPOS>ATOM
      1  N1        24.6180   41.0680   -7.8680 N.ar  401  PLP401     -0.2452
      2  C2        23.5160   40.9350   -8.6590 C.ar  401  PLP401      0.0978
      3  C2A       23.3740   39.6340   -9.4450 C.3   401  PLP401      0.0555
      4  C3        22.5730   41.9440   -8.7120 C.ar  401  PLP401      0.2049
      5  O3        21.4630   41.8100   -9.5040 O.3   401  PLP401     -0.2857
      6  C4        22.7550   43.1060   -7.9370 C.ar  401  PLP401      0.0182
      7  C4A       21.6310   44.2050   -8.0590 C.3   401  PLP401      0.0342
      8  C5        23.9490   43.2040   -7.0990 C.ar  401  PLP401      0.0261
      9  C6        24.8570   42.1600   -7.1010 C.ar  401  PLP401      0.0965
     10  C5A       24.3600   44.3460   -6.1960 C.3   401  PLP401      0.1815
     11  O4P       24.1490   45.6550   -6.5580 O.3   401  PLP401     -0.2653
     12  P         24.5700   46.8330   -5.6050 P.3   401  PLP401      0.5329
     13  O1P       23.5190   47.0490   -4.5870 O.3   401  PLP401     -0.1145
     14  O2P       24.7140   48.0590   -6.6540 O.2   401  PLP401     -0.2224
     15  O3P       25.9480   46.4360   -5.1180 O.3   401  PLP401     -0.1145
@<TRIPOS>BOND
     1     5     4    1
     2     3     2    1
     3     4     2   ar
     4     4     6   ar
     5     2     1   ar
     6     7     6    1
     7     6     8   ar
     8     1     9   ar
     9     9     8   ar
    10     8    10    1
    11    14    12    2
    12    11    10    1
    13    11    12    1
    14    12    15    1
    15    12    13    1
