@<TRIPOS>MOLECULE
1rfu_ADP_A_1.pdb
 27 29 0 0 0
SMALL
GASTEIGER

@<TRIPOS>ATOM
      1  PB        24.5790   49.5610   -3.1580 P.3   402  ADP402      0.5373
      2  O1B       25.0050   48.7100   -1.9620 O.3   402  ADP402     -0.1143
      3  O2B       23.0540   50.0740   -3.0880 O.3   402  ADP402     -0.1143
      4  O3B       24.9080   49.0030   -4.4330 O.2   402  ADP402     -0.2221
      5  PA        24.9970   52.1870   -2.4530 P.3   402  ADP402      0.2231
      6  O1A       24.1490   52.9850   -3.4060 O.2   402  ADP402     -0.5169
      7  O2A       24.4000   52.1520   -1.0730 O.3   402  ADP402     -0.4370
      8  O3A       25.3430   50.8970   -2.9870 O.3   402  ADP402     -0.2261
      9  O5'       26.4580   52.8070   -2.3580 O.3   402  ADP402     -0.3111
     10  C5'       27.5380   52.1890   -3.0110 C.3   402  ADP402      0.1813
     11  C4'       28.7850   53.0630   -2.8420 C.3   402  ADP402      0.1821
     12  O4'       29.0700   53.6880   -4.0980 O.3   402  ADP402     -0.3135
     13  C3'       28.6690   54.1760   -1.8240 C.3   402  ADP402      0.2184
     14  O3'       29.7380   54.1310   -0.8880 O.3   402  ADP402     -0.2174
     15  C2'       28.7410   55.4830   -2.5890 C.3   402  ADP402      0.2570
     16  O2'       29.7800   56.3090   -2.1390 O.3   402  ADP402     -0.2130
     17  C1'       28.8800   55.0970   -4.0480 C.3   402  ADP402      0.3186
     18  N9        27.6810   55.5390   -4.8820 N.pl3 402  ADP402     -0.1439
     19  C8        26.7040   54.6940   -5.3440 C.3   402  ADP402      0.3377
     20  N7        25.8230   55.4140   -6.0480 N.2   402  ADP402     -0.2095
     21  C5        26.1820   56.6790   -6.0590 C.2   402  ADP402      0.2526
     22  C6        25.6800   57.8170   -6.6330 C.2   402  ADP402      0.4393
     23  N6        24.5530   57.7670   -7.3410 N.pl3 402  ADP402      0.2180
     24  N1        26.3120   59.0010   -6.4600 N.2   402  ADP402      0.0021
     25  C2        27.4710   59.0910   -5.7470 C.3   402  ADP402      0.5254
     26  N3        27.9770   57.9760   -5.1820 N.2   402  ADP402     -0.0055
     27  C4        27.4120   56.7590   -5.3280 C.2   402  ADP402      0.3518
@<TRIPOS>BOND
     1    23    22    1
     2    22    24    2
     3    22    21    1
     4    24    25    1
     5    21    20    2
     6    21    27    1
     7    20    19    1
     8    25    26    1
     9    19    18    1
    10    27    26    2
    11    27    18    1
    12    18    17    1
    13     4     1    2
    14    12    17    1
    15    12    11    1
    16    17    15    1
    17     6     5    2
    18     1     3    1
    19     1     8    1
    20     1     2    1
    21    10    11    1
    22    10     9    1
    23     8     5    1
    24    11    13    1
    25    15    16    1
    26    15    13    1
    27     5     9    1
    28     5     7    1
    29    13    14    1
