@<TRIPOS>MOLECULE
1rfv_ADP_A_1.pdb
 27 29 0 0 0
SMALL
GASTEIGER

@<TRIPOS>ATOM
      1  PB        27.0860   -3.8850   61.0880 P.3   401  ADP401      0.5373
      2  O1B       26.8830   -4.4730   62.4730 O.3   401  ADP401     -0.1143
      3  O2B       28.5670   -4.1160   60.5080 O.3   401  ADP401     -0.1143
      4  O3B       26.0290   -4.3860   60.1440 O.2   401  ADP401     -0.2221
      5  PA        25.8810   -1.3640   61.2100 P.3   401  ADP401      0.2231
      6  O1A       24.8830   -1.9750   61.9470 O.3   401  ADP401     -0.4370
      7  O2A       25.1460   -0.8360   59.9500 O.2   401  ADP401     -0.5169
      8  O3A       27.0030   -2.3550   60.9890 O.3   401  ADP401     -0.2261
      9  O5'       26.8050   -0.4100   62.1030 O.3   401  ADP401     -0.3111
     10  C5'       26.5570   -0.3410   63.3780 C.3   401  ADP401      0.1813
     11  C4'       27.2040    0.7890   64.0430 C.3   401  ADP401      0.1821
     12  O4'       26.2610    1.7400   63.6720 O.3   401  ADP401     -0.3135
     13  C3'       27.0850    0.5870   65.5810 C.3   401  ADP401      0.2184
     14  O3'       28.1690    1.2660   66.3070 O.3   401  ADP401     -0.2174
     15  C2'       25.7370    1.1820   65.9170 C.3   401  ADP401      0.2570
     16  O2'       25.7030    1.7880   67.2000 O.3   401  ADP401     -0.2130
     17  C1'       25.4260    2.1210   64.7530 C.3   401  ADP401      0.3186
     18  N9        23.9750    2.0070   64.3280 N.pl3 401  ADP401     -0.1439
     19  C8        23.5240    1.5050   63.1340 C.3   401  ADP401      0.3377
     20  N7        22.1870    1.5690   63.1030 N.2   401  ADP401     -0.2095
     21  C5        21.7640    2.1040   64.2330 C.2   401  ADP401      0.2526
     22  C6        20.5140    2.4190   64.7830 C.2   401  ADP401      0.4393
     23  N6        19.3910    2.2060   64.0670 N.pl3 401  ADP401      0.2180
     24  N1        20.4370    2.9830   66.0460 N.2   401  ADP401      0.0021
     25  C2        21.5520    3.2200   66.7950 C.3   401  ADP401      0.5254
     26  N3        22.7610    2.9210   66.2660 N.2   401  ADP401     -0.0055
     27  C4        22.9150    2.3600   65.0350 C.2   401  ADP401      0.3518
@<TRIPOS>BOND
     1     7     5    2
     2     4     1    2
     3     3     1    1
     4     8     1    1
     5     8     5    1
     6     1     2    1
     7     5     6    1
     8     5     9    1
     9     9    10    1
    10    20    19    1
    11    20    21    2
    12    19    18    1
    13    10    11    1
    14    12    11    1
    15    12    17    1
    16    11    13    1
    17    23    22    1
    18    21    22    1
    19    21    27    1
    20    18    17    1
    21    18    27    1
    22    17    15    1
    23    22    24    2
    24    27    26    2
    25    13    15    1
    26    13    14    1
    27    15    16    1
    28    24    25    1
    29    26    25    1
