@<TRIPOS>MOLECULE
1rg1_OTS_A_1.pdb
 11 11 0 0 0
SMALL
GASTEIGER

@<TRIPOS>ATOM
      1  C2         8.8030   53.8110   -3.5600 C.ar  997  OTS997      0.0015
      2  C3         8.2470   53.7250   -2.2790 C.ar  997  OTS997      0.0418
      3  C4         6.9600   53.2330   -2.1220 C.ar  997  OTS997      0.1957
      4  O4         6.4270   53.1590   -0.8880 O.3   997  OTS997     -0.2866
      5  C5         6.2280   52.8150   -3.2360 C.ar  997  OTS997      0.0418
      6  C6         6.7900   52.9030   -4.5160 C.ar  997  OTS997      0.0015
      7  C1         8.0770   53.4000   -4.6730 C.ar  997  OTS997      0.0094
      8  C7         8.7030   53.4880   -6.0730 C.3   997  OTS997      0.1932
      9  O7         9.8480   52.6340   -6.1330 O.3   997  OTS997     -0.2167
     10  C8         9.1800   54.9170   -6.3220 C.3   997  OTS997      0.1466
     11  N8         8.1050   55.7010   -6.9620 N.3   997  OTS997     -0.1282
@<TRIPOS>BOND
     1    11    10    1
     2    10     8    1
     3     9     8    1
     4     8     7    1
     5     7     6   ar
     6     7     1   ar
     7     6     5   ar
     8     1     2   ar
     9     5     3   ar
    10     2     3   ar
    11     3     4    1
