@<TRIPOS>MOLECULE
1rg2_NUC_F_1.pdb
 41 45 0 0 0
SMALL
GASTEIGER

@<TRIPOS>ATOM
      1  P          7.4870   26.9070   56.8330 P.3   805  DT805       0.3942
      2  OP1        7.7380   27.4150   55.4690 O.3   805  DT805      -0.1425
      3  OP2        8.6480   26.6660   57.7380 O.3   805  DT805      -0.1425
      4  O5'        6.5090   27.9190   57.5740 O.3   805  DT805      -0.2926
      5  C5'        7.0270   28.7260   58.5980 C.3   805  DT805       0.1828
      6  C4'        6.0470   29.8430   58.8340 C.3   805  DT805       0.1745
      7  O4'        5.0450   29.3350   59.7260 O.3   805  DT805      -0.3340
      8  C3'        6.6280   31.0800   59.5040 C.3   805  DT805       0.1556
      9  O3'        6.7570   32.0980   58.5070 O.3   805  DT805      -0.3139
     10  C2'        5.6050   31.4750   60.5650 C.3   805  DT805       0.0845
     11  C1'        4.5030   30.4240   60.4280 C.3   805  DT805       0.2089
     12  N1         4.0000   29.8470   61.6980 N.am  805  DT805      -0.1794
     13  C2         2.6380   29.9300   61.9880 C.1   805  DT805       0.2844
     14  O2         1.8050   30.4730   61.2590 O.2   805  DT805      -0.1918
     15  N3         2.2840   29.3490   63.1890 N.2   805  DT805      -0.2455
     16  C4         3.1270   28.7060   64.0910 C.1   805  DT805       0.2134
     17  O4         2.7100   28.2170   65.1390 O.2   805  DT805      -0.2088
     18  C5         4.5250   28.6560   63.7190 C.2   805  DT805       0.0891
     19  C7         5.5190   27.9900   64.6270 C.3   805  DT805       0.0462
     20  C6         4.8910   29.2190   62.5520 C.2   805  DT805       0.0877
     21  P          8.0020   33.0950   58.5310 P.3   806  DA806       0.2141
     22  OP1        8.1070   33.6720   57.1520 O.2   806  DA806      -0.5172
     23  OP2        9.1990   32.4780   59.1640 O.3   806  DA806      -0.4373
     24  O5'        7.5260   34.2000   59.5920 O.3   806  DA806      -0.3114
     25  C5'        6.3260   34.9500   59.4700 C.3   806  DA806       0.1812
     26  C4'        6.2050   35.8180   60.7030 C.3   806  DA806       0.1795
     27  O4'        5.9170   34.9330   61.8090 O.3   806  DA806      -0.3155
     28  C3'        7.4870   36.5710   61.0910 C.3   806  DA806       0.1883
     29  O3'        7.1920   37.8670   61.6030 O.3   806  DA806      -0.2202
     30  C2'        8.0940   35.7490   62.2160 C.3   806  DA806       0.1151
     31  C1'        6.8450   35.1390   62.8530 C.3   806  DA806       0.2873
     32  N9         7.1230   33.8430   63.4510 N.pl3 806  DA806      -0.1460
     33  C8         7.9610   32.8770   62.9570 C.3   806  DA806       0.3377
     34  N7         8.0360   31.8090   63.7060 N.2   806  DA806      -0.2095
     35  C5         7.1870   32.0890   64.7590 C.2   806  DA806       0.2526
     36  C6         6.8230   31.3490   65.9060 C.2   806  DA806       0.4393
     37  N6         7.2990   30.1240   66.1780 N.pl3 806  DA806       0.2180
     38  N1         5.9530   31.9190   66.7680 N.2   806  DA806       0.0021
     39  C2         5.4810   33.1460   66.5000 C.3   806  DA806       0.5254
     40  N3         5.7510   33.9430   65.4560 N.2   806  DA806      -0.0055
     41  C4         6.6240   33.3450   64.6210 C.2   806  DA806       0.3518
@<TRIPOS>BOND
     1     2     1    1
     2     1     4    1
     3     1     3    1
     4    22    21    2
     5     4     5    1
     6     9    21    1
     7     9     8    1
     8    21    23    1
     9    21    24    1
    10     5     6    1
    11     6     8    1
    12     6     7    1
    13    25    24    1
    14    25    26    1
    15     8    10    1
    16     7    11    1
    17    11    10    1
    18    11    12    1
    19    26    28    1
    20    26    27    1
    21    28    29    1
    22    28    30    1
    23    14    13    2
    24    12    13   am
    25    12    20    1
    26    27    31    1
    27    13    15    2
    28    30    31    1
    29    20    18    2
    30    31    32    1
    31    33    32    1
    32    33    34    1
    33    15    16    2
    34    32    41    1
    35    34    35    2
    36    18    16    1
    37    18    19    1
    38    16    17    2
    39    41    35    1
    40    41    40    2
    41    35    36    1
    42    40    39    1
    43    36    37    1
    44    36    38    2
    45    39    38    1
