@<TRIPOS>MOLECULE
1rg2_OTS_A_1.pdb
 11 11 0 0 0
SMALL
GASTEIGER

@<TRIPOS>ATOM
      1  C2         8.7750   53.8350   -3.4990 C.ar  995  OTS995      0.0015
      2  C3         8.1730   53.7360   -2.2470 C.ar  995  OTS995      0.0418
      3  C4         6.8920   53.2150   -2.1280 C.ar  995  OTS995      0.1957
      4  O4         6.3170   53.1190   -0.9060 O.3   995  OTS995     -0.2866
      5  C5         6.2020   52.7980   -3.2650 C.ar  995  OTS995      0.0418
      6  C6         6.7990   52.9040   -4.5210 C.ar  995  OTS995      0.0015
      7  C1         8.0860   53.4230   -4.6400 C.ar  995  OTS995      0.0094
      8  C7         8.7170   53.5320   -6.0340 C.3   995  OTS995      0.1932
      9  O7         8.1700   52.4950   -6.8500 O.3   995  OTS995     -0.2167
     10  C8        10.2360   53.4150   -5.9770 C.3   995  OTS995      0.1466
     11  N8        10.6030   51.9910   -5.7660 N.3   995  OTS995     -0.1282
@<TRIPOS>BOND
     1     9     8    1
     2     8    10    1
     3     8     7    1
     4    10    11    1
     5     7     6   ar
     6     7     1   ar
     7     6     5   ar
     8     1     2   ar
     9     5     3   ar
    10     2     3   ar
    11     3     4    1
