@<TRIPOS>MOLECULE
1rg5_U10_L_1.pdb
 48 48 0 0 0
SMALL
GASTEIGER

@<TRIPOS>ATOM
      1  C1        12.2490  117.3260   35.0770 C.2   502  U10502      0.0198
      2  C2        11.4550  117.0230   36.3130 C.2   502  U10502      0.2282
      3  C3        10.2590  117.7930   36.6740 C.2   502  U10502      0.2140
      4  C4         9.8600  118.8100   35.8320 C.2   502  U10502      0.2140
      5  C5        10.6530  119.1220   34.6140 C.2   502  U10502      0.2285
      6  C6        11.8460  118.3530   34.2550 C.2   502  U10502      0.0235
      7  C1M       13.4730  116.5450   34.7210 C.3   502  U10502      0.0343
      8  C3M        9.7330  117.9360   39.2440 C.3   502  U10502      0.2528
      9  C4M        8.9100  120.8890   36.7730 C.3   502  U10502      0.2528
     10  C7        12.5580  118.8000   32.9920 C.3   502  U10502      0.0548
     11  C8        12.2630  117.9870   31.7640 C.2   502  U10502     -0.0298
     12  C9        12.4430  118.4910   30.5320 C.2   502  U10502     -0.0475
     13  C10       12.9510  119.8640   30.2400 C.3   502  U10502      0.0260
     14  C11       12.1700  117.6030   29.3620 C.3   502  U10502      0.0264
     15  C12       13.1540  116.4390   29.4590 C.3   502  U10502      0.0297
     16  C13       13.3850  115.8590   28.0860 C.2   502  U10502     -0.0342
     17  C14       14.2380  114.8340   27.8760 C.2   502  U10502     -0.0478
     18  C15       14.9950  114.2220   29.0150 C.3   502  U10502      0.0260
     19  C16       14.4130  114.3000   26.4670 C.3   502  U10502      0.0263
     20  C17       13.2310  113.3810   26.1570 C.3   502  U10502      0.0297
     21  C18       13.2010  112.9840   24.6970 C.2   502  U10502     -0.0342
     22  C19       12.2200  113.3590   23.8610 C.2   502  U10502     -0.0478
     23  C20       11.0760  114.2400   24.2800 C.3   502  U10502      0.0260
     24  C21       12.2860  112.9070   22.4210 C.3   502  U10502      0.0263
     25  C22       11.5670  111.5660   22.2190 C.3   502  U10502      0.0297
     26  C23       12.4280  110.3100   22.2270 C.2   502  U10502     -0.0342
     27  C24       13.6550  110.1500   21.6690 C.2   502  U10502     -0.0478
     28  C25       14.4150  111.2130   20.9290 C.3   502  U10502      0.0260
     29  C26       14.3050  108.7930   21.7700 C.3   502  U10502      0.0263
     30  C27       13.9270  108.0090   20.5110 C.3   502  U10502      0.0297
     31  C28       14.9370  108.2630   19.4060 C.2   502  U10502     -0.0342
     32  C29       14.7100  107.9790   18.1080 C.2   502  U10502     -0.0478
     33  C30       13.3970  107.3950   17.6510 C.3   502  U10502      0.0260
     34  C31       15.8090  108.2820   17.0960 C.3   502  U10502      0.0263
     35  C32       17.0610  107.3930   17.2350 C.3   502  U10502      0.0297
     36  C33       18.1270  107.9000   16.2750 C.2   502  U10502     -0.0342
     37  C34       18.5570  107.2370   15.1660 C.2   502  U10502     -0.0478
     38  C35       19.6220  107.9130   14.3230 C.3   502  U10502      0.0260
     39  C36       18.0130  105.8550   14.7640 C.3   502  U10502      0.0263
     40  C37       18.0910  105.5170   13.2590 C.3   502  U10502      0.0297
     41  C38       17.0010  104.5060   12.9110 C.2   502  U10502     -0.0342
     42  C39       16.4730  104.3740   11.6740 C.2   502  U10502     -0.0478
     43  C40       16.9460  105.2250   10.5270 C.3   502  U10502      0.0260
     44  C41       15.3880  103.3680   11.3850 C.3   502  U10502      0.0260
     45  O2        11.7520  116.1410   37.0970 O.2   502  U10502     -0.2836
     46  O3         9.5380  117.4170   37.9050 O.2   502  U10502     -0.4652
     47  O4         8.6960  119.6240   36.1440 O.2   502  U10502     -0.4652
     48  O5        10.3410  120.0220   33.8390 O.2   502  U10502     -0.2835
@<TRIPOS>BOND
     1    43    42    1
     2    44    42    1
     3    42    41    2
     4    41    40    1
     5    40    39    1
     6    38    37    1
     7    39    37    1
     8    37    36    2
     9    36    35    1
    10    34    35    1
    11    34    32    1
    12    33    32    1
    13    32    31    2
    14    31    30    1
    15    30    29    1
    16    28    27    1
    17    27    29    1
    18    27    26    2
    19    25    26    1
    20    25    24    1
    21    24    22    1
    22    22    23    1
    23    22    21    2
    24    21    20    1
    25    20    19    1
    26    19    17    1
    27    17    16    2
    28    17    18    1
    29    16    15    1
    30    14    15    1
    31    14    12    1
    32    13    12    1
    33    12    11    2
    34    11    10    1
    35    10     6    1
    36    48     5    2
    37     6     5    1
    38     6     1    2
    39     5     4    1
    40     7     1    1
    41     1     2    1
    42     4    47    1
    43     4     3    2
    44    47     9    1
    45     2     3    1
    46     2    45    2
    47     3    46    1
    48    46     8    1
