@<TRIPOS>MOLECULE
1rg7_MTX_A_1.pdb
 33 35 0 0 0
SMALL
GASTEIGER

@<TRIPOS>ATOM
      1  N1         1.9040   24.1870   25.7260 N.2   161  MTX161     -0.2684
      2  C2         2.7280   25.1630   25.4450 C.1   161  MTX161      0.2519
      3  NA2        2.6960   26.2150   26.1580 N.pl3 161  MTX161     -0.0226
      4  N3         3.6210   25.0320   24.3250 N.2   161  MTX161     -0.3033
      5  C4         3.6750   23.9490   23.5200 C.2   161  MTX161      0.2728
      6  NA4        4.4980   23.8820   22.5310 N.pl3 161  MTX161     -0.0887
      7  C4A        2.7150   22.9080   23.8680 C.2   161  MTX161      0.2518
      8  N5         2.7050   21.8310   23.1330 N.2   161  MTX161     -0.3917
      9  C6         1.8520   20.8690   23.5440 C.2   161  MTX161      0.1330
     10  C7         1.0630   21.0690   24.6830 C.3   161  MTX161      0.1930
     11  N8         1.0450   22.1330   25.4170 N.2   161  MTX161     -0.1998
     12  C8A        1.9030   23.0570   24.9490 C.1   161  MTX161      0.1314
     13  C9         1.8610   19.6380   22.7520 C.3   161  MTX161      0.1481
     14  N10        0.6440   18.8390   22.9570 N.pl3 161  MTX161     -0.2999
     15  CM         0.8330   17.4340   23.4040 C.3   161  MTX161      0.1125
     16  C11       -3.1920   20.2440   22.1020 C.ar  161  MTX161      0.0551
     17  C12       -2.9710   19.0040   22.8100 C.ar  161  MTX161      0.0058
     18  C13       -1.6900   18.5820   23.0670 C.ar  161  MTX161      0.0147
     19  C14       -0.6160   19.3760   22.6340 C.ar  161  MTX161      0.0482
     20  C15       -0.8040   20.5670   21.9700 C.ar  161  MTX161      0.0147
     21  C16       -2.1150   21.0220   21.6970 C.ar  161  MTX161      0.0058
     22  C         -4.4890   20.7550   21.8160 C.2   161  MTX161      0.2652
     23  O         -5.5250   20.0640   21.8370 O.2   161  MTX161     -0.2684
     24  N         -4.6310   22.0490   21.7740 N.am  161  MTX161     -0.1918
     25  CA        -5.9220   22.5710   21.2230 C.3   161  MTX161      0.1986
     26  CT        -5.7220   23.6060   20.1740 C.2   161  MTX161      0.3842
     27  O1        -4.6130   24.1900   20.0990 O.co2 161  MTX161     -0.2437
     28  O2        -6.7520   23.8800   19.4790 O.co2 161  MTX161     -0.2437
     29  CB        -6.5900   23.3980   22.3290 C.3   161  MTX161      0.0451
     30  CG        -8.0310   22.7960   22.6220 C.3   161  MTX161      0.1164
     31  CD        -8.2440   22.8910   24.1330 C.2   161  MTX161      0.3649
     32  OE1       -8.2420   21.7240   24.6440 O.co2 161  MTX161     -0.2457
     33  OE2       -8.2680   24.0170   24.6950 O.co2 161  MTX161     -0.2457
@<TRIPOS>BOND
     1    28    26   ar
     2    27    26   ar
     3    26    25    1
     4    25    24    1
     5    25    29    1
     6    21    20   ar
     7    21    16   ar
     8    24    22   am
     9    22    23    2
    10    22    16    1
    11    20    19   ar
    12    16    17   ar
    13    29    30    1
    14     6     5    1
    15    30    31    1
    16    19    14    1
    17    19    18   ar
    18    13    14    1
    19    13     9    1
    20    17    18   ar
    21    14    15    1
    22     8     9    2
    23     8     7    2
    24     5     7    1
    25     5     4    2
    26     9    10    1
    27     7    12    1
    28    31    32   ar
    29    31    33   ar
    30     4     2    2
    31    10    11    1
    32    12    11    2
    33    12     1    2
    34     2     1    2
    35     2     3    1
