@<TRIPOS>MOLECULE
1rg9_PPK_A_1.pdb
 13 12 0 0 0
SMALL
GASTEIGER

@<TRIPOS>ATOM
      1  O1G        2.2410   13.5150   -7.9660 O.2   384  PPK384     -0.2331
      2  PG         0.7590   13.0810   -7.6960 P.3   384  PPK384      0.4884
      3  O2G       -0.1630   13.9440   -6.7740 O.3   384  PPK384     -0.1240
      4  O3G        0.8260   11.9880   -6.5670 O.3   384  PPK384     -0.1240
      5  N3B       -0.0130   12.2040   -8.8110 N.3   384  PPK384     -0.0162
      6  PB        -1.2700   12.6770   -9.6990 P.3   384  PPK384      0.4700
      7  O1B       -1.7260   11.4960  -10.6050 O.2   384  PPK384     -0.2350
      8  O2B       -2.3450   13.0460   -8.6810 O.3   384  PPK384     -0.1252
      9  O3A       -1.0260   13.9430  -10.6780 O.3   384  PPK384     -0.1901
     10  PA        -0.5140   15.3880  -10.2660 P.3   384  PPK384      0.5397
     11  O1A        0.9090   15.2840   -9.6720 O.3   384  PPK384     -0.1143
     12  O2A       -1.4620   15.9670   -9.1960 O.3   384  PPK384     -0.1143
     13  O4A       -0.4730   16.3520  -11.5470 O.2   384  PPK384     -0.2220
@<TRIPOS>BOND
     1    13    10    2
     2     9    10    1
     3     9     6    1
     4     7     6    2
     5    10    11    1
     6    10    12    1
     7     6     5    1
     8     6     8    1
     9     5     2    1
    10     1     2    2
    11     2     3    1
    12     2     4    1
