@<TRIPOS>MOLECULE
1rg9_SAM_A_1.pdb
 27 29 0 0 0
SMALL
GASTEIGER

@<TRIPOS>ATOM
      1  N         -5.5600   11.0580  -13.0550 N.3   385  SAM385     -0.1208
      2  CA        -5.0420   11.3070  -14.4210 C.3   385  SAM385      0.1952
      3  C         -5.5220   10.2240  -15.3530 C.2   385  SAM385      0.3819
      4  O         -4.6960    9.6550  -16.0910 O.co2 385  SAM385     -0.2441
      5  OXT       -6.7740    9.9780  -15.2890 O.co2 385  SAM385     -0.2441
      6  CB        -3.5160   11.3490  -14.3890 C.3   385  SAM385      0.0414
      7  CG        -3.0370   12.5670  -13.6940 C.3   385  SAM385      0.0503
      8  SD        -3.1350   14.1590  -14.5750 S.3   385  SAM385     -0.1761
      9  CE        -1.8960   14.0250  -15.8620 C.3   385  SAM385      0.0590
     10  C5'       -2.5060   15.3020  -13.3640 C.3   385  SAM385      0.0806
     11  C4'       -2.3180   16.7830  -13.6570 C.3   385  SAM385      0.1622
     12  O4'       -1.8010   17.0000  -15.0090 O.3   385  SAM385     -0.3153
     13  C3'       -3.5850   17.6400  -13.6060 C.3   385  SAM385      0.2168
     14  O3'       -3.8530   17.9690  -12.2130 O.3   385  SAM385     -0.2175
     15  C2'       -3.1640   18.8540  -14.3940 C.3   385  SAM385      0.2569
     16  O2'       -2.5460   19.9510  -13.7190 O.3   385  SAM385     -0.2130
     17  C1'       -2.3220   18.2030  -15.5330 C.3   385  SAM385      0.3185
     18  N9        -3.0750   17.9080  -16.7560 N.pl3 385  SAM385     -0.1439
     19  C8        -4.3790   17.5070  -16.9350 C.3   385  SAM385      0.3377
     20  N7        -4.7160   17.3350  -18.1820 N.2   385  SAM385     -0.2095
     21  C5        -3.5640   17.6380  -18.8860 C.2   385  SAM385      0.2526
     22  C6        -3.2640   17.6510  -20.2760 C.2   385  SAM385      0.4393
     23  N6        -4.1830   17.3290  -21.2070 N.pl3 385  SAM385      0.2180
     24  N1        -2.0000   18.0040  -20.6900 N.2   385  SAM385      0.0021
     25  C2        -1.0780   18.3300  -19.7380 C.3   385  SAM385      0.5254
     26  N3        -1.2510   18.3550  -18.3880 N.2   385  SAM385     -0.0055
     27  C4        -2.5380   17.9930  -18.0240 C.2   385  SAM385      0.3518
@<TRIPOS>BOND
     1    23    22    1
     2    24    22    2
     3    24    25    1
     4    22    21    1
     5    25    26    1
     6    21    20    2
     7    21    27    1
     8    26    27    2
     9    20    19    1
    10    27    18    1
    11    19    18    1
    12    18    17    1
    13     4     3   ar
    14     9     8    1
    15    17    12    1
    16    17    15    1
    17     3     5   ar
    18     3     2    1
    19    12    11    1
    20     8     7    1
    21     8    10    1
    22     2     6    1
    23     2     1    1
    24    15    16    1
    25    15    13    1
    26     6     7    1
    27    11    13    1
    28    11    10    1
    29    13    14    1
