@<TRIPOS>MOLECULE
1rga_3GP_A_1.pdb
 24 26 0 0 0
SMALL
GASTEIGER

@<TRIPOS>ATOM
      1  P         21.4090   37.9760   19.5680 P.3   105  3GP105      0.5327
      2  O1P       22.6280   38.0120   18.7770 O.2   105  3GP105     -0.2224
      3  O2P       22.0200   38.9680   20.6130 O.3   105  3GP105     -0.1145
      4  O3P       20.0330   38.1080   18.8390 O.3   105  3GP105     -0.1145
      5  O5'       19.0570   36.0460   23.3320 O.3   105  3GP105     -0.2176
      6  C5'       20.4200   35.4880   23.3470 C.3   105  3GP105      0.2141
      7  C4'       20.5930   34.8910   21.9680 C.3   105  3GP105      0.1802
      8  O4'       19.5950   33.8170   21.9310 O.3   105  3GP105     -0.3326
      9  C3'       20.1730   35.9070   20.8370 C.3   105  3GP105      0.1903
     10  O3'       21.3270   36.4740   20.2330 O.3   105  3GP105     -0.2674
     11  C2'       19.3410   34.9950   19.9970 C.3   105  3GP105      0.2283
     12  O2'       19.9310   34.6660   18.7570 O.3   105  3GP105     -0.2159
     13  C1'       19.1640   33.6500   20.6260 C.3   105  3GP105      0.2292
     14  N9        17.8370   33.0860   20.6350 N.pl3 105  3GP105     -0.2354
     15  C8        17.3160   31.9970   19.9540 C.3   105  3GP105      0.2246
     16  N7        16.0010   31.8040   19.9410 N.2   105  3GP105     -0.2322
     17  C5        15.6990   32.8040   20.8250 C.2   105  3GP105      0.2182
     18  C6        14.4280   33.3600   21.1870 C.1   105  3GP105      0.2372
     19  O6        13.3780   32.7790   20.9560 O.2   105  3GP105     -0.2069
     20  N1        14.2790   34.5840   21.9240 N.2   105  3GP105     -0.2485
     21  C2        15.4210   35.3860   22.2550 C.1   105  3GP105      0.2531
     22  N2        15.1320   36.2910   23.0540 N.pl3 105  3GP105     -0.0226
     23  N3        16.6260   34.9730   21.7260 N.2   105  3GP105     -0.3074
     24  C4        16.7230   33.6870   21.1660 C.2   105  3GP105      0.2300
@<TRIPOS>BOND
     1    12    11    1
     2     2     1    2
     3     4     1    1
     4     1    10    1
     5     1     3    1
     6    16    15    1
     7    16    17    2
     8    15    14    1
     9    11    13    1
    10    11     9    1
    11    10     9    1
    12    13    14    1
    13    13     8    1
    14    14    24    1
    15    17    24    1
    16    17    18    1
    17     9     7    1
    18    19    18    2
    19    24    23    2
    20    18    20    2
    21    23    21    2
    22    20    21    2
    23     8     7    1
    24     7     6    1
    25    21    22    1
    26     5     6    1
