@<TRIPOS>MOLECULE
1rga_G_A_1.pdb
 20 22 0 0 0
SMALL
GASTEIGER

@<TRIPOS>ATOM
      1  O5'       24.0430   45.4080   18.5990 O.3   106  G106       -0.2176
      2  C5'       25.2480   44.8490   19.2360 C.3   106  G106        0.2142
      3  C4'       24.9340   43.5980   20.0330 C.3   106  G106        0.1828
      4  O4'       23.9650   43.8050   21.1080 O.3   106  G106       -0.3325
      5  C3'       24.2520   42.4430   19.2040 C.3   106  G106        0.2159
      6  O3'       24.5580   41.1480   19.7650 O.3   106  G106       -0.2175
      7  C2'       22.7950   42.7070   19.5080 C.3   106  G106        0.2310
      8  O2'       21.9620   41.6060   19.2110 O.3   106  G106       -0.2158
      9  C1'       22.7770   43.0450   20.9750 C.3   106  G106        0.2293
     10  N9        21.6610   43.9000   21.4070 N.pl3 106  G106       -0.2354
     11  C8        20.8010   43.5420   22.4450 C.3   106  G106        0.2246
     12  N7        19.8690   44.4370   22.7300 N.2   106  G106       -0.2322
     13  C5        20.1560   45.4300   21.8040 C.2   106  G106        0.2182
     14  C6        19.5630   46.7190   21.4750 C.1   106  G106        0.2372
     15  O6        18.6130   47.0760   22.1320 O.2   106  G106       -0.2069
     16  N1        20.0970   47.5860   20.4430 N.2   106  G106       -0.2485
     17  C2        21.2540   47.2050   19.6580 C.1   106  G106        0.2531
     18  N2        21.6510   47.9930   18.7650 N.pl3 106  G106       -0.0226
     19  N3        21.7880   45.9730   19.9580 N.2   106  G106       -0.3074
     20  C4        21.2560   45.1380   20.9410 C.2   106  G106        0.2300
@<TRIPOS>BOND
     1     1     2    1
     2    18    17    1
     3     5     7    1
     4     5     6    1
     5     5     3    1
     6     8     7    1
     7     2     3    1
     8     7     9    1
     9    17    19    2
    10    17    16    2
    11    19    20    2
    12     3     4    1
    13    16    14    2
    14    20    10    1
    15    20    13    1
    16     9     4    1
    17     9    10    1
    18    10    11    1
    19    14    13    1
    20    14    15    2
    21    13    12    2
    22    11    12    1
