@<TRIPOS>MOLECULE
1rgb_ELD_B_1.pdb
 20 19 0 0 0
SMALL
GASTEIGER

@<TRIPOS>ATOM
      1  C1         2.0340   65.9860   24.8680 C.3   134  ELD134      0.2418
      2  N1         1.6170   66.5470   26.0120 N.3   134  ELD134     -0.0968
      3  O2         1.6940   64.8080   24.5240 O.3   134  ELD134     -0.2022
      4  C2         3.5610   66.0650   24.5530 C.3   134  ELD134      0.0528
      5  C3         3.8490   65.3820   23.1890 C.3   134  ELD134      0.0042
      6  C4         5.2580   64.8890   23.4360 C.3   134  ELD134      0.0001
      7  C5         5.6030   63.5520   22.7800 C.3   134  ELD134      0.0000
      8  C6         6.4330   64.0020   21.5590 C.3   134  ELD134      0.0000
      9  C7         7.8850   63.5070   21.6200 C.3   134  ELD134      0.0003
     10  C8         8.7720   64.3040   22.6040 C.3   134  ELD134      0.0047
     11  C9         9.4450   63.4790   23.6850 C.3   134  ELD134      0.0257
     12  C10       10.5010   62.7410   23.3630 C.2   134  ELD134     -0.0307
     13  C11       11.8610   63.3570   23.3690 C.2   134  ELD134     -0.0307
     14  C12       12.9920   62.4430   22.9610 C.3   134  ELD134      0.0257
     15  C13       14.0450   62.3280   24.0240 C.3   134  ELD134      0.0047
     16  C14       14.8430   61.0430   23.8670 C.3   134  ELD134      0.0003
     17  C15       15.9280   60.9380   24.9510 C.3   134  ELD134      0.0000
     18  C16       17.1090   61.9050   24.7060 C.3   134  ELD134      0.0000
     19  C17       18.3480   61.2440   24.0780 C.3   134  ELD134      0.0000
     20  C18       19.6670   61.2840   24.8850 C.3   134  ELD134      0.0000
@<TRIPOS>BOND
     1     8     9    1
     2     8     7    1
     3     9    10    1
     4    10    11    1
     5     7     6    1
     6    14    13    1
     7    14    15    1
     8     5     6    1
     9     5     4    1
    10    12    13    2
    11    12    11    1
    12    16    15    1
    13    16    17    1
    14    19    18    1
    15    19    20    1
    16     3     1    1
    17     4     1    1
    18    18    17    1
    19     1     2    1
