@<TRIPOS>MOLECULE
1rgc_3GP_A_1.pdb
 24 26 0 0 0
SMALL
GASTEIGER

@<TRIPOS>ATOM
      1  P         49.1220   32.9130    1.0520 P.3   105  3GP105      0.5327
      2  O1P       50.4710   32.9610    0.4050 O.2   105  3GP105     -0.2224
      3  O2P       49.0130   31.7530    1.9830 O.3   105  3GP105     -0.1145
      4  O3P       48.7180   34.2180    1.7000 O.3   105  3GP105     -0.1145
      5  O5'       48.4210   31.8490   -3.0360 O.3   105  3GP105     -0.2176
      6  C5'       47.1830   32.5260   -3.3600 C.3   105  3GP105      0.2141
      7  C4'       46.4230   32.7190   -2.0640 C.3   105  3GP105      0.1802
      8  O4'       45.1330   32.0430   -2.1860 O.3   105  3GP105     -0.3326
      9  C3'       47.1070   31.9460   -0.9310 C.3   105  3GP105      0.1903
     10  O3'       47.9930   32.7190   -0.1620 O.3   105  3GP105     -0.2674
     11  C2'       45.9540   31.6080    0.0000 C.3   105  3GP105      0.2283
     12  O2'       46.0420   32.5740    1.0120 O.3   105  3GP105     -0.2159
     13  C1'       44.7220   31.6560   -0.8910 C.3   105  3GP105      0.2292
     14  N9        44.3250   30.2550   -0.9310 N.pl3 105  3GP105     -0.2354
     15  C8        43.1750   29.7710   -0.2830 C.3   105  3GP105      0.2246
     16  N7        43.0760   28.4660   -0.3240 N.2   105  3GP105     -0.2322
     17  C5        44.2260   28.0800   -1.0120 C.2   105  3GP105      0.2182
     18  C6        44.6280   26.7750   -1.4170 C.1   105  3GP105      0.2372
     19  O6        44.0790   25.7120   -1.1740 O.2   105  3GP105     -0.2069
     20  N1        45.8770   26.8230   -2.1050 N.2   105  3GP105     -0.2485
     21  C2        46.5760   27.9350   -2.3880 C.1   105  3GP105      0.2531
     22  N2        47.7270   27.7900   -3.1170 N.pl3 105  3GP105     -0.0226
     23  N3        46.1750   29.1430   -2.0640 N.2   105  3GP105     -0.3074
     24  C4        45.0250   29.1430   -1.3760 C.2   105  3GP105      0.2300
@<TRIPOS>BOND
     1     6     5    1
     2     6     7    1
     3    22    21    1
     4    21    20    2
     5    21    23    2
     6     8     7    1
     7     8    13    1
     8    20    18    2
     9    23    24    2
    10     7     9    1
    11    18    19    2
    12    18    17    1
    13    24    17    1
    14    24    14    1
    15    17    16    2
    16     9    10    1
    17     9    11    1
    18    14    13    1
    19    14    15    1
    20    13    11    1
    21    16    15    1
    22    10     1    1
    23    11    12    1
    24     2     1    2
    25     1     4    1
    26     1     3    1
