@<TRIPOS>MOLECULE
1rge_2GP_A_1.pdb
 24 26 0 0 0
SMALL
GASTEIGER

@<TRIPOS>ATOM
      1  P         58.8440    9.7810   20.5170 P.3    98  2GP98       0.5327
      2  O1P       59.6470    8.8390   21.2920 O.3    98  2GP98      -0.1145
      3  O2P       59.4950   11.0420   20.1220 O.3    98  2GP98      -0.1145
      4  O3P       58.1390    9.1390   19.3700 O.2    98  2GP98      -0.2224
      5  O5'       54.1440   10.6620   25.7960 O.3    98  2GP98      -0.2176
      6  C5'       54.7540   11.4110   24.7970 C.3    98  2GP98       0.2142
      7  C4'       55.7190   10.6410   23.8590 C.3    98  2GP98       0.1827
      8  O4'       55.0580    9.4580   23.3390 O.3    98  2GP98      -0.3326
      9  C3'       55.9530   11.4550   22.5520 C.3    98  2GP98       0.2132
     10  O3'       56.9460   12.4200   22.7060 O.3    98  2GP98      -0.2176
     11  C2'       56.4110   10.3460   21.5190 C.3    98  2GP98       0.2054
     12  O2'       57.7750   10.0730   21.7520 O.3    98  2GP98      -0.2657
     13  C1'       55.5530    9.1140   22.0460 C.3    98  2GP98       0.2266
     14  N9        54.4790    8.7610   21.1400 N.pl3  98  2GP98      -0.2354
     15  C8        54.0070    7.4510   21.0170 C.3    98  2GP98       0.2246
     16  N7        52.8720    7.3400   20.3990 N.2    98  2GP98      -0.2322
     17  C5        52.5900    8.6930   20.0770 C.2    98  2GP98       0.2182
     18  C6        51.4510    9.2610   19.4390 C.1    98  2GP98       0.2372
     19  O6        50.4790    8.6770   19.0420 O.2    98  2GP98      -0.2069
     20  N1        51.4870   10.6430   19.3610 N.2    98  2GP98      -0.2485
     21  C2        52.5390   11.3870   19.8000 C.1    98  2GP98       0.2531
     22  N2        52.4600   12.7050   19.5050 N.pl3  98  2GP98      -0.0226
     23  N3        53.5860   10.9040   20.4140 N.2    98  2GP98      -0.3074
     24  C4        53.5540    9.5500   20.5010 C.2    98  2GP98       0.2300
@<TRIPOS>BOND
     1    19    18    2
     2    20    18    2
     3    20    21    2
     4     4     1    2
     5    18    17    1
     6    22    21    1
     7    21    23    2
     8    17    16    2
     9    17    24    1
    10     3     1    1
    11    16    15    1
    12    23    24    2
    13    24    14    1
    14     1     2    1
    15     1    12    1
    16    15    14    1
    17    14    13    1
    18    11    12    1
    19    11    13    1
    20    11     9    1
    21    13     8    1
    22     9    10    1
    23     9     7    1
    24     8     7    1
    25     7     6    1
    26     6     5    1
