@<TRIPOS>MOLECULE
1rgi_ATP_A_1.pdb
 31 33 0 0 0
SMALL
GASTEIGER

@<TRIPOS>ATOM
      1  PG        50.7860   17.1240    9.9640 P.3   380  ATP380      0.5373
      2  O1G       49.3530   17.0150   10.3120 O.3   380  ATP380     -0.1143
      3  O2G       51.3940   15.7200    9.9360 O.3   380  ATP380     -0.1143
      4  O3G       50.9050   17.7400    8.5460 O.2   380  ATP380     -0.2221
      5  PB        52.0160   19.6100   10.6300 P.3   380  ATP380      0.2277
      6  O1B       51.8270   20.6090   11.6740 O.3   380  ATP380     -0.4368
      7  O2B       51.2200   20.0200    9.3840 O.2   380  ATP380     -0.5168
      8  O3B       51.5580   18.1070   11.0260 O.3   380  ATP380     -0.2258
      9  PA        54.4240   20.5490    9.4010 P.3   380  ATP380      0.2189
     10  O1A       54.1980   20.2890    7.9670 O.2   380  ATP380     -0.5170
     11  O2A       54.1140   22.0060    9.7900 O.3   380  ATP380     -0.4371
     12  O3A       53.5850   19.4620   10.2730 O.3   380  ATP380     -0.2700
     13  O5'       55.9400   20.2130    9.7320 O.3   380  ATP380     -0.3112
     14  C5'       56.3200   19.9840   11.0720 C.3   380  ATP380      0.1813
     15  C4'       57.3400   18.8680   11.1120 C.3   380  ATP380      0.1821
     16  O4'       58.3970   19.2250   10.2500 O.3   380  ATP380     -0.3135
     17  C3'       57.9450   18.6700   12.4790 C.3   380  ATP380      0.2184
     18  O3'       57.9430   17.2820   12.7690 O.3   380  ATP380     -0.2174
     19  C2'       59.3290   19.2560   12.2740 C.3   380  ATP380      0.2570
     20  O2'       60.3240   18.7100   13.0870 O.3   380  ATP380     -0.2130
     21  C1'       59.6100   18.9260   10.8370 C.3   380  ATP380      0.3186
     22  N9        60.6480   19.7210   10.2100 N.pl3 380  ATP380     -0.1439
     23  C8        60.6420   21.0560   10.0200 C.3   380  ATP380      0.3377
     24  N7        61.7880   21.4110    9.4080 N.2   380  ATP380     -0.2095
     25  C5        62.5050   20.3080    9.1800 C.2   380  ATP380      0.2526
     26  C6        63.7240   20.1040    8.5970 C.2   380  ATP380      0.4393
     27  N6        64.5790   21.0840    8.3800 N.pl3 380  ATP380      0.2180
     28  N1        64.2030   18.8420    8.5350 N.2   380  ATP380      0.0021
     29  C2        63.5020   17.7690    9.0340 C.3   380  ATP380      0.5254
     30  N3        62.2790   18.0110    9.5970 N.2   380  ATP380     -0.0055
     31  C4        61.7950   19.2550    9.6780 C.2   380  ATP380      0.3518
@<TRIPOS>BOND
     1    10     9    2
     2    27    26    1
     3    28    26    2
     4    28    29    1
     5     4     1    2
     6    26    25    1
     7    29    30    1
     8    25    24    2
     9    25    31    1
    10     7     5    2
    11     9    13    1
    12     9    11    1
    13     9    12    1
    14    24    23    1
    15    30    31    2
    16    31    22    1
    17    13    14    1
    18     3     1    1
    19     1     2    1
    20     1     8    1
    21    23    22    1
    22    22    21    1
    23    16    21    1
    24    16    15    1
    25    12     5    1
    26     5     8    1
    27     5     6    1
    28    21    19    1
    29    14    15    1
    30    15    17    1
    31    19    17    1
    32    19    20    1
    33    17    18    1
