@<TRIPOS>MOLECULE
1rgk_2AM_A_1.pdb
 23 25 0 0 0
SMALL
GASTEIGER

@<TRIPOS>ATOM
      1  P         19.7920   13.7520    1.2250 P.3   105  2AM105      0.5328
      2  O1P       18.4580   14.4390    1.1070 O.2   105  2AM105     -0.2224
      3  O2P       20.8270   14.5940    1.8960 O.3   105  2AM105     -0.1145
      4  O3P       19.7170   12.3620    1.7990 O.3   105  2AM105     -0.1145
      5  C5'       24.5220   14.2450   -2.1090 C.3   105  2AM105      0.2143
      6  O5'       24.9700   13.4850   -0.9810 O.3   105  2AM105     -0.2176
      7  C4'       23.1270   13.8080   -2.5000 C.3   105  2AM105      0.1850
      8  O4'       22.9760   12.3730   -2.2650 O.3   105  2AM105     -0.3135
      9  C3'       22.0030   14.4660   -1.7040 C.3   105  2AM105      0.2158
     10  O3'       20.9330   14.7360   -2.5910 O.3   105  2AM105     -0.2175
     11  C2'       21.5990   13.3690   -0.7050 C.3   105  2AM105      0.2314
     12  O2'       20.2570   13.5510   -0.2960 O.3   105  2AM105     -0.2630
     13  C1'       21.7400   12.1560   -1.6280 C.3   105  2AM105      0.3158
     14  N9        21.8020   10.8520   -0.9780 N.pl3 105  2AM105     -0.1439
     15  C8        22.5210   10.6580    0.1690 C.3   105  2AM105      0.3377
     16  N7        22.4930    9.4040    0.6080 N.2   105  2AM105     -0.2095
     17  C5        21.6930    8.7420   -0.3220 C.2   105  2AM105      0.2526
     18  C6        21.2660    7.3980   -0.4120 C.2   105  2AM105      0.4393
     19  N6        21.6000    6.4780    0.5070 N.pl3 105  2AM105      0.2180
     20  N1        20.4860    7.0540   -1.4610 N.2   105  2AM105      0.0021
     21  C2        20.1470    7.9990   -2.3500 C.3   105  2AM105      0.5254
     22  N3        20.4790    9.2980   -2.3670 N.2   105  2AM105     -0.0055
     23  C4        21.2690    9.6090   -1.3200 C.2   105  2AM105      0.3518
@<TRIPOS>BOND
     1    10     9    1
     2     7     8    1
     3     7     5    1
     4     7     9    1
     5    22    21    1
     6    22    23    2
     7    21    20    1
     8     8    13    1
     9     5     6    1
    10     9    11    1
    11    13    14    1
    12    13    11    1
    13    20    18    2
    14    23    14    1
    15    23    17    1
    16    14    15    1
    17    11    12    1
    18    18    17    1
    19    18    19    1
    20    17    16    2
    21    12     1    1
    22    15    16    1
    23     2     1    2
    24     1     4    1
    25     1     3    1
