@<TRIPOS>MOLECULE
1rgl_2GP_A_1.pdb
 24 26 0 0 0
SMALL
GASTEIGER

@<TRIPOS>ATOM
      1  P         19.9730   13.7230    1.2210 P.3   105  2GP105      0.5327
      2  O1P       21.0390   14.4190    2.0320 O.3   105  2GP105     -0.1145
      3  O2P       19.7390   12.3150    1.6690 O.3   105  2GP105     -0.1145
      4  O3P       18.7110   14.5160    1.0680 O.2   105  2GP105     -0.2224
      5  O5'       25.9810   11.8310   -1.7380 O.3   105  2GP105     -0.2176
      6  C5'       24.9080   12.2890   -0.8550 C.3   105  2GP105      0.2142
      7  C4'       23.8590   13.1470   -1.5770 C.3   105  2GP105      0.1827
      8  O4'       22.9950   12.2990   -2.3790 O.3   105  2GP105     -0.3326
      9  C3'       22.9060   13.9170   -0.6690 C.3   105  2GP105      0.2132
     10  O3'       22.5150   15.1310   -1.3260 O.3   105  2GP105     -0.2176
     11  C2'       21.7510   12.9170   -0.4870 C.3   105  2GP105      0.2054
     12  O2'       20.5270   13.5590   -0.2440 O.3   105  2GP105     -0.2657
     13  C1'       21.6750   12.3280   -1.8910 C.3   105  2GP105      0.2266
     14  N9        21.1660   10.9690   -1.9760 N.pl3 105  2GP105     -0.2354
     15  C8        20.2250   10.4820   -2.8690 C.3   105  2GP105      0.2246
     16  N7        20.0050    9.1960   -2.7140 N.2   105  2GP105     -0.2322
     17  C5        20.8660    8.8110   -1.6670 C.2   105  2GP105      0.2182
     18  C6        21.0770    7.5400   -1.0480 C.1   105  2GP105      0.2372
     19  O6        20.5250    6.4590   -1.2980 O.2   105  2GP105     -0.2069
     20  N1        22.0420    7.5970   -0.0320 N.2   105  2GP105     -0.2485
     21  C2        22.7150    8.7360    0.3410 C.1   105  2GP105      0.2531
     22  N2        23.6110    8.6010    1.3260 N.pl3 105  2GP105     -0.0226
     23  N3        22.5300    9.9260   -0.2180 N.2   105  2GP105     -0.3074
     24  C4        21.5890    9.8940   -1.2050 C.2   105  2GP105      0.2300
@<TRIPOS>BOND
     1    15    16    1
     2    15    14    1
     3    16    17    2
     4     8    13    1
     5     8     7    1
     6    14    13    1
     7    14    24    1
     8    13    11    1
     9     5     6    1
    10    17    24    1
    11    17    18    1
    12     7     6    1
    13     7     9    1
    14    10     9    1
    15    19    18    2
    16    24    23    2
    17    18    20    2
    18     9    11    1
    19    11    12    1
    20    12     1    1
    21    23    21    2
    22    20    21    2
    23    21    22    1
    24     4     1    2
    25     1     3    1
    26     1     2    1
