@<TRIPOS>MOLECULE
1rgn_U10_L_1.pdb
 48 48 0 0 0
SMALL
GASTEIGER

@<TRIPOS>ATOM
      1  C1        11.5790  114.2840   33.8570 C.2   502  U10502      0.0198
      2  C2        10.9390  113.8810   35.1260 C.2   502  U10502      0.2282
      3  C3         9.7980  114.5990   35.6740 C.2   502  U10502      0.2140
      4  C4         9.2990  115.6620   34.9980 C.2   502  U10502      0.2140
      5  C5         9.9170  116.0600   33.7330 C.2   502  U10502      0.2285
      6  C6        11.0670  115.3530   33.1590 C.2   502  U10502      0.0235
      7  C1M       12.7480  113.5040   33.3340 C.3   502  U10502      0.0343
      8  C3M        8.9830  114.9140   38.1190 C.3   502  U10502      0.2528
      9  C4M        8.3720  117.7700   35.8680 C.3   502  U10502      0.2528
     10  C7        11.6320  115.8860   31.8400 C.3   502  U10502      0.0548
     11  C8        11.5990  114.9600   30.6340 C.2   502  U10502     -0.0298
     12  C9        11.9820  115.3490   29.3940 C.2   502  U10502     -0.0475
     13  C10       12.4520  116.7280   29.1020 C.3   502  U10502      0.0260
     14  C11       11.9520  114.4220   28.1940 C.3   502  U10502      0.0264
     15  C12       12.8340  113.1870   28.3340 C.3   502  U10502      0.0297
     16  C13       12.8760  112.5140   26.9660 C.2   502  U10502     -0.0342
     17  C14       13.7110  111.4920   26.6350 C.2   502  U10502     -0.0478
     18  C15       14.6680  110.9920   27.6580 C.3   502  U10502      0.0260
     19  C16       13.7370  110.8610   25.2480 C.3   502  U10502      0.0263
     20  C17       12.3770  110.7750   24.5430 C.3   502  U10502      0.0297
     21  C18       12.5130  110.0210   23.2210 C.2   502  U10502     -0.0342
     22  C19       11.4350  109.6210   22.4830 C.2   502  U10502     -0.0478
     23  C20       10.0210  109.8980   22.8810 C.3   502  U10502      0.0260
     24  C21       11.5740  108.8920   21.1800 C.3   502  U10502      0.0263
     25  C22       12.5990  107.7820   21.2830 C.3   502  U10502      0.0297
     26  C23       12.9430  107.2860   19.9060 C.2   502  U10502     -0.0342
     27  C24       13.6910  106.1850   19.7760 C.2   502  U10502     -0.0478
     28  C25       14.1460  105.5040   21.0390 C.3   502  U10502      0.0260
     29  C26       14.0530  105.6750   18.3750 C.3   502  U10502      0.0263
     30  C27       15.5670  105.4230   18.2480 C.3   502  U10502      0.0297
     31  C28       16.4050  106.4140   17.4280 C.2   502  U10502     -0.0342
     32  C29       17.1740  106.0770   16.3380 C.2   502  U10502     -0.0478
     33  C30       17.9620  107.1360   15.6120 C.3   502  U10502      0.0260
     34  C31       17.2430  104.6780   15.7850 C.3   502  U10502      0.0263
     35  C32       18.6410  104.3550   15.2310 C.3   502  U10502      0.0297
     36  C33       18.8390  104.5450   13.7220 C.2   502  U10502     -0.0342
     37  C34       18.1660  103.8290   12.7840 C.2   502  U10502     -0.0478
     38  C35       18.4690  104.1110   11.3420 C.3   502  U10502      0.0260
     39  C36       17.1020  102.8020   13.1640 C.3   502  U10502      0.0263
     40  C37       17.0360  101.5900   12.2620 C.3   502  U10502      0.0297
     41  C38       16.1280  101.8260   11.0770 C.2   502  U10502     -0.0342
     42  C39       14.9780  101.1640   10.8840 C.2   502  U10502     -0.0478
     43  C40       14.4620  100.1260   11.8360 C.3   502  U10502      0.0260
     44  C41       14.1440  101.4560    9.6690 C.3   502  U10502      0.0260
     45  O2        11.3470  112.9470   35.8020 O.2   502  U10502     -0.2836
     46  O3         9.2400  114.1240   36.9390 O.2   502  U10502     -0.4652
     47  O4         8.1610  116.4260   35.4840 O.2   502  U10502     -0.4652
     48  O5         9.4410  117.0310   33.1530 O.2   502  U10502     -0.2835
@<TRIPOS>BOND
     1    44    42    1
     2    42    41    2
     3    42    43    1
     4    41    40    1
     5    38    37    1
     6    40    39    1
     7    37    39    1
     8    37    36    2
     9    36    35    1
    10    35    34    1
    11    33    32    1
    12    34    32    1
    13    32    31    2
    14    31    30    1
    15    30    29    1
    16    29    27    1
    17    27    26    2
    18    27    28    1
    19    26    25    1
    20    24    25    1
    21    24    22    1
    22    22    23    1
    23    22    21    2
    24    21    20    1
    25    20    19    1
    26    19    17    1
    27    17    16    2
    28    17    18    1
    29    16    15    1
    30    14    15    1
    31    14    12    1
    32    13    12    1
    33    12    11    2
    34    11    10    1
    35    10     6    1
    36    48     5    2
    37     6     5    1
    38     6     1    2
    39     7     1    1
    40     5     4    1
    41     1     2    1
    42     4    47    1
    43     4     3    2
    44     2     3    1
    45     2    45    2
    46    47     9    1
    47     3    46    1
    48    46     8    1
