@<TRIPOS>MOLECULE
1rgn_SPO_M_1.pdb
 42 41 0 0 0
SMALL
GASTEIGER

@<TRIPOS>ATOM
      1  CM1       27.7920  118.4280    6.5520 C.3   600  SPO600      0.1739
      2  O1        26.7590  117.4100    6.4520 O.3   600  SPO600     -0.3555
      3  C1        25.4740  117.5900    7.0790 C.3   600  SPO600      0.0970
      4  C2        25.0970  119.0670    7.1470 C.3   600  SPO600      0.0300
      5  C3        24.4420  116.8100    6.2730 C.3   600  SPO600      0.0300
      6  C4        25.5910  117.0970    8.4970 C.3   600  SPO600      0.0532
      7  C5        25.7070  115.5890    8.6430 C.2   600  SPO600     -0.0240
      8  C6        26.5880  115.0630    9.5360 C.2   600  SPO600     -0.0088
      9  C7        26.7120  113.6150    9.7810 C.2   600  SPO600     -0.0222
     10  C8        26.2890  112.6370    8.7260 C.3   600  SPO600      0.0310
     11  C9        27.1710  113.2430   11.0130 C.2   600  SPO600     -0.0043
     12  C10       27.2990  111.8570   11.4700 C.2   600  SPO600     -0.0006
     13  C11       27.6060  111.5990   12.7770 C.2   600  SPO600     -0.0043
     14  C12       27.6750  110.2510   13.3510 C.2   600  SPO600     -0.0218
     15  C13       27.2850  109.0320   12.5530 C.3   600  SPO600      0.0310
     16  C14       28.0400  110.1420   14.6380 C.2   600  SPO600     -0.0043
     17  C15       28.0600  108.8870   15.4010 C.2   600  SPO600     -0.0006
     18  C16       28.9260  108.7320   16.4280 C.2   600  SPO600     -0.0043
     19  C17       28.9230  107.5700   17.3040 C.2   600  SPO600     -0.0218
     20  C18       27.9960  106.4160   17.0210 C.3   600  SPO600      0.0310
     21  C19       29.6940  107.6600   18.4200 C.2   600  SPO600     -0.0043
     22  C20       29.7350  106.5830   19.4380 C.2   600  SPO600     -0.0003
     23  C21       30.5880  106.4870   20.4940 C.2   600  SPO600     -0.0003
     24  C22       31.7210  107.5180   20.8240 C.2   600  SPO600     -0.0043
     25  C23       32.5540  107.3730   21.8830 C.2   600  SPO600     -0.0218
     26  C24       32.4950  106.2190   22.8520 C.3   600  SPO600      0.0310
     27  C25       33.5420  108.4550   22.0360 C.2   600  SPO600     -0.0043
     28  C26       34.1100  108.8370   23.2090 C.2   600  SPO600     -0.0010
     29  C27       35.0550  109.9570   23.1810 C.2   600  SPO600     -0.0085
     30  C28       35.6890  110.4670   24.2660 C.2   600  SPO600     -0.0436
     31  C29       35.5370  109.9560   25.6730 C.3   600  SPO600      0.0264
     32  C30       36.5930  111.6150   24.0300 C.3   600  SPO600      0.0267
     33  C31       37.9810  111.1860   23.6190 C.3   600  SPO600      0.0297
     34  C32       38.7970  112.4070   23.3700 C.2   600  SPO600     -0.0342
     35  C33       40.0060  112.3640   22.7720 C.2   600  SPO600     -0.0478
     36  C34       40.6170  111.0710   22.3060 C.3   600  SPO600      0.0260
     37  C35       40.7400  113.6450   22.5600 C.3   600  SPO600      0.0263
     38  C36       41.7650  113.9660   23.6520 C.3   600  SPO600      0.0297
     39  C37       42.8050  114.8970   23.0940 C.2   600  SPO600     -0.0342
     40  C38       43.1340  116.0820   23.6800 C.2   600  SPO600     -0.0478
     41  C39       44.1860  116.9540   23.0580 C.3   600  SPO600      0.0260
     42  C40       42.4670  116.5340   24.9530 C.3   600  SPO600      0.0260
@<TRIPOS>BOND
     1     5     3    1
     2     2     1    1
     3     2     3    1
     4     3     4    1
     5     3     6    1
     6     6     7    1
     7     7     8    2
     8    10     9    1
     9     8     9    1
    10     9    11    2
    11    11    12    1
    12    12    13    2
    13    15    14    1
    14    13    14    1
    15    14    16    2
    16    16    17    1
    17    17    18    2
    18    18    19    1
    19    20    19    1
    20    19    21    2
    21    21    22    1
    22    22    23    2
    23    23    24    1
    24    24    25    2
    25    25    27    1
    26    25    26    1
    27    27    28    2
    28    36    35    1
    29    37    35    1
    30    37    38    1
    31    35    34    2
    32    41    40    1
    33    39    38    1
    34    39    40    2
    35    29    28    1
    36    29    30    2
    37    34    33    1
    38    33    32    1
    39    40    42    1
    40    32    30    1
    41    30    31    1
