@<TRIPOS>MOLECULE
1rgr_BAL_B_1.pdb
 10 9 0 0 0
SMALL
GASTEIGER

@<TRIPOS>ATOM
      1  N          7.9400   10.6590   -1.9520 N.3     7  BAL7       -0.2562
      2  CB         8.7680   10.9880   -0.7770 C.3     7  BAL7        0.0178
      3  CA         9.9700   10.0230   -0.6470 C.3     7  BAL7        0.0272
      4  C          9.6210    8.5280   -0.4630 C.2     7  BAL7        0.1994
      5  O          8.5680    8.2100    0.0850 O.2     7  BAL7       -0.2890
      6  H          8.2090    9.9230   -2.6160 H       7  BAL7        0.1405
      7  HB3        8.1590   10.9570    0.1480 H       7  BAL7        0.0442
      8  HB2        9.1370   12.0270   -0.8650 H       7  BAL7        0.0442
      9  HA1       10.6420   10.1640   -1.5160 H       7  BAL7        0.0359
     10  HA2       10.5670   10.3340    0.2310 H       7  BAL7        0.0359
@<TRIPOS>BOND
     1     6     1    1
     2     1     2    1
     3     9     3    1
     4     8     2    1
     5     2     3    1
     6     2     7    1
     7     3     4    1
     8     3    10    1
     9     4     5    2
