@<TRIPOS>MOLECULE
1rgt_OTS_A_1.pdb
 11 11 0 0 0
SMALL
GASTEIGER

@<TRIPOS>ATOM
      1  C2         8.7870   53.9090   -3.6680 C.ar  995  OTS995      0.0015
      2  C3         8.1980   53.9030   -2.4000 C.ar  995  OTS995      0.0418
      3  C4         6.8990   53.4260   -2.2320 C.ar  995  OTS995      0.1957
      4  O4         6.3310   53.4150   -0.9860 O.3   995  OTS995     -0.2866
      5  C5         6.1970   52.9570   -3.3410 C.ar  995  OTS995      0.0418
      6  C6         6.7770   52.9600   -4.6140 C.ar  995  OTS995      0.0015
      7  C1         8.0790   53.4430   -4.7790 C.ar  995  OTS995      0.0094
      8  C7         8.7370   53.4610   -6.1680 C.3   995  OTS995      0.1932
      9  O7         8.2460   52.3920   -6.9760 O.3   995  OTS995     -0.2167
     10  C8        10.2450   53.3340   -6.0230 C.3   995  OTS995      0.1466
     11  N8        10.6070   51.9070   -6.0810 N.3   995  OTS995     -0.1282
@<TRIPOS>BOND
     1     9     8    1
     2     8    10    1
     3     8     7    1
     4    11    10    1
     5     7     6   ar
     6     7     1   ar
     7     6     5   ar
     8     1     2   ar
     9     5     3   ar
    10     2     3   ar
    11     3     4    1
