@<TRIPOS>MOLECULE
1rgt_NUC_D_1.pdb
 50 54 0 0 0
SMALL
GASTEIGER

@<TRIPOS>ATOM
      1  P          7.1840   34.0060   -3.6790 P.3   804  DG804       0.3942
      2  OP1        6.6830   33.3720   -2.4320 O.3   804  DG804      -0.1425
      3  OP2        6.2520   34.4360   -4.7480 O.3   804  DG804      -0.1425
      4  O5'        8.1100   35.2570   -3.3060 O.3   804  DG804      -0.2926
      5  C5'        9.0350   35.1450   -2.2300 C.3   804  DG804       0.1827
      6  C4'        9.9820   36.3230   -2.2600 C.3   804  DG804       0.1726
      7  O4'       10.7640   36.2760   -3.4860 O.3   804  DG804      -0.3511
      8  C3'        9.2700   37.6740   -2.2660 C.3   804  DG804       0.1538
      9  O3'        8.9600   38.0990   -0.9240 O.3   804  DG804      -0.3139
     10  C2'       10.3250   38.5190   -2.9630 C.3   804  DG804       0.0646
     11  C1'       10.7750   37.5630   -4.0720 C.3   804  DG804       0.1449
     12  P          7.9440   39.3130   -0.5760 P.3   805  DT805       0.2141
     13  OP1        7.6040   39.2060    0.8560 O.3   805  DT805      -0.4373
     14  OP2        6.8860   39.3590   -1.6010 O.2   805  DT805      -0.5172
     15  O5'        8.8810   40.5870   -0.7890 O.3   805  DT805      -0.3114
     16  C5'        8.3360   41.7520   -1.3860 C.3   805  DT805       0.1811
     17  C4'        9.3140   42.8930   -1.2360 C.3   805  DT805       0.1745
     18  O4'       10.2510   42.8540   -2.3330 O.3   805  DT805      -0.3340
     19  C3'        8.7220   44.2910   -1.2720 C.3   805  DT805       0.1556
     20  O3'        8.5670   44.7680    0.0940 O.3   805  DT805      -0.3139
     21  C2'        9.7450   45.1210   -2.0590 C.3   805  DT805       0.0845
     22  C1'       10.8600   44.1270   -2.4080 C.3   805  DT805       0.2089
     23  N1        11.3940   44.1980   -3.7970 N.am  805  DT805      -0.1794
     24  C2        12.7450   44.3800   -4.0500 C.1   805  DT805       0.2844
     25  O2        13.5890   44.5180   -3.1800 O.2   805  DT805      -0.1918
     26  N3        13.0850   44.3990   -5.3890 N.2   805  DT805      -0.2455
     27  C4        12.2250   44.2460   -6.4650 C.1   805  DT805       0.2134
     28  O4        12.6080   44.2710   -7.6350 O.2   805  DT805      -0.2088
     29  C5        10.8380   44.0440   -6.1200 C.2   805  DT805       0.0891
     30  C7         9.8060   43.8500   -7.1940 C.3   805  DT805       0.0462
     31  C6        10.5000   44.0300   -4.8260 C.2   805  DT805       0.0877
     32  P          7.3000   45.6650    0.4660 P.3   806  DC806       0.2141
     33  OP1        7.2000   45.6720    1.9430 O.3   806  DC806      -0.4373
     34  OP2        6.1470   45.2700   -0.3690 O.2   806  DC806      -0.5172
     35  O5'        7.7470   47.0970   -0.0970 O.3   806  DC806      -0.3114
     36  C5'        8.7940   47.8130    0.5140 C.3   806  DC806       0.1812
     37  C4'        8.9710   49.0710   -0.3060 C.3   806  DC806       0.1773
     38  O4'        9.2500   48.6480   -1.6700 O.3   806  DC806      -0.3339
     39  C3'        7.7060   49.9440   -0.3820 C.3   806  DC806       0.1857
     40  O3'        8.0410   51.3040   -0.2680 O.3   806  DC806      -0.2203
     41  C2'        7.1590   49.6830   -1.7740 C.3   806  DC806       0.0874
     42  C1'        8.4420   49.3830   -2.5520 C.3   806  DC806       0.2090
     43  N1         8.2270   48.5280   -3.7330 N.am  806  DC806      -0.1802
     44  C2         8.9060   48.8320   -4.9140 C.1   806  DC806       0.2756
     45  O2         9.6710   49.8090   -4.9380 O.2   806  DC806      -0.1925
     46  N3         8.7170   48.0490   -5.9990 N.2   806  DC806      -0.3024
     47  C4         7.9010   47.0060   -5.9340 C.2   806  DC806       0.2346
     48  N4         7.7650   46.2840   -7.0560 N.pl3 806  DC806      -0.0921
     49  C5         7.2030   46.6570   -4.7350 C.2   806  DC806       0.0687
     50  C6         7.3970   47.4410   -3.6600 C.2   806  DC806       0.0835
@<TRIPOS>BOND
     1    28    27    2
     2    30    29    1
     3    48    47    1
     4    27    29    1
     5    27    26    2
     6    29    31    2
     7    46    47    2
     8    46    44    2
     9    47    49    1
    10    26    24    2
    11    45    44    2
    12    44    43   am
    13    31    23    1
    14     3     1    1
    15    49    50    2
    16    11     7    1
    17    11    10    1
    18    24    23   am
    19    24    25    2
    20    23    22    1
    21    43    50    1
    22    43    42    1
    23     1     4    1
    24     1     2    1
    25     7     6    1
    26     4     5    1
    27    10     8    1
    28    42    41    1
    29    42    38    1
    30    22    18    1
    31    22    21    1
    32    18    17    1
    33     8     6    1
    34     8     9    1
    35     6     5    1
    36    21    19    1
    37    41    39    1
    38    38    37    1
    39    14    12    2
    40    16    17    1
    41    16    15    1
    42    19    17    1
    43    19    20    1
    44     9    12    1
    45    15    12    1
    46    12    13    1
    47    39    37    1
    48    39    40    1
    49    34    32    2
    50    37    36    1
    51    35    32    1
    52    35    36    1
    53    20    32    1
    54    32    33    1
