@<TRIPOS>MOLECULE
1rgu_NUC_F_1.pdb
 42 46 0 0 0
SMALL
GASTEIGER

@<TRIPOS>ATOM
      1  P          7.5100   26.8580   56.8510 P.3   805  DT805       0.3942
      2  OP1        7.7370   27.4610   55.5210 O.3   805  DT805      -0.1425
      3  OP2        8.6840   26.6230   57.7220 O.3   805  DT805      -0.1425
      4  O5'        6.5390   27.7940   57.6790 O.3   805  DT805      -0.2926
      5  C5'        7.0900   28.6700   58.6370 C.3   805  DT805       0.1828
      6  C4'        6.0950   29.7920   58.8080 C.3   805  DT805       0.1745
      7  O4'        5.0340   29.3230   59.6480 O.3   805  DT805      -0.3340
      8  C3'        6.6530   31.0380   59.4770 C.3   805  DT805       0.1556
      9  O3'        6.7900   32.0050   58.4490 O.3   805  DT805      -0.3139
     10  C2'        5.5920   31.4520   60.4810 C.3   805  DT805       0.0845
     11  C1'        4.4830   30.4150   60.3220 C.3   805  DT805       0.2089
     12  N1         3.9830   29.8480   61.5930 N.am  805  DT805      -0.1794
     13  C2         2.6440   30.0340   61.9110 C.1   805  DT805       0.2844
     14  O2         1.8550   30.6520   61.1980 O.2   805  DT805      -0.1918
     15  N3         2.2710   29.4660   63.1060 N.2   805  DT805      -0.2455
     16  C4         3.0850   28.7470   63.9740 C.1   805  DT805       0.2134
     17  O4         2.6800   28.2690   65.0270 O.2   805  DT805      -0.2088
     18  C5         4.4590   28.5960   63.5770 C.2   805  DT805       0.0891
     19  C7         5.3860   27.8340   64.4750 C.3   805  DT805       0.0462
     20  C6         4.8460   29.1450   62.4140 C.2   805  DT805       0.0877
     21  P          8.0150   33.0270   58.4530 P.3   806  DG806       0.2141
     22  OP1        8.1440   33.5450   57.0640 O.2   806  DG806      -0.5172
     23  OP2        9.1870   32.3840   59.0840 O.3   806  DG806      -0.4373
     24  O5'        7.5060   34.0980   59.5310 O.3   806  DG806      -0.3114
     25  C5'        6.2940   34.8370   59.4260 C.3   806  DG806       0.1812
     26  C4'        6.2150   35.7620   60.6160 C.3   806  DG806       0.1772
     27  O4'        5.8950   34.8970   61.7170 O.3   806  DG806      -0.3347
     28  C3'        7.4850   36.5300   61.0440 C.3   806  DG806       0.1857
     29  O3'        7.1750   37.8270   61.5780 O.3   806  DG806      -0.2203
     30  C2'        8.0560   35.7390   62.1970 C.3   806  DG806       0.0865
     31  C1'        6.7830   35.1460   62.7850 C.3   806  DG806       0.1981
     32  N9         6.9980   33.8450   63.3920 N.pl3 806  DG806      -0.2374
     33  C8         7.9120   32.8840   63.0310 C.3   806  DG806       0.2245
     34  N7         7.8580   31.8310   63.7880 N.2   806  DG806      -0.2322
     35  C5         6.8390   32.1040   64.6890 C.2   806  DG806       0.2182
     36  C6         6.3060   31.3300   65.7550 C.1   806  DG806       0.2372
     37  O6         6.6440   30.1920   66.1200 O.2   806  DG806      -0.2069
     38  N1         5.2780   32.0010   66.4190 N.2   806  DG806      -0.2485
     39  C2         4.8180   33.2560   66.0900 C.1   806  DG806       0.2531
     40  N2         3.8120   33.7540   66.8330 N.pl3 806  DG806      -0.0226
     41  N3         5.3130   33.9910   65.0890 N.2   806  DG806      -0.3074
     42  C4         6.3070   33.3460   64.4480 C.2   806  DG806       0.2299
@<TRIPOS>BOND
     1     2     1    1
     2     1     4    1
     3     1     3    1
     4    22    21    2
     5     4     5    1
     6     9    21    1
     7     9     8    1
     8    21    23    1
     9    21    24    1
    10     5     6    1
    11     6     8    1
    12     6     7    1
    13    25    24    1
    14    25    26    1
    15     8    10    1
    16     7    11    1
    17    11    10    1
    18    11    12    1
    19    26    28    1
    20    26    27    1
    21    28    29    1
    22    28    30    1
    23    14    13    2
    24    12    13   am
    25    12    20    1
    26    27    31    1
    27    13    15    2
    28    30    31    1
    29    20    18    2
    30    31    32    1
    31    33    32    1
    32    33    34    1
    33    15    16    2
    34    32    42    1
    35    18    16    1
    36    18    19    1
    37    34    35    2
    38    16    17    2
    39    42    35    1
    40    42    41    2
    41    35    36    1
    42    41    39    2
    43    36    37    2
    44    36    38    2
    45    39    38    2
    46    39    40    1
