@<TRIPOS>MOLECULE
1rgu_OTS_A_1.pdb
 11 11 0 0 0
SMALL
GASTEIGER

@<TRIPOS>ATOM
      1  C2         8.7620   53.8030   -3.4470 C.ar  995  OTS995      0.0015
      2  C3         8.1850   53.6390   -2.1930 C.ar  995  OTS995      0.0418
      3  C4         6.9120   53.1020   -2.0860 C.ar  995  OTS995      0.1957
      4  O4         6.3700   52.9560   -0.8480 O.3   995  OTS995     -0.2866
      5  C5         6.2080   52.7410   -3.2440 C.ar  995  OTS995      0.0418
      6  C6         6.7940   52.9060   -4.5030 C.ar  995  OTS995      0.0015
      7  C1         8.0800   53.4440   -4.6050 C.ar  995  OTS995      0.0094
      8  C7         8.7760   53.6620   -5.9720 C.3   995  OTS995      0.1932
      9  O7        10.0780   53.0700   -5.9450 O.3   995  OTS995     -0.2167
     10  C8         9.0130   55.1630   -6.2110 C.3   995  OTS995      0.1466
     11  N8         7.7550   55.8930   -6.4430 N.3   995  OTS995     -0.1282
@<TRIPOS>BOND
     1    11    10    1
     2    10     8    1
     3     8     9    1
     4     8     7    1
     5     7     6   ar
     6     7     1   ar
     7     6     5   ar
     8     1     2   ar
     9     5     3   ar
    10     2     3   ar
    11     3     4    1
