@<TRIPOS>MOLECULE
1rgy_PTX_A_1.pdb
 17 17 0 0 0
SMALL
GASTEIGER

@<TRIPOS>ATOM
      1  P8         5.7850   30.8870   47.9510 P.3   400  PTX400      0.2774
      2  O81        7.0930   31.4400   47.5120 O.3   400  PTX400     -0.1726
      3  O82        5.7240   30.2380   49.2650 O.3   400  PTX400     -0.1726
      4  C7         5.0910   29.8660   46.7060 C.3   400  PTX400      0.1982
      5  N10        6.1170   29.2610   45.8710 N.am  400  PTX400     -0.1903
      6  C11        5.8730   28.1190   45.2290 C.2   400  PTX400      0.2885
      7  O12        4.7420   27.5860   45.2400 O.2   400  PTX400     -0.2665
      8  C13        7.0280   27.6260   44.5340 C.2   400  PTX400      0.2002
      9  N16        8.1170   26.9650   45.0970 N.2   400  PTX400     -0.0759
     10  O17        8.0370   26.7650   46.5490 O.2   400  PTX400     -0.3729
     11  C18        9.1000   25.8810   46.8770 C.3   400  PTX400      0.2885
     12  C14        7.1590   27.8040   43.1010 C.2   400  PTX400      0.1478
     13  C15        6.2620   28.6060   42.2720 C.3   400  PTX400      0.1266
     14  S16        6.6820   28.6060   40.6900 S.3   400  PTX400     -0.0564
     15  C17        8.0060   27.5960   41.0050 C.2   400  PTX400      0.2461
     16  N18        8.8980   27.1390   40.0280 N.pl3 400  PTX400     -0.0867
     17  N19        8.0900   27.2920   42.2790 N.2   400  PTX400     -0.3794
@<TRIPOS>BOND
     1    16    15    1
     2    14    15    1
     3    14    13    1
     4    15    17    2
     5    13    12    1
     6    17    12    2
     7    12     8    1
     8     8     9    2
     9     8     6    1
    10     9    10    1
    11     6     7    2
    12     6     5   am
    13     5     4    1
    14    10    11    1
    15     4     1    1
    16     2     1    1
    17     1     3    1
