@<TRIPOS>MOLECULE
1rgz_PTX_A_1.pdb
 17 17 0 0 0
SMALL
GASTEIGER

@<TRIPOS>ATOM
      1  P8        19.3500   18.5450    7.9280 P.3   400  PTX400      0.2774
      2  O81       18.9740   18.7840    9.3890 O.3   400  PTX400     -0.1726
      3  O82       20.8030   18.7660    7.5180 O.3   400  PTX400     -0.1726
      4  C7        18.3440   19.7100    6.9190 C.3   400  PTX400      0.1982
      5  N10       17.0020   19.8580    7.5300 N.am  400  PTX400     -0.1903
      6  C11       15.9580   19.6490    6.6920 C.2   400  PTX400      0.2885
      7  O12       16.1800   19.3800    5.5300 O.2   400  PTX400     -0.2665
      8  C13       14.6260   19.8330    7.3450 C.2   400  PTX400      0.2002
      9  N16       13.7580   18.8450    7.7100 N.2   400  PTX400     -0.0759
     10  O17       14.2180   17.4810    7.4470 O.2   400  PTX400     -0.3729
     11  C18       13.1640   16.6460    7.9230 C.3   400  PTX400      0.2885
     12  C14       14.1730   21.2220    7.6230 C.2   400  PTX400      0.1478
     13  C15       15.0610   22.3590    7.3960 C.3   400  PTX400      0.1266
     14  S16       14.3450   23.8260    7.7600 S.3   400  PTX400     -0.0564
     15  C17       12.9240   23.0530    8.2440 C.2   400  PTX400      0.2461
     16  N18       11.7940   23.8030    8.6460 N.pl3 400  PTX400     -0.0867
     17  N19       12.9960   21.7390    8.0660 N.2   400  PTX400     -0.3794
@<TRIPOS>BOND
     1     7     6    2
     2     6     8    1
     3     6     5   am
     4     4     5    1
     5     4     1    1
     6     8    12    1
     7     8     9    2
     8    13    12    1
     9    13    14    1
    10    10     9    1
    11    10    11    1
    12     3     1    1
    13    12    17    2
    14    14    15    1
    15     1     2    1
    16    17    15    2
    17    15    16    1
