@<TRIPOS>MOLECULE
1rh0_NUC_D_1.pdb
 40 43 0 0 0
SMALL
GASTEIGER

@<TRIPOS>ATOM
      1  P          7.9470   39.0640    0.1840 P.3   805  DT805       0.3942
      2  OP1        7.5310   39.3550    1.5740 O.3   805  DT805      -0.1425
      3  OP2        6.9060   38.7730   -0.8340 O.3   805  DT805      -0.1425
      4  O5'        8.8240   40.2880   -0.3600 O.3   805  DT805      -0.2926
      5  C5'        8.2020   41.4070   -0.9750 C.3   805  DT805       0.1828
      6  C4'        9.1830   42.5540   -0.8880 C.3   805  DT805       0.1745
      7  O4'       10.1390   42.4110   -1.9560 O.3   805  DT805      -0.3340
      8  C3'        8.6130   43.9660   -1.0060 C.3   805  DT805       0.1556
      9  O3'        8.5500   44.5350    0.3170 O.3   805  DT805      -0.3139
     10  C2'        9.6240   44.7050   -1.8900 C.3   805  DT805       0.0845
     11  C1'       10.7350   43.6740   -2.1510 C.3   805  DT805       0.2089
     12  N1        11.2760   43.7030   -3.5500 N.am  805  DT805      -0.1794
     13  C2        12.5950   44.0310   -3.7960 C.1   805  DT805       0.2844
     14  O2        13.4000   44.3040   -2.9180 O.2   805  DT805      -0.1918
     15  N3        12.9440   44.0160   -5.1290 N.2   805  DT805      -0.2455
     16  C4        12.1240   43.7140   -6.2090 C.1   805  DT805       0.2134
     17  O4        12.5340   43.7320   -7.3690 O.2   805  DT805      -0.2088
     18  C5        10.7570   43.3740   -5.8690 C.2   805  DT805       0.0891
     19  C7         9.7450   43.0210   -6.9290 C.3   805  DT805       0.0462
     20  C6        10.4110   43.3820   -4.5760 C.2   805  DT805       0.0877
     21  P          7.2990   45.4460    0.7780 P.3   806  DT806       0.2141
     22  OP1        7.2110   45.3660    2.2610 O.3   806  DT806      -0.4373
     23  OP2        6.1220   45.0450   -0.0310 O.2   806  DT806      -0.5172
     24  O5'        7.7260   46.9120    0.2680 O.3   806  DT806      -0.3114
     25  C5'        8.8600   47.6270    0.7770 C.3   806  DT806       0.1812
     26  C4'        9.0220   48.8820   -0.0610 C.3   806  DT806       0.1773
     27  O4'        9.3430   48.4380   -1.4000 O.3   806  DT806      -0.3339
     28  C3'        7.7630   49.7550   -0.2080 C.3   806  DT806       0.1857
     29  O3'        8.0510   51.1200   -0.1200 O.3   806  DT806      -0.2203
     30  C2'        7.2670   49.4700   -1.6180 C.3   806  DT806       0.0874
     31  C1'        8.6060   49.2330   -2.2980 C.3   806  DT806       0.2090
     32  N1         8.5270   48.5290   -3.6020 N.am  806  DT806      -0.1794
     33  C2         9.1800   49.1280   -4.6640 C.1   806  DT806       0.2844
     34  O2         9.8010   50.1720   -4.5660 O.2   806  DT806      -0.1918
     35  N3         9.0890   48.4650   -5.8540 N.2   806  DT806      -0.2455
     36  C4         8.4290   47.2870   -6.0740 C.1   806  DT806       0.2134
     37  O4         8.4240   46.7920   -7.1870 O.2   806  DT806      -0.2088
     38  C5         7.7570   46.6940   -4.9330 C.2   806  DT806       0.0891
     39  C7         7.0070   45.3990   -5.1130 C.3   806  DT806       0.0462
     40  C6         7.8270   47.3390   -3.7470 C.2   806  DT806       0.0877
@<TRIPOS>BOND
     1    17    16    2
     2    37    36    2
     3    19    18    1
     4    16    18    1
     5    16    15    2
     6    36    35    2
     7    36    38    1
     8    18    20    2
     9    35    33    2
    10    15    13    2
    11    39    38    1
    12    38    40    2
    13    33    34    2
    14    33    32   am
    15    20    12    1
    16    13    12   am
    17    13    14    2
    18    40    32    1
    19    32    31    1
    20    12    11    1
    21    31    30    1
    22    31    27    1
    23    11     7    1
    24    11    10    1
    25     7     6    1
    26    10     8    1
    27    30    28    1
    28    27    26    1
    29     8     6    1
    30     8     9    1
    31     5     6    1
    32     5     4    1
    33     3     1    1
    34     4     1    1
    35    28    29    1
    36    28    26    1
    37    26    25    1
    38    23    21    2
    39     1     2    1
    40    24    25    1
    41    24    21    1
    42     9    21    1
    43    21    22    1
