@<TRIPOS>MOLECULE
1rh0_OTS_A_1.pdb
 11 11 0 0 0
SMALL
GASTEIGER

@<TRIPOS>ATOM
      1  C2         8.7120   53.7970   -3.3840 C.ar  995  OTS995      0.0015
      2  C3         8.0680   53.6730   -2.1580 C.ar  995  OTS995      0.0418
      3  C4         6.8150   53.0960   -2.1070 C.ar  995  OTS995      0.1957
      4  O4         6.2070   52.9860   -0.9000 O.3   995  OTS995     -0.2866
      5  C5         6.2130   52.6580   -3.2980 C.ar  995  OTS995      0.0418
      6  C6         6.8640   52.7900   -4.5360 C.ar  995  OTS995      0.0015
      7  C1         8.1370   53.3600   -4.5740 C.ar  995  OTS995      0.0094
      8  C7         8.9250   53.5670   -5.8820 C.3   995  OTS995      0.1932
      9  O7        10.2840   53.1150   -5.7390 O.3   995  OTS995     -0.2167
     10  C8         9.0710   55.0790   -6.0800 C.3   995  OTS995      0.1466
     11  N8         7.9290   55.6070   -6.8220 N.3   995  OTS995     -0.1282
@<TRIPOS>BOND
     1    11    10    1
     2    10     8    1
     3     8     9    1
     4     8     7    1
     5     7     6   ar
     6     7     1   ar
     7     6     5   ar
     8     1     2   ar
     9     5     3   ar
    10     2     3   ar
    11     3     4    1
