@<TRIPOS>MOLECULE
1rh3_MTX_A_1.pdb
 33 35 0 0 0
SMALL
GASTEIGER

@<TRIPOS>ATOM
      1  N1        18.9920   20.5520   38.4970 N.2   161  MTX161     -0.2684
      2  C2        17.6710   20.2900   38.4730 C.1   161  MTX161      0.2519
      3  NA2       16.9950   19.8380   39.4700 N.pl3 161  MTX161     -0.0226
      4  N3        16.9510   20.5290   37.2730 N.2   161  MTX161     -0.3033
      5  C4        17.5080   21.0090   36.1320 C.2   161  MTX161      0.2728
      6  NA4       16.8430   21.2220   35.0540 N.pl3 161  MTX161     -0.0887
      7  C4A       18.9060   21.2630   36.1870 C.2   161  MTX161      0.2518
      8  N5        19.4600   21.6080   35.0230 N.2   161  MTX161     -0.3917
      9  C6        20.7840   21.7230   35.0470 C.2   161  MTX161      0.1330
     10  C7        21.4710   21.4520   36.2390 C.3   161  MTX161      0.1930
     11  N8        20.9270   21.1050   37.3790 N.2   161  MTX161     -0.1998
     12  C8A       19.5860   21.0270   37.3190 C.1   161  MTX161      0.1314
     13  C9        21.4080   22.1190   33.7780 C.3   161  MTX161      0.1481
     14  N10       22.8560   21.9130   33.8950 N.pl3 161  MTX161     -0.2999
     15  CM        23.7660   23.0560   33.6720 C.3   161  MTX161      0.1125
     16  C11       24.5010   18.1610   34.2360 C.ar  161  MTX161      0.0551
     17  C12       25.2600   19.3090   34.2540 C.ar  161  MTX161      0.0058
     18  C13       24.7020   20.5110   34.1430 C.ar  161  MTX161      0.0147
     19  C14       23.3150   20.6170   34.0130 C.ar  161  MTX161      0.0482
     20  C15       22.5050   19.5420   33.9830 C.ar  161  MTX161      0.0147
     21  C16       23.1260   18.2850   34.1140 C.ar  161  MTX161      0.0058
     22  C         25.1190   16.8450   34.3940 C.2   161  MTX161      0.2652
     23  O         26.3270   16.7330   34.6310 O.2   161  MTX161     -0.2684
     24  N         24.4080   15.8300   34.6800 N.am  161  MTX161     -0.1918
     25  CA        25.0140   14.5280   35.0090 C.3   161  MTX161      0.1986
     26  CT        23.9770   13.5110   34.6030 C.2   161  MTX161      0.3842
     27  O1        22.7400   13.7760   34.5410 O.co2 161  MTX161     -0.2437
     28  O2        24.4500   12.4410   34.2970 O.co2 161  MTX161     -0.2437
     29  CB        25.1830   14.3990   36.5770 C.3   161  MTX161      0.0451
     30  CG        26.6420   14.0790   37.2520 C.3   161  MTX161      0.1164
     31  CD        27.8160   15.0890   36.9490 C.2   161  MTX161      0.3649
     32  OE1       28.9170   14.4860   37.0050 O.co2 161  MTX161     -0.2457
     33  OE2       27.6880   16.3050   36.6530 O.co2 161  MTX161     -0.2457
@<TRIPOS>BOND
     1    15    14    1
     2    13    14    1
     3    13     9    1
     4    14    19    1
     5    20    19   ar
     6    20    21   ar
     7    19    18   ar
     8    21    16   ar
     9    18    17   ar
    10    16    17   ar
    11    16    22    1
    12    28    26   ar
    13    22    23    2
    14    22    24   am
    15    27    26   ar
    16    26    25    1
    17    24    25    1
    18    25    29    1
    19     8     9    2
    20     8     7    2
    21     9    10    1
    22     6     5    1
    23     5     7    1
    24     5     4    2
    25     7    12    1
    26    10    11    1
    27    29    30    1
    28    33    31   ar
    29    31    32   ar
    30    31    30    1
    31     4     2    2
    32    12    11    2
    33    12     1    2
    34     2     1    2
    35     2     3    1
