@<TRIPOS>MOLECULE
1rh3_NAP_A_1.pdb
 48 52 0 0 0
SMALL
GASTEIGER

@<TRIPOS>ATOM
      1  PA        17.2460   28.5520   27.5410 P.3   164  NAP164      0.2189
      2  O1A       15.7730   28.4770   27.6250 O.2   164  NAP164     -0.5170
      3  O2A       18.0990   27.4810   28.0820 O.3   164  NAP164     -0.4371
      4  O5B       17.7610   29.0200   26.1030 O.3   164  NAP164     -0.3112
      5  C5B       16.9200   29.8330   25.2410 C.3   164  NAP164      0.1813
      6  C4B       17.1420   29.6620   23.7550 C.3   164  NAP164      0.1820
      7  O4B       16.1150   28.8190   23.2920 O.3   164  NAP164     -0.3136
      8  C3B       16.7240   30.8780   22.9100 C.3   164  NAP164      0.2157
      9  O3B       17.7980   31.7690   22.9800 O.3   164  NAP164     -0.2175
     10  C2B       16.4250   30.3830   21.4790 C.3   164  NAP164      0.2314
     11  O2B       17.5400   29.9600   20.7140 O.3   164  NAP164     -0.2630
     12  C1B       15.8880   29.0000   21.8770 C.3   164  NAP164      0.3158
     13  N9A       14.4970   28.7720   21.9190 N.pl3 164  NAP164     -0.1439
     14  C8A       13.6390   28.7910   22.9930 C.3   164  NAP164      0.3377
     15  N7A       12.4120   28.5020   22.7100 N.2   164  NAP164     -0.2095
     16  C5A       12.4420   28.2540   21.3550 C.2   164  NAP164      0.2526
     17  C6A       11.4710   27.8960   20.4520 C.2   164  NAP164      0.4393
     18  N6A       10.1810   27.6980   20.7370 N.pl3 164  NAP164      0.2180
     19  N1A       11.8430   27.7240   19.1720 N.2   164  NAP164      0.0021
     20  C2A       13.1150   27.9200   18.8720 C.3   164  NAP164      0.5254
     21  N3A       14.1390   28.2660   19.6450 N.2   164  NAP164     -0.0055
     22  C4A       13.7280   28.4100   20.8590 C.2   164  NAP164      0.3518
     23  O3        17.8730   29.9250   28.0600 O.3   164  NAP164     -0.2703
     24  PN        17.4770   30.8910   29.2960 P.3   164  NAP164      0.2189
     25  O1N       16.0060   30.9690   29.3320 O.3   164  NAP164     -0.4371
     26  O2N       18.2980   32.1290   29.1970 O.2   164  NAP164     -0.5170
     27  O5D       18.0330   29.9300   30.4630 O.3   164  NAP164     -0.3112
     28  C5D       19.4190   30.0400   31.0630 C.3   164  NAP164      0.1813
     29  C4D       19.5460   30.0310   32.6330 C.3   164  NAP164      0.1799
     30  O4D       18.7570   28.8400   33.0510 O.3   164  NAP164     -0.3327
     31  C3D       20.9780   29.6550   33.1400 C.3   164  NAP164      0.2158
     32  O3D       21.7590   30.3590   34.0300 O.3   164  NAP164     -0.2175
     33  C2D       20.9850   28.1260   33.3890 C.3   164  NAP164      0.2309
     34  O2D       22.0970   27.6950   34.0610 O.3   164  NAP164     -0.2158
     35  C1D       19.6660   28.1300   33.9620 C.3   164  NAP164      0.2263
     36  N1N       19.0170   26.7440   34.1150 N.pl3 164  NAP164     -0.2787
     37  C2N       18.6620   26.4300   35.4310 C.3   164  NAP164      0.1244
     38  C3N       18.0880   25.2700   35.6710 C.2   164  NAP164      0.0544
     39  C7N       17.8290   25.1990   37.1060 C.2   164  NAP164      0.2818
     40  O7N       16.9370   24.4330   37.5430 O.2   164  NAP164     -0.2670
     41  N7N       18.3660   26.1210   37.8980 N.am  164  NAP164     -0.0839
     42  C4N       17.7200   24.1680   34.6210 C.2   164  NAP164      0.0033
     43  C5N       18.1850   24.7250   33.2690 C.2   164  NAP164      0.0157
     44  C6N       18.7470   25.8660   33.0890 C.2   164  NAP164      0.0633
     45  P2B       18.5690   30.6640   19.6110 P.3   164  NAP164      0.5328
     46  O1X       18.4010   29.4350   18.6600 O.2   164  NAP164     -0.2224
     47  O2X       18.0080   31.9700   19.0930 O.3   164  NAP164     -0.1145
     48  O3X       20.0400   30.8410   20.0020 O.3   164  NAP164     -0.1145
@<TRIPOS>BOND
     1    46    45    2
     2    20    19    1
     3    20    21    1
     4    47    45    1
     5    19    17    2
     6    45    48    1
     7    45    11    1
     8    21    22    2
     9    17    18    1
    10    17    16    1
    11    11    10    1
    12    22    16    1
    13    22    13    1
    14    16    15    2
    15    10    12    1
    16    10     8    1
    17    12    13    1
    18    12     7    1
    19    13    14    1
    20    15    14    1
    21     8     9    1
    22     8     6    1
    23     7     6    1
    24     6     5    1
    25     5     4    1
    26     4     1    1
    27     1     2    2
    28     1    23    1
    29     1     3    1
    30    23    24    1
    31    26    24    2
    32    24    25    1
    33    24    27    1
    34    27    28    1
    35    28    29    1
    36    29    30    1
    37    29    31    1
    38    30    35    1
    39    44    43    2
    40    44    36    1
    41    31    33    1
    42    31    32    1
    43    43    42    1
    44    33    35    1
    45    33    34    1
    46    35    36    1
    47    36    37    1
    48    42    38    2
    49    37    38    1
    50    38    39    1
    51    39    40    2
    52    39    41   am
