@<TRIPOS>MOLECULE
1rhj_PZN_A_1.pdb
 41 42 0 0 0
SMALL
GASTEIGER

@<TRIPOS>ATOM
      1  C1       -85.9570   27.1240   47.5130 C.3   501  PZN501      0.0000
      2  C2       -87.0920   27.5320   48.4600 C.3   501  PZN501      0.0000
      3  C3       -87.7820   28.8470   48.0520 C.3   501  PZN501      0.0000
      4  C4       -89.1450   29.0230   48.7450 C.3   501  PZN501      0.0014
      5  C5       -90.3200   28.7850   47.7780 C.3   501  PZN501      0.0173
      6  C6       -91.3540   27.7700   48.3370 C.3   501  PZN501      0.0722
      7  N1       -92.7680   27.7680   47.8500 N.3   501  PZN501     -0.2693
      8  C7       -92.8380   27.5760   46.3750 C.3   501  PZN501      0.0897
      9  C8       -93.5160   28.9980   48.2490 C.3   501  PZN501      0.1072
     10  C9       -94.9560   28.8690   48.8470 C.3   501  PZN501      0.1882
     11  O1       -94.7930   29.9460   49.4120 O.3   501  PZN501     -0.2198
     12  C10      -96.0500   28.5970   47.8210 C.3   501  PZN501      0.1382
     13  N2       -96.0580   27.1550   47.6370 N.am  501  PZN501     -0.2026
     14  C11      -97.4530   29.0310   48.3120 C.3   501  PZN501      0.1383
     15  C12      -98.2930   29.8510   47.3210 C.2   501  PZN501      0.3667
     16  O2       -99.4460   30.2060   47.7050 O.co2 501  PZN501     -0.2456
     17  O3       -97.8100   30.1340   46.1810 O.co2 501  PZN501     -0.2456
     18  C13      -96.3040   26.5220   46.4740 C.2   501  PZN501      0.2595
     19  C14      -96.8130   25.0660   46.6110 C.3   501  PZN501      0.1541
     20  O4       -96.1190   27.0320   45.3680 O.2   501  PZN501     -0.2716
     21  C15      -95.7010   24.2480   47.3260 C.3   501  PZN501      0.0293
     22  C16      -96.2160   23.0220   48.0870 C.3   501  PZN501      0.0023
     23  N3       -97.2630   24.3250   45.3680 N.am  501  PZN501     -0.2597
     24  C18      -98.9540   23.5260   43.7520 C.2   501  PZN501      0.2528
     25  N4       -97.9360   22.8570   43.0350 N.2   501  PZN501     -0.3879
     26  C19      -96.5720   22.8780   43.4260 C.2   501  PZN501      0.1078
     27  C24      -96.2250   23.5890   44.5490 C.3   501  PZN501      0.1487
     28  C17      -98.6030   24.3220   45.0200 C.2   501  PZN501      0.2953
     29  O5       -99.5010   24.8810   45.6380 O.2   501  PZN501     -0.2656
     30  C20      -95.6240   22.0340   42.5720 C.3   501  PZN501      0.0444
     31  C23      -94.1390   22.2540   42.9570 C.3   501  PZN501      0.0067
     32  C21      -95.8020   22.3860   41.0790 C.3   501  PZN501      0.0067
     33  C22      -95.9700   20.5480   42.7790 C.3   501  PZN501      0.0067
     34  N5      -100.2050   23.4000   43.2450 N.pl3 501  PZN501     -0.1993
     35  C25     -100.6530   22.3740   42.2840 C.3   501  PZN501      0.1651
     36  C26     -100.9200   21.0610   43.0270 C.ar  501  PZN501      0.1385
     37  C27     -101.9380   20.7020   44.0530 C.ar  501  PZN501      0.1188
     38  N7      -101.7390   19.4160   44.3820 N.ar  501  PZN501     -0.0529
     39  O6      -100.6490   18.9250   43.6250 O.2   501  PZN501     -0.2421
     40  N6      -100.1720   19.9740   42.8020 N.ar  501  PZN501     -0.0512
     41  C28     -103.0430   21.5560   44.6790 C.3   501  PZN501      0.0571
@<TRIPOS>BOND
     1    32    30    1
     2    35    36    1
     3    35    34    1
     4    30    33    1
     5    30    31    1
     6    30    26    1
     7    40    36   ar
     8    40    39   ar
     9    36    37   ar
    10    25    26    2
    11    25    24    2
    12    34    24    1
    13    26    27    1
    14    39    38   ar
    15    24    28    1
    16    37    38   ar
    17    37    41    1
    18    27    23    1
    19    28    23   am
    20    28    29    2
    21    20    18    2
    22    23    19    1
    23    17    15   ar
    24     8     7    1
    25    18    19    1
    26    18    13   am
    27    19    21    1
    28    15    16   ar
    29    15    14    1
    30    21    22    1
    31     1     2    1
    32    13    12    1
    33     5     6    1
    34     5     4    1
    35    12    14    1
    36    12    10    1
    37     7     9    1
    38     7     6    1
    39     3     2    1
    40     3     4    1
    41     9    10    1
    42    10    11    1
