@<TRIPOS>MOLECULE
1rhk_III_C_1.pdb
 44 44 0 0 0
SMALL
GASTEIGER

@<TRIPOS>ATOM
      1  C         41.7610   98.6430   26.9710 C.2   501  ACE501      0.2423
      2  O         40.5730   98.5920   26.6670 O.2   501  ACE501     -0.2733
      3  CH3       42.1700   98.8670   28.4120 C.3   501  ACE501      0.0964
      4  N         42.7230   98.4790   26.0680 N.am  502  ASP502     -0.1972
      5  CA        42.3460   98.2710   24.6680 C.3   502  ASP502      0.1839
      6  C         41.9070   96.8480   24.3650 C.2   502  ASP502      0.2622
      7  O         42.5150   95.8870   24.8410 O.2   502  ASP502     -0.2715
      8  CB        43.4760   98.6390   23.7120 C.3   502  ASP502      0.1450
      9  CG        43.9090  100.0980   23.8290 C.2   502  ASP502      0.3671
     10  OD1       43.0610  101.0080   23.9970 O.co2 502  ASP502     -0.2456
     11  OD2       45.1310  100.3190   23.7340 O.co2 502  ASP502     -0.2456
     12  N         40.8330   96.7340   23.5880 N.am  503  GLU503     -0.1963
     13  CA        40.2810   95.4460   23.1870 C.3   503  GLU503      0.1733
     14  C         39.9170   95.4700   21.7160 C.2   503  GLU503      0.2616
     15  O         39.8920   96.5530   21.1290 O.2   503  GLU503     -0.2715
     16  CB        39.0520   95.1300   23.9970 C.3   503  GLU503      0.0429
     17  CG        39.3980   94.9070   25.4380 C.3   503  GLU503      0.1163
     18  CD        38.2010   94.4600   26.2270 C.2   503  GLU503      0.3649
     19  OE1       37.5870   93.4300   25.8560 O.co2 503  GLU503     -0.2457
     20  OE2       37.8910   95.1250   27.2310 O.co2 503  GLU503     -0.2457
     21  N         39.6690   94.2950   21.1170 N.am  504  VAL504     -0.1963
     22  CA        39.3050   94.2260   19.6920 C.3   504  VAL504      0.1727
     23  C         37.8340   93.8610   19.3640 C.2   504  VAL504      0.2612
     24  O         37.1660   93.2180   20.1680 O.2   504  VAL504     -0.2715
     25  CB        40.2490   93.2540   18.9100 C.3   504  VAL504      0.0290
     26  CG1       41.5930   93.9220   18.6850 C.3   504  VAL504      0.0023
     27  CG2       40.4390   91.9400   19.6700 C.3   504  VAL504      0.0023
     28  N         37.3240   94.2850   18.2040 N.am  505  FPR505     -0.2026
     29  C         35.9790   92.9190   16.7400 C.3   505  FPR505      0.1723
     30  O         34.6600   92.8420   16.2670 O.3   505  FPR505     -0.2213
     31  C5        37.4550   86.9090   16.1960 C.ar  505  FPR505     -0.0043
     32  C6        37.4850   85.8630   15.2850 C.ar  505  FPR505     -0.0003
     33  C7        36.6530   85.8900   14.1740 C.ar  505  FPR505     -0.0000
     34  C8        35.7930   86.9640   13.9830 C.ar  505  FPR505     -0.0003
     35  C9        35.7720   88.0020   14.8980 C.ar  505  FPR505     -0.0043
     36  C11       36.3740   91.5900   17.3790 C.3   505  FPR505      0.0350
     37  OD2       34.3680   97.1070   18.4140 O.co2 505  FPR505     -0.2456
     38  C21       36.1520   90.4640   16.4100 C.3   505  FPR505      0.0073
     39  OD1       34.1710   95.2610   19.5560 O.co2 505  FPR505     -0.2456
     40  C31       36.6000   89.1340   16.9940 C.3   505  FPR505      0.0264
     41  C41       36.6030   87.9890   16.0120 C.ar  505  FPR505     -0.0222
     42  CA        35.9680   93.9230   17.8330 C.3   505  FPR505      0.1368
     43  CB        35.1310   95.1220   17.3830 C.3   505  FPR505      0.1382
     44  CG        34.5150   95.8790   18.5370 C.2   505  FPR505      0.3667
@<TRIPOS>BOND
     1    34    33   ar
     2    34    35   ar
     3    33    32   ar
     4    35    41   ar
     5    32    31   ar
     6    41    31   ar
     7    41    40    1
     8    30    29    1
     9    38    40    1
    10    38    36    1
    11    29    36    1
    12    29    42    1
    13    43    42    1
    14    43    44    1
    15    42    28    1
    16    28    23   am
    17    37    44   ar
    18    44    39   ar
    19    26    25    1
    20    25    27    1
    21    25    22    1
    22    23    22    1
    23    23    24    2
    24    22    21    1
    25    21    14   am
    26    15    14    2
    27    14    13    1
    28    13    12    1
    29    13    16    1
    30    12     6   am
    31     8     9    1
    32     8     5    1
    33    11     9   ar
    34     9    10   ar
    35    16    17    1
    36     6     5    1
    37     6     7    2
    38     5     4    1
    39    17    18    1
    40    19    18   ar
    41     4     1   am
    42    18    20   ar
    43     2     1    2
    44     1     3    1
