@<TRIPOS>MOLECULE
1rhl_2GP_A_1.pdb
 24 26 0 0 0
SMALL
GASTEIGER

@<TRIPOS>ATOM
      1  P          1.2140   20.7640   13.6930 P.3   106  2GP106      0.5327
      2  O1P        2.2010   21.7380   14.1890 O.3   106  2GP106     -0.1145
      3  O2P        1.7610   19.4610   13.3270 O.3   106  2GP106     -0.1145
      4  O3P        0.2740   21.2840   12.6770 O.2   106  2GP106     -0.2224
      5  O5'       -4.0440   19.4140   15.2720 O.3   106  2GP106     -0.2176
      6  C5'       -4.1950   20.5840   16.0560 C.3   106  2GP106      0.2142
      7  C4'       -2.8600   21.0410   16.6050 C.3   106  2GP106      0.1827
      8  O4'       -2.2480   19.9840   17.3390 O.3   106  2GP106     -0.3326
      9  C3'       -1.8180   21.3350   15.5420 C.3   106  2GP106      0.2132
     10  O3'       -1.0960   22.4560   16.1090 O.3   106  2GP106     -0.2176
     11  C2'       -0.9270   20.0650   15.3760 C.3   106  2GP106      0.2054
     12  O2'        0.4230   20.4230   15.0670 O.3   106  2GP106     -0.2657
     13  C1'       -0.9250   19.7170   16.8480 C.3   106  2GP106      0.2266
     14  N9        -0.6930   18.3150   17.2510 N.pl3 106  2GP106     -0.2354
     15  C8         0.0220   17.9060   18.3540 C.3   106  2GP106      0.2246
     16  N7        -0.0390   16.6310   18.6020 N.2   106  2GP106     -0.2322
     17  C5        -0.8530   16.1550   17.5840 C.2   106  2GP106      0.2182
     18  C6        -1.2780   14.8410   17.3260 C.1   106  2GP106      0.2372
     19  O6        -0.9750   13.8660   17.9870 O.2   106  2GP106     -0.2069
     20  N1        -2.0860   14.7440   16.2140 N.2   106  2GP106     -0.2485
     21  C2        -2.4500   15.8170   15.4280 C.1   106  2GP106      0.2531
     22  N2        -3.2710   15.5650   14.4070 N.pl3 106  2GP106     -0.0226
     23  N3        -2.0490   17.0720   15.6560 N.2   106  2GP106     -0.3074
     24  C4        -1.2580   17.1670   16.7460 C.2   106  2GP106      0.2300
@<TRIPOS>BOND
     1     4     1    2
     2     3     1    1
     3     1     2    1
     4     1    12    1
     5    22    21    1
     6    12    11    1
     7     5     6    1
     8    11     9    1
     9    11    13    1
    10    21    23    2
    11    21    20    2
    12     9    10    1
    13     9     7    1
    14    23    24    2
    15     6     7    1
    16    20    18    2
    17     7     8    1
    18    24    14    1
    19    24    17    1
    20    13    14    1
    21    13     8    1
    22    14    15    1
    23    18    17    1
    24    18    19    2
    25    17    16    2
    26    15    16    1
