@<TRIPOS>MOLECULE
1rhm_NA4_A_1.pdb
 25 26 0 0 0
SMALL
GASTEIGER

@<TRIPOS>ATOM
      1  C7       -44.2300   38.5980   90.0000 C.ar  501  NA4501      0.0077
      2  C8       -44.2130   39.4770   91.0470 C.ar  501  NA4501      0.0193
      3  C9       -45.3710   39.7180   91.7550 C.ar  501  NA4501      0.0988
      4  N2       -46.5280   39.1320   91.4680 N.ar  501  NA4501     -0.2422
      5  C10      -46.5380   38.2710   90.4390 C.ar  501  NA4501      0.1034
      6  C6       -45.4200   37.9600   89.6710 C.ar  501  NA4501      0.0742
      7  C5       -45.4580   36.8850   88.6230 C.2   501  NA4501      0.2663
      8  O4       -44.4380   36.4160   88.1170 O.2   501  NA4501     -0.2683
      9  N1       -46.6910   36.5090   88.2860 N.am  501  NA4501     -0.2001
     10  C3       -46.9760   35.4450   87.3330 C.3   501  NA4501      0.1397
     11  C2       -48.1330   34.5600   87.8220 C.3   501  NA4501      0.1383
     12  C4       -47.0570   35.8550   85.8100 C.3   501  NA4501      0.2041
     13  O3       -47.0660   34.6830   84.9760 O.3   501  NA4501     -0.2185
     14  C1       -47.8760   33.9770   89.2150 C.2   501  NA4501      0.3667
     15  O2       -48.8260   33.5150   89.8880 O.co2 501  NA4501     -0.2456
     16  O1       -46.7120   33.9510   89.6400 O.co2 501  NA4501     -0.2456
     17  C15      -42.1310   42.4560   91.8260 C.ar  501  NA4501      0.0066
     18  C16      -43.2250   41.6520   91.5830 C.ar  501  NA4501      0.0003
     19  C11      -43.0400   40.3440   91.2110 C.ar  501  NA4501      0.0015
     20  C12      -41.7650   39.8270   91.0750 C.ar  501  NA4501      0.0003
     21  C13      -40.6690   40.6280   91.3180 C.ar  501  NA4501      0.0066
     22  C14      -40.8560   41.9470   91.6920 C.ar  501  NA4501      0.0798
     23  C17      -39.7560   42.7850   91.9310 C.2   501  NA4501      0.3878
     24  O5       -38.6160   42.2920   91.7780 O.co2 501  NA4501     -0.2406
     25  O6       -39.9900   43.9690   92.2780 O.co2 501  NA4501     -0.2406
@<TRIPOS>BOND
     1    13    12    1
     2    12    10    1
     3    10    11    1
     4    10     9    1
     5    11    14    1
     6     8     7    2
     7     9     7   am
     8     7     6    1
     9    14    16   ar
    10    14    15   ar
    11     6     1   ar
    12     6     5   ar
    13     1     2   ar
    14     5     4   ar
    15     2    19    1
    16     2     3   ar
    17    20    19   ar
    18    20    21   ar
    19    19    18   ar
    20    21    22   ar
    21     4     3   ar
    22    18    17   ar
    23    22    17   ar
    24    22    23    1
    25    24    23   ar
    26    23    25   ar
