@<TRIPOS>MOLECULE
1rhq_0ZZ_A_1.pdb
 36 37 0 0 0
SMALL
GASTEIGER

@<TRIPOS>ATOM
      1  C2        47.6480   30.8270   97.5910 C.ar  551  0ZZ551      0.1352
      2  C3        47.0660   30.9440   98.8630 C.ar  551  0ZZ551      0.0371
      3  C4        47.8460   31.0510  100.0030 C.ar  551  0ZZ551      0.0098
      4  C5        49.2400   31.0500   99.9230 C.ar  551  0ZZ551      0.0345
      5  C6        49.8350   30.9530   98.6520 C.ar  551  0ZZ551      0.0059
      6  O1        46.8120   30.5800   96.4390 O.3   551  0ZZ551     -0.4717
      7  C7        46.6840   31.5610   95.3640 C.3   551  0ZZ551      0.2525
      8 BR1        50.3190   31.0650  101.5220 Br    551  0ZZ551     -0.0490
      9  C1        49.0520   30.8440   97.4880 C.ar  551  0ZZ551      0.0215
     10  C         50.0410   29.2620   95.7490 C.2   551  0ZZ551      0.2463
     11  O         50.9980   28.7110   96.2680 O.2   551  0ZZ551     -0.2730
     12  CH3       49.7010   30.6990   96.1230 C.3   551  0ZZ551      0.1161
     13  N         49.2650   28.6590   94.8450 N.am  551  0ZZ551     -0.1975
     14  CA        49.4730   27.2670   94.4230 C.3   551  0ZZ551      0.1726
     15  C8        49.9000   27.0700   92.9560 C.2   551  0ZZ551      0.2612
     16  O2        49.7400   27.9660   92.1180 O.2   551  0ZZ551     -0.2715
     17  CB        48.1880   26.4470   94.6150 C.3   551  0ZZ551      0.0290
     18  CG1       47.8250   26.3740   96.0680 C.3   551  0ZZ551      0.0023
     19  CG2       47.0640   27.0760   93.8160 C.3   551  0ZZ551      0.0023
     20  N1        50.4320   25.8820   92.6600 N.am  551  0ZZ551     -0.2025
     21  CA1       50.8500   25.5250   91.3040 C.3   551  0ZZ551      0.1377
     22  C9        49.8620   24.5120   90.6770 C.3   551  0ZZ551      0.1830
     23  O3        50.4120   24.0590   89.4260 O.3   551  0ZZ551     -0.2203
     24  CB1       52.2580   24.9390   91.3230 C.3   551  0ZZ551      0.1382
     25  CG        53.3190   26.0000   91.2880 C.2   551  0ZZ551      0.3667
     26  OD1       53.8240   26.3050   90.2000 O.co2 551  0ZZ551     -0.2456
     27  OD2       53.6430   26.5420   92.3470 O.co2 551  0ZZ551     -0.2456
     28  C11       48.5480   25.2530   90.3750 C.3   551  0ZZ551      0.0925
     29  S2        47.2270   24.1500   89.8790 S.3   551  0ZZ551     -0.1327
     30  C31       47.8600   23.5200   88.3460 C.3   551  0ZZ551      0.0838
     31  C41       46.7680   23.1420   87.3860 C.ar  551  0ZZ551     -0.0113
     32  C51       47.0810   22.5750   86.1540 C.ar  551  0ZZ551     -0.0034
     33  C61       46.0760   22.1820   85.2640 C.ar  551  0ZZ551     -0.0003
     34  C71       44.7410   22.3640   85.6140 C.ar  551  0ZZ551     -0.0000
     35  C81       44.4220   22.9320   86.8370 C.ar  551  0ZZ551     -0.0003
     36  C91       45.4250   23.3200   87.7160 C.ar  551  0ZZ551     -0.0034
@<TRIPOS>BOND
     1    33    34   ar
     2    33    32   ar
     3    34    35   ar
     4    32    31   ar
     5    35    36   ar
     6    31    36   ar
     7    31    30    1
     8    30    29    1
     9    23    22    1
    10    29    28    1
    11    26    25   ar
    12    28    22    1
    13    22    21    1
    14    25    24    1
    15    25    27   ar
    16    21    24    1
    17    21    20    1
    18    16    15    2
    19    20    15   am
    20    15    14    1
    21    19    17    1
    22    14    17    1
    23    14    13    1
    24    17    18    1
    25    13    10   am
    26     7     6    1
    27    10    12    1
    28    10    11    2
    29    12     9    1
    30     6     1    1
    31     9     1   ar
    32     9     5   ar
    33     1     2   ar
    34     5     4   ar
    35     2     3   ar
    36     4     3   ar
    37     4     8    1
