@<TRIPOS>MOLECULE
1rhr_CNE_A_1.pdb
 44 45 0 0 0
SMALL
GASTEIGER

@<TRIPOS>ATOM
      1  C24       80.9400  -23.6640   99.7520 C.ar  501  CNE501      0.0366
      2  C25       79.5780  -23.5630   99.3320 C.ar  501  CNE501      0.1350
      3  C20       78.5300  -23.4940  100.3120 C.ar  501  CNE501      0.0210
      4  C21       78.9030  -23.5350  101.6970 C.ar  501  CNE501     -0.0008
      5  C22       80.2640  -23.6340  102.1120 C.ar  501  CNE501      0.0001
      6  C23       81.2790  -23.7010  101.1260 C.ar  501  CNE501      0.0031
      7  C26       80.6490  -23.6800  103.5360 C.2   501  CNE501      0.0066
      8  C27       80.1000  -22.9160  104.5120 C.2   501  CNE501      0.0819
      9  C28       80.5470  -23.0220  105.9290 C.2   501  CNE501      0.3415
     10  O7        81.5180  -23.8870  106.2650 O.3   501  CNE501     -0.4413
     11  O6        80.0180  -22.3180  106.7340 O.2   501  CNE501     -0.2449
     12  C29       81.9530  -23.9870  107.6330 C.3   501  CNE501      0.2560
     13  O8        79.3990  -23.5430   97.9320 O.3   501  CNE501     -0.4758
     14  C30       79.5690  -22.3410   97.2010 C.3   501  CNE501      0.2055
     15  C31       79.2850  -22.6270   95.7150 C.3   501  CNE501      0.0512
     16  C19       77.0930  -23.3870   99.8480 C.3   501  CNE501      0.1161
     17  C18       76.5700  -21.9330   99.9680 C.2   501  CNE501      0.2463
     18  N2        76.7550  -21.1690   98.8180 N.am  501  CNE501     -0.1975
     19  O5        76.0350  -21.5260  100.9980 O.2   501  CNE501     -0.2730
     20  C14       76.3110  -19.7600   98.7310 C.3   501  CNE501      0.1726
     21  C13       74.8070  -19.8060   98.5360 C.2   501  CNE501      0.2612
     22  C15       76.9780  -19.0180   97.5430 C.3   501  CNE501      0.0290
     23  C17       76.6770  -19.6440   96.1720 C.3   501  CNE501      0.0023
     24  C16       78.4900  -18.9350   97.7540 C.3   501  CNE501      0.0023
     25  O4        74.1970  -20.8640   98.4520 O.2   501  CNE501     -0.2715
     26  N1        74.2420  -18.5900   98.4750 N.am  501  CNE501     -0.2025
     27  C10       72.8140  -18.5040   98.2830 C.3   501  CNE501      0.1377
     28  C9        72.3810  -17.4030   97.2530 C.3   501  CNE501      0.1830
     29  C11       72.1990  -18.2720   99.7080 C.3   501  CNE501      0.1382
     30  C12       70.9930  -19.1250  100.0510 C.2   501  CNE501      0.3667
     31  O2        70.5070  -19.0490  101.1700 O.co2 501  CNE501     -0.2456
     32  O3        70.5200  -19.8520   99.2490 O.co2 501  CNE501     -0.2456
     33  C8        73.0220  -17.5900   95.8540 C.3   501  CNE501      0.0925
     34  O1        70.9930  -17.5120   97.1160 O.3   501  CNE501     -0.2203
     35  S1        72.4410  -16.3460   94.6880 S.3   501  CNE501     -0.1326
     36  C7        73.2740  -16.7400   93.1410 C.3   501  CNE501      0.0869
     37  C6        72.8030  -15.7960   92.0370 C.ar  501  CNE501      0.0267
     38  C5        72.3790  -16.3360   90.7800 C.ar  501  CNE501      0.1378
     39  C4        71.9230  -15.5280   89.7170 C.ar  501  CNE501      0.0294
     40  C3        71.8820  -14.1230   89.8730 C.ar  501  CNE501      0.0032
     41  C2        72.2920  -13.5380   91.0910 C.ar  501  CNE501      0.0112
     42  C1        72.7490  -14.3510   92.1590 C.ar  501  CNE501      0.0567
     43  F1        72.3920  -17.6620   90.5610 F     501  CNE501     -0.2044
     44 CL1        73.2280  -13.4880   93.6070 Cl    501  CNE501     -0.0825
@<TRIPOS>BOND
     1    39    40   ar
     2    39    38   ar
     3    40    41   ar
     4    43    38    1
     5    38    37   ar
     6    41    42   ar
     7    37    42   ar
     8    37    36    1
     9    42    44    1
    10    36    35    1
    11    35    33    1
    12    15    14    1
    13    33    28    1
    14    23    22    1
    15    34    28    1
    16    14    13    1
    17    28    27    1
    18    22    24    1
    19    22    20    1
    20    13     2    1
    21    27    26    1
    22    27    29    1
    23    25    21    2
    24    26    21   am
    25    21    20    1
    26    20    18    1
    27    18    17   am
    28    32    30   ar
    29     2     1   ar
    30     2     3   ar
    31    29    30    1
    32     1     6   ar
    33    16    17    1
    34    16     3    1
    35    17    19    2
    36    30    31   ar
    37     3     4   ar
    38     6     5   ar
    39     4     5   ar
    40     5     7    1
    41     7     8    2
    42     8     9    1
    43     9    10    1
    44     9    11    2
    45    10    12    1
