@<TRIPOS>MOLECULE
1rhu_3CY_A_1.pdb
 45 48 0 0 0
SMALL
GASTEIGER

@<TRIPOS>ATOM
      1  C1        73.7440  -15.4720   90.4530 C.ar  501  3CY501     -0.0034
      2  C2        73.3650  -14.7380   89.2950 C.ar  501  3CY501     -0.0003
      3  C3        72.0270  -14.2770   89.1530 C.ar  501  3CY501     -0.0000
      4  C4        71.0670  -14.5540   90.1610 C.ar  501  3CY501     -0.0003
      5  C5        71.4520  -15.2850   91.3110 C.ar  501  3CY501     -0.0034
      6  C6        72.7960  -15.7560   91.4750 C.ar  501  3CY501     -0.0113
      7  C7        73.1700  -16.5480   92.7270 C.3   501  3CY501      0.0838
      8  S1        72.2070  -16.0310   94.1560 S.3   501  3CY501     -0.1327
      9  C8        72.7440  -17.1960   95.4220 C.3   501  3CY501      0.0925
     10  C9        71.9900  -16.9800   96.7540 C.3   501  3CY501      0.1830
     11  C10       72.3740  -18.0130   97.8450 C.3   501  3CY501      0.1377
     12  O1        70.7480  -17.0500   96.4400 O.3   501  3CY501     -0.2203
     13  N1        73.7830  -18.1420   98.0930 N.am  501  3CY501     -0.2026
     14  C11       71.6720  -17.7070   99.2130 C.3   501  3CY501      0.1382
     15  C12       70.6410  -18.7410   99.6630 C.2   501  3CY501      0.3667
     16  O2        70.2550  -18.7530  100.8120 O.co2 501  3CY501     -0.2456
     17  O3        70.2090  -19.5430   98.8810 O.co2 501  3CY501     -0.2456
     18  C13       74.3530  -19.3070   97.8240 C.2   501  3CY501      0.2602
     19  O4        73.7500  -20.3150   97.3490 O.2   501  3CY501     -0.2715
     20  C21       76.8000  -21.0770   96.9440 C.ar  501  3CY501      0.0503
     21  N2        76.2500  -20.8240   98.1760 N.am  501  3CY501     -0.2499
     22  C14       75.8420  -19.4090   98.1700 C.3   501  3CY501      0.1619
     23  C15       76.8720  -18.7420   97.1670 C.3   501  3CY501      0.0572
     24  C16       77.1930  -19.9200   96.3250 C.ar  501  3CY501     -0.0063
     25  C17       77.8080  -19.9540   95.0560 C.ar  501  3CY501     -0.0030
     26  C18       78.0000  -21.2070   94.4230 C.ar  501  3CY501     -0.0002
     27  C19       77.5740  -22.4130   95.0560 C.ar  501  3CY501      0.0012
     28  C20       76.9540  -22.3790   96.3400 C.ar  501  3CY501      0.0132
     29  C22       76.4300  -23.6430   97.0530 C.2   501  3CY501     -0.0012
     30  C23       76.6620  -23.9330   98.5530 C.2   501  3CY501      0.0043
     31  C24       77.2360  -22.7900   99.3680 C.3   501  3CY501      0.1935
     32  C25       76.3490  -21.5310   99.3550 C.2   501  3CY501      0.2538
     33  O5        75.7820  -21.1930  100.4330 O.2   501  3CY501     -0.2723
     34  N3        77.4380  -23.1660  100.7700 N.am  501  3CY501     -0.1918
     35  C26       78.5350  -23.8260  101.1540 C.2   501  3CY501      0.2625
     36  C27       78.6190  -24.1060  102.6620 C.3   501  3CY501      0.1840
     37  O6        79.4840  -24.1970  100.3920 O.2   501  3CY501     -0.2715
     38  N4        79.0480  -25.5000  102.8890 N.am  501  3CY501     -0.1972
     39  C30       78.1690  -26.5370  102.9220 C.2   501  3CY501      0.2423
     40  C31       78.8400  -27.8940  103.1730 C.3   501  3CY501      0.0964
     41  O9        76.9060  -26.4380  102.7660 O.2   501  3CY501     -0.2733
     42  C28       79.6160  -23.0970  103.2830 C.3   501  3CY501      0.1450
     43  C29       79.8120  -23.2420  104.7860 C.2   501  3CY501      0.3671
     44  O8        80.9340  -23.3080  105.2410 O.co2 501  3CY501     -0.2456
     45  O7        78.8490  -23.2800  105.5260 O.co2 501  3CY501     -0.2456
@<TRIPOS>BOND
     1     3     2   ar
     2     3     4   ar
     3     2     1   ar
     4     4     5   ar
     5     1     6   ar
     6     5     6   ar
     7     6     7    1
     8     7     8    1
     9     8     9    1
    10    26    27   ar
    11    26    25   ar
    12    27    28   ar
    13    25    24   ar
    14     9    10    1
    15    24    20   ar
    16    24    23    1
    17    28    20   ar
    18    28    29    1
    19    12    10    1
    20    10    11    1
    21    20    21    1
    22    29    30    2
    23    23    22    1
    24    19    18    2
    25    18    13   am
    26    18    22    1
    27    11    13    1
    28    11    14    1
    29    22    21    1
    30    21    32   am
    31    30    31    1
    32    17    15   ar
    33    14    15    1
    34    32    31    1
    35    32    33    2
    36    31    34    1
    37    15    16   ar
    38    37    35    2
    39    34    35   am
    40    35    36    1
    41    36    38    1
    42    36    42    1
    43    41    39    2
    44    38    39   am
    45    39    40    1
    46    42    43    1
    47    43    44   ar
    48    43    45   ar
