@<TRIPOS>MOLECULE
1ri1_GTG_A_1.pdb
 32 34 0 0 0
SMALL
GASTEIGER

@<TRIPOS>ATOM
      1  PA        15.4420   36.7180   98.5270 P.3   300  GTG300      0.2189
      2  O1A       15.6370   35.3760   97.8960 O.2   300  GTG300     -0.5170
      3  O2A       16.1720   36.9180   99.8180 O.3   300  GTG300     -0.4371
      4  O3A       13.8330   36.9020   98.7930 O.3   300  GTG300     -0.2700
      5  PB        12.8740   37.0750  100.0750 P.3   300  GTG300      0.2277
      6  O1B       12.8000   35.7780  100.7870 O.2   300  GTG300     -0.5168
      7  O2B       13.3630   38.1720  100.9530 O.3   300  GTG300     -0.4368
      8  O3B       11.4100   37.4420   99.4660 O.3   300  GTG300     -0.2258
      9  N9A       16.1020   36.8580   92.1010 N.pl3 300  GTG300     -0.2354
     10  C8A       16.8140   35.7420   92.5470 C.3   300  GTG300      0.2246
     11  N7A       17.6200   35.2390   91.6560 N.2   300  GTG300     -0.2322
     12  C5A       17.4620   36.0560   90.5480 C.2   300  GTG300      0.2182
     13  C6A       18.0990   36.0110   89.2590 C.1   300  GTG300      0.2372
     14  O6A       18.9290   35.2010   88.8270 O.2   300  GTG300     -0.2069
     15  N1A       17.6410   37.0350   88.3940 N.2   300  GTG300     -0.2485
     16  C2A       16.6880   37.9940   88.7470 C.1   300  GTG300      0.2531
     17  N2A       16.4060   38.8970   87.8030 N.pl3 300  GTG300     -0.0226
     18  N3A       16.1110   38.0670   89.9570 N.2   300  GTG300     -0.3074
     19  C4A       16.5070   37.0430   90.7960 C.2   300  GTG300      0.2300
     20  O5D       15.7370   37.9170   97.5140 O.3   300  GTG300     -0.3112
     21  C5D       16.3540   37.7390   96.2300 C.3   300  GTG300      0.1813
     22  C4D       15.2990   37.9290   95.1640 C.3   300  GTG300      0.1799
     23  O4D       15.9110   38.2280   93.8680 O.3   300  GTG300     -0.3326
     24  C3D       14.3990   36.6920   94.9230 C.3   300  GTG300      0.2158
     25  O3D       13.2690   36.6400   95.8150 O.3   300  GTG300     -0.2175
     26  C2D       14.0390   36.8110   93.4530 C.3   300  GTG300      0.2310
     27  O2D       12.8140   37.5540   93.3110 O.3   300  GTG300     -0.2158
     28  C1D       15.1740   37.5850   92.8050 C.3   300  GTG300      0.2293
     29  PG        10.0070   37.6030  100.2570 P.3   300  GTG300      0.5373
     30  O1G        9.7350   36.2970  100.9630 O.3   300  GTG300     -0.1143
     31  O2G       10.1420   38.7750  101.2050 O.3   300  GTG300     -0.1143
     32  O5E        8.8800   37.8860   99.2540 O.2   300  GTG300     -0.2221
@<TRIPOS>BOND
     1    17    16    1
     2    15    16    2
     3    15    13    2
     4    16    18    2
     5    14    13    2
     6    13    12    1
     7    18    19    2
     8    12    19    1
     9    12    11    2
    10    19     9    1
    11    11    10    1
    12     9    10    1
    13     9    28    1
    14    28    26    1
    15    28    23    1
    16    27    26    1
    17    26    24    1
    18    23    22    1
    19    24    22    1
    20    24    25    1
    21    22    21    1
    22    21    20    1
    23    20     1    1
    24     2     1    2
    25     1     4    1
    26     1     3    1
    27     4     5    1
    28    32    29    2
    29     8     5    1
    30     8    29    1
    31     5     6    2
    32     5     7    1
    33    29    30    1
    34    29    31    1
