@<TRIPOS>MOLECULE
1ri1_SAH_A_1.pdb
 26 28 0 0 0
SMALL
GASTEIGER

@<TRIPOS>ATOM
      1  N         13.2420   30.6330   91.6170 N.3   299  SAH299     -0.1208
      2  CA        14.2840   31.3540   92.4700 C.3   299  SAH299      0.1952
      3  CB        15.6130   31.6300   91.8730 C.3   299  SAH299      0.0422
      4  CG        16.4220   30.5080   91.3240 C.3   299  SAH299      0.0597
      5  SD        17.7410   31.2580   90.2860 S.3   299  SAH299     -0.1375
      6  C         13.6910   32.7350   92.9330 C.2   299  SAH299      0.3819
      7  O         12.5490   33.0660   92.5750 O.co2 299  SAH299     -0.2441
      8  OXT       14.4780   33.4500   93.6750 O.co2 299  SAH299     -0.2441
      9  C5'       17.9900   30.0060   89.1020 C.3   299  SAH299      0.0899
     10  C4'       18.1710   28.5910   89.8180 C.3   299  SAH299      0.1630
     11  O4'       18.3410   27.7040   88.7310 O.3   299  SAH299     -0.3153
     12  C3'       19.4160   28.3880   90.6640 C.3   299  SAH299      0.2168
     13  O3'       19.0560   28.1880   92.0350 O.3   299  SAH299     -0.2175
     14  C2'       20.0820   27.1330   89.9630 C.3   299  SAH299      0.2569
     15  O2'       20.7660   26.2910   90.8690 O.3   299  SAH299     -0.2130
     16  C1'       18.8900   26.4800   89.2900 C.3   299  SAH299      0.3185
     17  N9        19.1670   25.6020   88.3240 N.pl3 299  SAH299     -0.1439
     18  C8        19.9590   25.6300   87.1890 C.3   299  SAH299      0.3377
     19  N7        19.9540   24.5370   86.4930 N.2   299  SAH299     -0.2095
     20  C5        19.0810   23.6660   87.2020 C.2   299  SAH299      0.2526
     21  C6        18.6610   22.3050   86.9470 C.2   299  SAH299      0.4393
     22  N6        19.0630   21.5690   85.8950 N.pl3 299  SAH299      0.2180
     23  N1        17.7850   21.7970   87.8800 N.2   299  SAH299      0.0021
     24  C2        17.3490   22.4950   88.9650 C.3   299  SAH299      0.5254
     25  N3        17.7290   23.7870   89.2370 N.2   299  SAH299     -0.0055
     26  C4        18.5930   24.3030   88.3210 C.2   299  SAH299      0.3518
@<TRIPOS>BOND
     1    22    21    1
     2    19    18    1
     3    19    20    2
     4    21    20    1
     5    21    23    2
     6    18    17    1
     7    20    26    1
     8    23    24    1
     9    26    17    1
    10    26    25    2
    11    17    16    1
    12    11    16    1
    13    11    10    1
    14    24    25    1
    15     9    10    1
    16     9     5    1
    17    16    14    1
    18    10    12    1
    19    14    12    1
    20    14    15    1
    21     5     4    1
    22    12    13    1
    23     4     3    1
    24     1     2    1
    25     3     2    1
    26     2     6    1
    27     7     6   ar
    28     6     8   ar
