@<TRIPOS>MOLECULE
1ri2_GTG_A_1.pdb
 32 34 0 0 0
SMALL
GASTEIGER

@<TRIPOS>ATOM
      1  PA        16.5760   35.3710   93.9960 P.3   299  GTG299      0.2189
      2  O1A       15.9430   34.1760   93.3520 O.2   299  GTG299     -0.5170
      3  O2A       17.9870   35.1830   94.4410 O.3   299  GTG299     -0.4371
      4  O3A       15.6820   35.7860   95.3150 O.3   299  GTG299     -0.2700
      5  PB        14.6280   35.0770   96.3150 P.3   299  GTG299      0.2277
      6  O1B       13.2570   35.4730   95.8990 O.2   299  GTG299     -0.5168
      7  O2B       14.8160   33.6030   96.3270 O.3   299  GTG299     -0.4368
      8  O3B       14.9400   35.7050   97.7880 O.3   299  GTG299     -0.2258
      9  N9A       17.6050   36.2200   88.3220 N.pl3 299  GTG299     -0.2354
     10  C8A       17.8210   35.0640   89.0640 C.3   299  GTG299      0.2246
     11  N7A       18.0740   34.0110   88.3430 N.2   299  GTG299     -0.2322
     12  C5A       18.0410   34.4740   87.0370 C.2   299  GTG299      0.2182
     13  C6A       18.2390   33.7810   85.7950 C.1   299  GTG299      0.2372
     14  O6A       18.5080   32.5920   85.6030 O.2   299  GTG299     -0.2069
     15  N1A       18.1130   34.6350   84.6710 N.2   299  GTG299     -0.2485
     16  C2A       17.8250   35.9900   84.7460 C.1   299  GTG299      0.2531
     17  N2A       17.7450   36.6230   83.5710 N.pl3 299  GTG299     -0.0226
     18  N3A       17.6270   36.6480   85.8980 N.2   299  GTG299     -0.3074
     19  C4A       17.7560   35.8370   87.0060 C.2   299  GTG299      0.2300
     20  O5D       16.4350   36.6780   93.0920 O.3   299  GTG299     -0.3112
     21  C5D       15.7570   36.7070   91.8350 C.3   299  GTG299      0.1813
     22  C4D       16.2740   37.8730   91.0160 C.3   299  GTG299      0.1799
     23  O4D       17.4770   37.4860   90.2890 O.3   299  GTG299     -0.3326
     24  C3D       15.2770   38.3910   89.9780 C.3   299  GTG299      0.2158
     25  O3D       15.0090   39.7780   90.1770 O.3   299  GTG299     -0.2175
     26  C2D       15.8930   38.0660   88.6270 C.3   299  GTG299      0.2310
     27  O2D       15.9540   39.2480   87.8190 O.3   299  GTG299     -0.2158
     28  C1D       17.2940   37.5770   88.8650 C.3   299  GTG299      0.2293
     29  PG        14.3030   35.3130   99.2280 P.3   299  GTG299      0.5373
     30  O1G       12.7990   35.4070   99.1050 O.2   299  GTG299     -0.2221
     31  O2G       14.7880   33.9260   99.5760 O.3   299  GTG299     -0.1143
     32  O5E       14.7850   36.3040  100.3000 O.3   299  GTG299     -0.1143
@<TRIPOS>BOND
     1    17    16    1
     2    15    16    2
     3    15    13    2
     4    16    18    2
     5    14    13    2
     6    13    12    1
     7    18    19    2
     8    19    12    1
     9    19     9    1
    10    12    11    2
    11    27    26    1
    12     9    28    1
    13     9    10    1
    14    11    10    1
    15    26    28    1
    16    26    24    1
    17    28    23    1
    18    24    25    1
    19    24    22    1
    20    23    22    1
    21    22    21    1
    22    21    20    1
    23    20     1    1
    24     2     1    2
    25     1     3    1
    26     1     4    1
    27     4     5    1
    28     6     5    2
    29     5     7    1
    30     5     8    1
    31     8    29    1
    32    30    29    2
    33    29    31    1
    34    29    32    1
