@<TRIPOS>MOLECULE
1ri3_SAH_A_1.pdb
 26 28 0 0 0
SMALL
GASTEIGER

@<TRIPOS>ATOM
      1  N         13.2380   29.9270   91.1340 N.3   299  SAH299     -0.1208
      2  CA        14.0880   30.8470   92.0110 C.3   299  SAH299      0.1952
      3  CB        15.4120   31.2700   91.5280 C.3   299  SAH299      0.0422
      4  CG        16.4440   30.2720   91.1840 C.3   299  SAH299      0.0597
      5  SD        17.4580   31.0420   89.8580 S.3   299  SAH299     -0.1375
      6  C         13.2740   32.1530   92.2950 C.2   299  SAH299      0.3819
      7  O         12.1370   32.2920   91.8160 O.co2 299  SAH299     -0.2441
      8  OXT       13.8840   33.0210   93.0400 O.co2 299  SAH299     -0.2441
      9  C5'       17.5720   29.7360   88.7200 C.3   299  SAH299      0.0899
     10  C4'       17.8280   28.3390   89.4150 C.3   299  SAH299      0.1630
     11  O4'       17.9170   27.4530   88.3420 O.3   299  SAH299     -0.3153
     12  C3'       19.1500   28.1920   90.1630 C.3   299  SAH299      0.2168
     13  O3'       18.8870   27.9540   91.5330 O.3   299  SAH299     -0.2175
     14  C2'       19.8110   26.9880   89.3900 C.3   299  SAH299      0.2569
     15  O2'       20.6070   26.1630   90.2210 O.3   299  SAH299     -0.2130
     16  C1'       18.5880   26.2770   88.8270 C.3   299  SAH299      0.3185
     17  N9        18.8340   25.4010   87.8690 N.pl3 299  SAH299     -0.1439
     18  C8        19.6060   25.3840   86.7280 C.3   299  SAH299      0.3377
     19  N7        19.5600   24.2750   86.0590 N.2   299  SAH299     -0.2095
     20  C5        18.6680   23.4540   86.8060 C.2   299  SAH299      0.2526
     21  C6        18.1960   22.1150   86.6020 C.2   299  SAH299      0.4393
     22  N6        18.5640   21.3470   85.5700 N.pl3 299  SAH299      0.2180
     23  N1        17.3130   21.6610   87.5650 N.2   299  SAH299      0.0021
     24  C2        16.9100   22.4030   88.6300 C.3   299  SAH299      0.5254
     25  N3        17.3440   23.6760   88.8630 N.2   299  SAH299     -0.0055
     26  C4        18.2120   24.1390   87.9020 C.2   299  SAH299      0.3518
@<TRIPOS>BOND
     1    22    21    1
     2    19    18    1
     3    19    20    2
     4    21    20    1
     5    21    23    2
     6    18    17    1
     7    20    26    1
     8    23    24    1
     9    17    26    1
    10    17    16    1
    11    26    25    2
    12    11    16    1
    13    11    10    1
    14    24    25    1
    15     9    10    1
    16     9     5    1
    17    16    14    1
    18    14    12    1
    19    14    15    1
    20    10    12    1
    21     5     4    1
    22    12    13    1
    23     1     2    1
    24     4     3    1
    25     3     2    1
    26     7     6   ar
    27     2     6    1
    28     6     8   ar
