@<TRIPOS>MOLECULE
1ri4_SAM_A_1.pdb
 27 29 0 0 0
SMALL
GASTEIGER

@<TRIPOS>ATOM
      1  N         13.4450   30.5230   92.1840 N.3   299  SAM299     -0.1208
      2  CA        14.0980   31.5040   93.1020 C.3   299  SAM299      0.1952
      3  C         13.3520   32.8130   93.0410 C.2   299  SAM299      0.3819
      4  O         12.3860   32.9290   92.2620 O.co2 299  SAM299     -0.2441
      5  OXT       13.8180   33.7300   93.8170 O.co2 299  SAM299     -0.2441
      6  CB        15.5760   31.8230   92.6700 C.3   299  SAM299      0.0414
      7  CG        16.0820   30.9950   91.4960 C.3   299  SAM299      0.0503
      8  SD        17.7560   31.2860   90.8180 S.3   299  SAM299     -0.1761
      9  CE        17.5800   32.8620   89.9450 C.3   299  SAM299      0.0590
     10  C5'       17.8960   30.0610   89.5570 C.3   299  SAM299      0.0806
     11  C4'       18.0620   28.6620   90.1690 C.3   299  SAM299      0.1622
     12  O4'       18.0640   27.7110   89.0860 O.3   299  SAM299     -0.3153
     13  C3'       19.4360   28.4040   90.8590 C.3   299  SAM299      0.2168
     14  O3'       19.1100   28.2640   92.3050 O.3   299  SAM299     -0.2175
     15  C2'       19.9060   27.0120   90.3970 C.3   299  SAM299      0.2569
     16  O2'       20.4730   26.0120   91.2380 O.3   299  SAM299     -0.2130
     17  C1'       18.6680   26.5590   89.5720 C.3   299  SAM299      0.3185
     18  N9        19.0320   25.6310   88.5030 N.pl3 299  SAM299     -0.1439
     19  C8        19.9030   25.8040   87.4300 C.3   299  SAM299      0.3377
     20  N7        20.0080   24.7400   86.6600 N.2   299  SAM299     -0.2095
     21  C5        19.1500   23.8120   87.2530 C.2   299  SAM299      0.2526
     22  C6        18.8200   22.4500   86.9320 C.2   299  SAM299      0.4393
     23  N6        19.3610   21.8070   85.8650 N.pl3 299  SAM299      0.2180
     24  N1        17.9050   21.7720   87.7380 N.2   299  SAM299      0.0021
     25  C2        17.3810   22.4350   88.8120 C.3   299  SAM299      0.5254
     26  N3        17.6340   23.7090   89.2050 N.2   299  SAM299     -0.0055
     27  C4        18.5410   24.3440   88.3860 C.2   299  SAM299      0.3518
@<TRIPOS>BOND
     1    23    22    1
     2    20    21    2
     3    20    19    1
     4    22    21    1
     5    22    24    2
     6    21    27    1
     7    19    18    1
     8    24    25    1
     9    27    18    1
    10    27    26    2
    11    18    17    1
    12    25    26    1
    13    12    17    1
    14    12    11    1
    15    10    11    1
    16    10     8    1
    17    17    15    1
    18     9     8    1
    19    11    13    1
    20    15    13    1
    21    15    16    1
    22     8     7    1
    23    13    14    1
    24     7     6    1
    25     1     2    1
    26     4     3   ar
    27     6     2    1
    28     3     2    1
    29     3     5   ar
