@<TRIPOS>MOLECULE
1rid_IDS_A_1.pdb
 16 16 0 0 0
SMALL
GASTEIGER

@<TRIPOS>ATOM
      1  C1        47.4560   32.3590   11.6260 C.3   247  IDS247      0.3017
      2  C2        46.4600   33.3890   11.0570 C.3   247  IDS247      0.2322
      3  C3        45.7820   34.1740   12.1660 C.3   247  IDS247      0.1895
      4  C4        45.0750   33.2840   13.2210 C.3   247  IDS247      0.0770
      5  C5        45.6070   31.7990   13.1120 C.3   247  IDS247      0.2228
      6  C6        45.3190   30.9450   14.3620 C.2   247  IDS247      0.3915
      7  O1        47.5560   31.3640   10.6720 O.3   247  IDS247     -0.1870
      8  O2        47.1630   34.3340   10.2220 O.3   247  IDS247     -0.2357
      9  O3        44.8410   35.0750   11.5940 O.3   247  IDS247     -0.2202
     10  O5        47.0400   31.8380   12.8910 O.3   247  IDS247     -0.3174
     11  O61       44.1730   30.6970   14.7020 O.co2 247  IDS247     -0.2430
     12  O62       46.2200   30.5060   15.0490 O.co2 247  IDS247     -0.2430
     13  S         46.6110   35.1690    8.9400 S.3   247  IDS247      0.0000
     14  O1S       45.4930   34.3810    8.4600 O.2   247  IDS247     -0.3452
     15  O2S       46.1930   36.4720    9.4120 O.3   247  IDS247     -0.2682
     16  O3S       47.7060   35.2350    7.9680 O.2   247  IDS247     -0.3452
@<TRIPOS>BOND
     1    16    13    2
     2    14    13    2
     3    13    15    1
     4    13     8    1
     5     8     2    1
     6     7     1    1
     7     2     1    1
     8     2     3    1
     9     9     3    1
    10     1    10    1
    11     3     4    1
    12    10     5    1
    13     5     4    1
    14     5     6    1
    15     6    11   ar
    16     6    12   ar
