@<TRIPOS>MOLECULE
1rid_SGN_A_1.pdb
 19 19 0 0 0
SMALL
GASTEIGER

@<TRIPOS>ATOM
      1  C1        49.9380   28.0310    9.8440 C.3   248  SGN248      0.2893
      2  C2        48.8730   27.8860   10.9830 C.3   248  SGN248      0.1832
      3  C3        47.8340   29.0030   10.8030 C.3   248  SGN248      0.1772
      4  C4        48.5410   30.3580   10.8620 C.3   248  SGN248      0.0669
      5  C5        49.6060   30.4060    9.7120 C.3   248  SGN248      0.1524
      6  C6        50.4060   31.7170    9.6590 C.3   248  SGN248      0.2020
      7  N         48.1910   26.5640   10.8900 N.3   248  SGN248     -0.1129
      8  O1        49.2750   27.9630    8.6450 O.3   248  SGN248     -0.1882
      9  O3        46.8700   28.9240   11.8410 O.3   248  SGN248     -0.2213
     10  O5        50.5650   29.3090    9.8950 O.3   248  SGN248     -0.3271
     11  O6        50.4350   32.2920   10.9280 O.3   248  SGN248     -0.2385
     12  S1        48.5170   25.3360   11.9520 S.3   248  SGN248     -0.1288
     13  O1S       47.6150   25.4630   13.0770 O.3   248  SGN248     -0.2918
     14  O2S       48.3290   24.1110   11.1850 O.3   248  SGN248     -0.2918
     15  O3S       49.8960   25.5170   12.3620 O.3   248  SGN248     -0.2918
     16  S2        50.7610   31.5680   12.2610 S.3   248  SGN248     -0.0001
     17  O4S       51.9260   32.2220   12.8280 O.2   248  SGN248     -0.3452
     18  O5S       49.5620   31.7550   13.0590 O.3   248  SGN248     -0.2682
     19  O6S       50.9960   30.1800   11.9160 O.2   248  SGN248     -0.3452
@<TRIPOS>BOND
     1     8     1    1
     2     6     5    1
     3     6    11    1
     4     5    10    1
     5     5     4    1
     6     1    10    1
     7     1     2    1
     8     3     4    1
     9     3     2    1
    10     3     9    1
    11     7     2    1
    12     7    12    1
    13    11    16    1
    14    14    12    1
    15    19    16    2
    16    12    15    1
    17    12    13    1
    18    16    17    2
    19    16    18    1
