@<TRIPOS>MOLECULE
1rin_MAN_A_1.pdb
 12 12 0 0 0
SMALL
GASTEIGER

@<TRIPOS>ATOM
      1  C1        15.4930    5.7790   24.4630 C.3   250  MAN250      0.3024
      2  C2        16.0590    5.3190   25.8110 C.3   250  MAN250      0.2434
      3  C3        16.7680    6.4850   26.4760 C.3   250  MAN250      0.2199
      4  C4        17.8410    6.9760   25.5660 C.3   250  MAN250      0.2144
      5  C5        17.2340    7.3580   24.2370 C.3   250  MAN250      0.1836
      6  C6        18.2780    7.8450   23.2640 C.3   250  MAN250      0.2142
      7  O1        14.4730    6.7840   24.5860 O.3   250  MAN250     -0.1869
      8  O2        16.9320    4.1970   25.6540 O.3   250  MAN250     -0.2148
      9  O3        17.3040    6.1310   27.7390 O.3   250  MAN250     -0.2174
     10  O4        18.4430    8.0980   26.1450 O.3   250  MAN250     -0.2176
     11  O5        16.5800    6.2370   23.6650 O.3   250  MAN250     -0.3236
     12  O6        19.0670    6.8100   22.7520 O.3   250  MAN250     -0.2176
@<TRIPOS>BOND
     1    12     6    1
     2     6     5    1
     3    11     5    1
     4    11     1    1
     5     5     4    1
     6     1     7    1
     7     1     2    1
     8     4    10    1
     9     4     3    1
    10     8     2    1
    11     2     3    1
    12     3     9    1
