@<TRIPOS>MOLECULE
1rit_LAT_C_1.pdb
 23 24 0 0 0
SMALL
GASTEIGER

@<TRIPOS>ATOM
      1  C1       -24.3680   12.9640  -25.9510 C.3   246  LAT246      0.2695
      2  C2       -25.4530   13.9380  -25.4590 C.3   246  LAT246      0.2406
      3  C3       -24.7990   15.1710  -24.8170 C.3   246  LAT246      0.2198
      4  C4       -23.9140   14.7340  -23.6190 C.3   246  LAT246      0.2144
      5  C5       -22.8730   13.7410  -24.2130 C.3   246  LAT246      0.1835
      6  C6       -21.8760   13.1580  -23.2710 C.3   246  LAT246      0.2142
      7  O1       -25.0030   11.8520  -26.5300 O.3   246  LAT246     -0.3257
      8  O2       -26.2680   14.3290  -26.5530 O.3   246  LAT246     -0.2149
      9  O3       -25.8080   16.0630  -24.3870 O.3   246  LAT246     -0.2174
     10  O4       -24.7260   14.0700  -22.6520 O.3   246  LAT246     -0.2176
     11  O5       -23.5540   12.6100  -24.8290 O.3   246  LAT246     -0.3256
     12  O6       -20.8430   12.5400  -24.0140 O.3   246  LAT246     -0.2176
     13  C1'      -23.8530    8.1530  -28.2840 C.3   246  LAT246      0.3023
     14  C2'      -23.4370    8.4140  -26.8150 C.3   246  LAT246      0.2433
     15  C3'      -24.3410    9.5120  -26.2340 C.3   246  LAT246      0.2168
     16  C4'      -24.1660   10.7870  -27.0700 C.3   246  LAT246      0.1804
     17  C5'      -24.5570   10.4780  -28.5610 C.3   246  LAT246      0.1804
     18  C6'      -24.3880   11.6840  -29.4920 C.3   246  LAT246      0.2141
     19  O1'      -23.0550    7.1700  -28.8420 O.3   246  LAT246     -0.1869
     20  O2'      -23.5790    7.2190  -26.0560 O.3   246  LAT246     -0.2148
     21  O3'      -23.9860    9.7770  -24.8800 O.3   246  LAT246     -0.2175
     22  O5'      -23.7320    9.3730  -29.0890 O.3   246  LAT246     -0.3237
     23  O6'      -23.1500   12.3660  -29.2900 O.3   246  LAT246     -0.2176
@<TRIPOS>BOND
     1    18    23    1
     2    18    17    1
     3    22    17    1
     4    22    13    1
     5    19    13    1
     6    17    16    1
     7    13    14    1
     8    16     7    1
     9    16    15    1
    10    14    15    1
    11    14    20    1
    12     8     2    1
    13     7     1    1
    14    15    21    1
    15     1     2    1
    16     1    11    1
    17     2     3    1
    18    11     5    1
    19     3     9    1
    20     3     4    1
    21     5     4    1
    22     5     6    1
    23    12     6    1
    24     4    10    1
