@<TRIPOS>MOLECULE
1riu_RBE_H_1.pdb
 20 22 0 0 0
SMALL
GASTEIGER

@<TRIPOS>ATOM
      1  C1        22.9070   -1.2910   26.6410 C.3   201  RBE201      0.0870
      2  C2        24.2930   -1.9600   26.2710 C.3   201  RBE201      0.1592
      3  C3        24.1870   -2.4010   24.7810 C.3   201  RBE201      0.1825
      4  C4        22.9250   -3.1880   24.5080 C.3   201  RBE201      0.0616
      5  C5        21.7110   -2.3680   25.0360 C.3   201  RBE201      0.0764
      6  C6        21.6760   -0.8970   24.5730 C.3   201  RBE201      0.0189
      7  C7        22.4890   -0.1460   25.6890 C.3   201  RBE201      0.0195
      8  C8        26.6190   -2.6080   24.4140 C.2   201  RBE201      0.3411
      9  C9        27.6470   -3.6140   23.9700 C.ar  201  RBE201      0.0756
     10  C10       27.2880   -4.9060   23.5700 C.ar  201  RBE201      0.0064
     11  C11       28.2850   -5.8240   23.1610 C.ar  201  RBE201      0.0002
     12  C12       29.6170   -5.4430   23.1540 C.ar  201  RBE201      0.0000
     13  C13       29.9800   -4.1740   23.5450 C.ar  201  RBE201      0.0002
     14  C14       29.0050   -3.2320   23.9620 C.ar  201  RBE201      0.0064
     15  C15       24.6530   -3.1030   27.2560 C.2   201  RBE201      0.3692
     16  N1        21.8400   -2.3180   26.5030 N.3   201  RBE201     -0.2201
     17  O1        25.3810   -3.1350   24.3640 O.3   201  RBE201     -0.4485
     18  O2        26.8610   -1.5000   24.7650 O.2   201  RBE201     -0.2449
     19  O3        25.6600   -3.2200   27.8930 O.co2 201  RBE201     -0.2455
     20  O4        23.6900   -4.0090   27.2870 O.co2 201  RBE201     -0.2455
@<TRIPOS>BOND
     1    12    11   ar
     2    12    13   ar
     3    11    10   ar
     4    13    14   ar
     5    10     9   ar
     6    14     9   ar
     7     9     8    1
     8    17     8    1
     9    17     3    1
    10     8    18    2
    11     4     3    1
    12     4     5    1
    13     6     5    1
    14     6     7    1
    15     3     2    1
    16     5    16    1
    17     7     1    1
    18     2     1    1
    19     2    15    1
    20    16     1    1
    21    15    20   ar
    22    15    19   ar
