@<TRIPOS>MOLECULE
1riv_OBE_H_1.pdb
 22 24 0 0 0
SMALL
GASTEIGER

@<TRIPOS>ATOM
      1  C1        22.8680   -1.2750   26.8870 C.3   201  OBE201      0.0718
      2  C2        24.2750   -1.9390   26.4720 C.3   201  OBE201      0.1578
      3  C3        24.1380   -2.3620   24.9400 C.3   201  OBE201      0.1824
      4  C4        22.8710   -3.1660   24.6630 C.3   201  OBE201      0.0602
      5  C5        21.6640   -2.3010   25.2320 C.3   201  OBE201      0.0612
      6  C6        21.6620   -0.7980   24.7800 C.3   201  OBE201      0.0175
      7  C7        22.4790   -0.0840   25.9400 C.3   201  OBE201      0.0180
      8  C8        26.6110   -2.5720   24.5630 C.2   201  OBE201      0.3412
      9  C9        27.6380   -3.5930   24.1100 C.ar  201  OBE201      0.0788
     10  C10       29.0200   -3.2900   24.1390 C.ar  201  OBE201      0.0485
     11  C11       29.9750   -4.2710   23.7170 C.ar  201  OBE201      0.1960
     12  C12       29.5380   -5.5570   23.2650 C.ar  201  OBE201      0.0420
     13  C13       28.1770   -5.8730   23.2270 C.ar  201  OBE201      0.0035
     14  C14       27.1960   -4.8990   23.6530 C.ar  201  OBE201      0.0066
     15  C15       24.7250   -3.1360   27.4060 C.2   201  OBE201      0.3692
     16  C16       20.5330   -2.0370   27.4410 C.3   201  OBE201      0.0896
     17  N1        21.8200   -2.3330   26.7160 N.3   201  OBE201     -0.2733
     18  O1        25.3500   -3.0620   24.4880 O.3   201  OBE201     -0.4485
     19  O2        26.8810   -1.4890   24.9630 O.2   201  OBE201     -0.2449
     20  O3        25.7820   -3.2250   27.9410 O.co2 201  OBE201     -0.2455
     21  O4        23.8100   -4.0860   27.5190 O.co2 201  OBE201     -0.2455
     22  O5        31.2670   -3.8910   23.7830 O.3   201  OBE201     -0.2866
@<TRIPOS>BOND
     1    13    12   ar
     2    13    14   ar
     3    12    11   ar
     4    14     9   ar
     5    11    22    1
     6    11    10   ar
     7     9    10   ar
     8     9     8    1
     9    18     8    1
    10    18     3    1
    11     8    19    2
    12     4     3    1
    13     4     5    1
    14     6     5    1
    15     6     7    1
    16     3     2    1
    17     5    17    1
    18     7     1    1
    19     2     1    1
    20     2    15    1
    21    17     1    1
    22    17    16    1
    23    15    21   ar
    24    15    20   ar
