@<TRIPOS>MOLECULE
1riw_OSC_C_1.pdb
 45 49 0 0 0
SMALL
GASTEIGER

@<TRIPOS>ATOM
      1  N1        18.4050  -13.5480   21.8650 N.am  1001  OSC1001    -0.2731
      2  C2        19.4900  -14.3840   21.2580 C.3   1001  OSC1001     0.0783
      3  C3        18.3810  -12.2470   21.1490 C.3   1001  OSC1001     0.1535
      4  C4        17.5840  -13.9150   22.9060 C.2   1001  OSC1001     0.2461
      5  C5        20.4930  -13.3190   20.7590 C.3   1001  OSC1001     0.0205
      6  C6        18.9240  -15.3080   20.1270 C.3   1001  OSC1001     0.0527
      7  C7        19.5200  -12.3060   20.1090 C.3   1001  OSC1001     0.0309
      8  C8        17.0690  -12.0270   20.4460 C.2   1001  OSC1001     0.2594
      9  C9        17.7360  -15.2770   23.5560 C.3   1001  OSC1001     0.1756
     10  O10       16.7260  -13.1460   23.3220 O.2   1001  OSC1001    -0.2730
     11  C11       21.4710  -13.8360   19.6810 C.3   1001  OSC1001     0.0043
     12  C12       20.0350  -15.9170   19.2430 C.3   1001  OSC1001     0.1537
     13  N13       16.5950  -10.7680   20.2880 N.am  1001  OSC1001    -0.2040
     14  O14       16.4520  -12.9840   20.0210 O.2   1001  OSC1001    -0.2716
     15  C15       18.1880  -15.1470   25.0260 C.3   1001  OSC1001     0.0574
     16  N16       16.4580  -15.9760   23.4660 N.am  1001  OSC1001    -0.1953
     17  C17       20.8400  -14.7580   18.5940 C.3   1001  OSC1001     0.0330
     18  O18       20.9030  -16.7430   20.0270 O.3   1001  OSC1001    -0.2231
     19  C19       15.3240  -10.5270   19.5950 C.3   1001  OSC1001     0.1153
     20  C20       19.6350  -14.6800   25.0880 C.ar  1001  OSC1001    -0.0200
     21  C21       16.3590  -17.1460   22.7830 C.2   1001  OSC1001     0.2726
     22  C22       14.4230   -9.6100   20.4410 C.3   1001  OSC1001     0.0268
     23  C23       19.9470  -13.4180   25.6400 C.ar  1001  OSC1001    -0.0042
     24  C24       20.6780  -15.5050   24.5880 C.ar  1001  OSC1001    -0.0042
     25  C25       15.0270  -17.8340   22.6890 C.3   1001  OSC1001     0.2333
     26  O26       17.3370  -17.6390   22.2380 O.2   1001  OSC1001    -0.2706
     27  C27       13.6670  -10.3860   21.5090 C.3   1001  OSC1001     0.0424
     28  C28       21.2890  -12.9790   25.6940 C.ar  1001  OSC1001    -0.0003
     29  C29       22.0160  -15.0640   24.6430 C.ar  1001  OSC1001    -0.0003
     30  C30       14.9200  -18.9580   23.7300 C.3   1001  OSC1001     0.0688
     31  O31       13.9840  -16.8740   22.8990 O.3   1001  OSC1001    -0.2128
     32  C32       13.1040   -9.7600   22.7550 C.3   1001  OSC1001     0.1679
     33  C33       13.4000  -11.6670   21.4920 C.3   1001  OSC1001     0.0438
     34  C34       22.3210  -13.8010   25.1950 C.ar  1001  OSC1001    -0.0000
     35  C35       13.7510  -19.8490   23.3690 C.ar  1001  OSC1001    -0.0191
     36  N36       12.2350  -10.7910   23.3500 N.pl3 1001  OSC1001    -0.1885
     37  C37       12.6320  -12.0660   22.7220 C.3   1001  OSC1001     0.1679
     38  C38       13.9230  -20.9320   22.4740 C.ar  1001  OSC1001    -0.0042
     39  C39       12.4830  -19.5950   23.9250 C.ar  1001  OSC1001    -0.0042
     40  C40       11.2620  -10.6050   24.3040 C.cat 1001  OSC1001     0.4954
     41  C41       12.8230  -21.7550   22.1410 C.ar  1001  OSC1001    -0.0003
     42  C42       11.3850  -20.4150   23.5930 C.ar  1001  OSC1001    -0.0003
     43  N43       10.5890  -11.6870   24.8210 N.pl3 1001  OSC1001     0.1298
     44  N44       10.9720   -9.4030   24.7190 N.pl3 1001  OSC1001     0.1298
     45  C45       11.5540  -21.4920   22.7020 C.ar  1001  OSC1001    -0.0000
@<TRIPOS>BOND
     1    17    12    1
     2    17    11    1
     3    12    18    1
     4    12     6    1
     5    19    13    1
     6    19    22    1
     7    11     5    1
     8    14     8    2
     9     7     5    1
    10     7     3    1
    11     6     2    1
    12    13     8   am
    13    22    27    1
    14     8     3    1
    15     5     2    1
    16     3     1    1
    17     2     1    1
    18    33    27    1
    19    33    37    1
    20    27    32    1
    21     1     4   am
    22    41    38   ar
    23    41    45   ar
    24    26    21    2
    25    38    35   ar
    26    25    21    1
    27    25    31    1
    28    25    30    1
    29    45    42   ar
    30    37    36    1
    31    32    36    1
    32    21    16   am
    33     4    10    2
    34     4     9    1
    35    36    40    1
    36    35    30    1
    37    35    39   ar
    38    16     9    1
    39     9    15    1
    40    42    39   ar
    41    40    44    2
    42    40    43    1
    43    24    29   ar
    44    24    20   ar
    45    29    34   ar
    46    15    20    1
    47    20    23   ar
    48    34    28   ar
    49    23    28   ar
