@<TRIPOS>MOLECULE
1rj6_AZM_A_1.pdb
 13 13 0 0 0
SMALL
GASTEIGER

@<TRIPOS>ATOM
      1  C1        16.6360   -1.0040   10.2100 C.ar  400  AZM400      0.2590
      2  C2        16.0890   -2.6880   11.6600 C.ar  400  AZM400      0.2093
      3  C3        16.6750   -4.5910   13.1670 C.2   400  AZM400      0.2478
      4  C4        16.0380   -5.6050   14.0930 C.3   400  AZM400      0.0969
      5  N1        16.5190    0.1700    7.8050 N.3   400  AZM400      0.0413
      6  N2        15.0250   -2.0420   11.2670 N.ar  400  AZM400     -0.1222
      7  N3        15.3470   -1.0280   10.3950 N.ar  400  AZM400     -0.1189
      8  N4        15.8030   -3.7090   12.5420 N.am  400  AZM400     -0.1528
      9  O1        18.7530   -0.2270    8.8590 O.2   400  AZM400     -0.1483
     10  O2        17.4280    1.4710    9.8580 O.2   400  AZM400     -0.1483
     11  O3        17.8940   -4.6180   13.0490 O.2   400  AZM400     -0.2729
     12  S1        17.3890    0.2050    9.1320 S.O2  400  AZM400      0.1178
     13  S2        17.5780   -2.1730   11.0420 S.2   400  AZM400     -0.0087
@<TRIPOS>BOND
     1     5    12    1
     2     9    12    2
     3    12    10    2
     4    12     1    1
     5     1     7   ar
     6     1    13   ar
     7     7     6   ar
     8    13     2   ar
     9     6     2   ar
    10     2     8    1
    11     8     3   am
    12    11     3    2
    13     3     4    1
