@<TRIPOS>MOLECULE
1rjd_SAM_A_1.pdb
 27 29 0 0 0
SMALL
GASTEIGER

@<TRIPOS>ATOM
      1  N         20.2340   90.1110    0.7850 N.3   801  SAM801     -0.1208
      2  CA        20.8350   91.2350    0.0700 C.3   801  SAM801      0.1952
      3  C         20.9050   90.9570   -1.4170 C.2   801  SAM801      0.3819
      4  O         20.9610   89.7670   -1.7860 O.co2 801  SAM801     -0.2441
      5  OXT       20.8700   91.8830   -2.2580 O.co2 801  SAM801     -0.2441
      6  CB        22.2130   91.5390    0.6570 C.3   801  SAM801      0.0414
      7  CG        23.2870   90.4810    0.4690 C.3   801  SAM801      0.0503
      8  SD        24.9450   90.9780    1.0070 S.3   801  SAM801     -0.1761
      9  CE        25.9470   89.8090    0.0680 C.3   801  SAM801      0.0590
     10  C5'       25.0010   90.2130    2.6630 C.3   801  SAM801      0.0806
     11  C4'       24.1720   90.9780    3.6800 C.3   801  SAM801      0.1622
     12  O4'       23.9950   90.1890    4.8510 O.3   801  SAM801     -0.3153
     13  C3'       24.8650   92.2700    4.1020 C.3   801  SAM801      0.2168
     14  O3'       23.9800   93.3900    3.9860 O.3   801  SAM801     -0.2175
     15  C2'       25.2950   91.9730    5.5240 C.3   801  SAM801      0.2569
     16  O2'       25.4340   93.1280    6.3490 O.3   801  SAM801     -0.2130
     17  C1'       24.2110   91.0050    5.9820 C.3   801  SAM801      0.3185
     18  N9        24.6920   90.2300    7.1320 N.pl3 801  SAM801     -0.1439
     19  C8        25.7030   89.3180    7.1600 C.3   801  SAM801      0.3377
     20  N7        25.8190   88.8120    8.4120 N.2   801  SAM801     -0.2095
     21  C5        24.9090   89.4360    9.1780 C.2   801  SAM801      0.2526
     22  C6        24.5690   89.3270   10.5120 C.2   801  SAM801      0.4393
     23  N6        25.2660   88.5270   11.3510 N.pl3 801  SAM801      0.2180
     24  N1        23.5430   90.1280   10.9670 N.2   801  SAM801      0.0021
     25  C2        22.8160   90.9580   10.1290 C.3   801  SAM801      0.5254
     26  N3        23.1560   91.0560    8.8080 N.2   801  SAM801     -0.0055
     27  C4        24.1770   90.3030    8.3600 C.2   801  SAM801      0.3518
@<TRIPOS>BOND
     1     5     3   ar
     2     4     3   ar
     3     3     2    1
     4     9     8    1
     5     2     6    1
     6     2     1    1
     7     7     6    1
     8     7     8    1
     9     8    10    1
    10    10    11    1
    11    11    13    1
    12    11    12    1
    13    14    13    1
    14    13    15    1
    15    12    17    1
    16    15    17    1
    17    15    16    1
    18    17    18    1
    19    18    19    1
    20    18    27    1
    21    19    20    1
    22    27    26    2
    23    27    21    1
    24    20    21    2
    25    26    25    1
    26    21    22    1
    27    25    24    1
    28    22    24    2
    29    22    23    1
