@<TRIPOS>MOLECULE
1rje_SAH_A_1.pdb
 26 28 0 0 0
SMALL
GASTEIGER

@<TRIPOS>ATOM
      1  N         20.5260   90.4940    0.6820 N.3   2001  SAH2001    -0.1208
      2  CA        21.0770   91.5770   -0.1270 C.3   2001  SAH2001     0.1952
      3  CB        22.5300   91.8590    0.2450 C.3   2001  SAH2001     0.0422
      4  CG        23.4190   90.6270    0.3740 C.3   2001  SAH2001     0.0597
      5  SD        25.1200   91.0750    0.8190 S.3   2001  SAH2001    -0.1375
      6  C         20.9660   91.2490   -1.6090 C.2   2001  SAH2001     0.3819
      7  O         20.8260   90.0860   -1.9770 O.co2 2001  SAH2001    -0.2441
      8  OXT       21.0070   92.1380   -2.4590 O.co2 2001  SAH2001    -0.2441
      9  C5'       25.0430   90.2490    2.4310 C.3   2001  SAH2001     0.0899
     10  C4'       24.2850   91.0500    3.4820 C.3   2001  SAH2001     0.1630
     11  O4'       24.0720   90.2530    4.6340 O.3   2001  SAH2001    -0.3153
     12  C3'       25.0460   92.2950    3.9290 C.3   2001  SAH2001     0.2168
     13  O3'       24.2480   93.4440    3.7630 O.3   2001  SAH2001    -0.2175
     14  C2'       25.3480   92.0580    5.3940 C.3   2001  SAH2001     0.2569
     15  O2'       25.2460   93.2340    6.1650 O.3   2001  SAH2001    -0.2130
     16  C1'       24.3030   91.0320    5.7910 C.3   2001  SAH2001     0.3185
     17  N9        24.7470   90.2270    6.9420 N.pl3 2001  SAH2001    -0.1439
     18  C8        25.7040   89.2460    6.9660 C.3   2001  SAH2001     0.3377
     19  N7        25.7920   88.7700    8.2300 N.2   2001  SAH2001    -0.2095
     20  C5        24.9060   89.4320    9.0080 C.2   2001  SAH2001     0.2526
     21  C6        24.5830   89.3490   10.3590 C.2   2001  SAH2001     0.4393
     22  N6        25.2050   88.4760   11.1460 N.pl3 2001  SAH2001     0.2180
     23  N1        23.6100   90.1850   10.8780 N.2   2001  SAH2001     0.0021
     24  C2        22.9570   91.0940   10.0660 C.3   2001  SAH2001     0.5254
     25  N3        23.2880   91.1680    8.7270 N.2   2001  SAH2001    -0.0055
     26  C4        24.2430   90.3530    8.2090 C.2   2001  SAH2001     0.3518
@<TRIPOS>BOND
     1     8     6   ar
     2     7     6   ar
     3     6     2    1
     4     2     3    1
     5     2     1    1
     6     3     4    1
     7     4     5    1
     8     5     9    1
     9     9    10    1
    10    10    12    1
    11    10    11    1
    12    13    12    1
    13    12    14    1
    14    11    16    1
    15    14    16    1
    16    14    15    1
    17    16    17    1
    18    17    18    1
    19    17    26    1
    20    18    19    1
    21    26    25    2
    22    26    20    1
    23    19    20    2
    24    25    24    1
    25    20    21    1
    26    24    23    1
    27    21    23    2
    28    21    22    1
