@<TRIPOS>MOLECULE
1rjg_SAH_A_1.pdb
 26 28 0 0 0
SMALL
GASTEIGER

@<TRIPOS>ATOM
      1  N         18.4610   39.0210   33.1980 N.3   335  SAH335     -0.1208
      2  CA        18.7550   39.6700   34.4680 C.3   335  SAH335      0.1952
      3  CB        17.9140   40.9300   34.6350 C.3   335  SAH335      0.0422
      4  CG        16.4140   40.7430   34.4300 C.3   335  SAH335      0.0597
      5  SD        15.5420   42.3250   34.2750 S.3   335  SAH335     -0.1375
      6  C         18.5410   38.7310   35.6500 C.2   335  SAH335      0.3819
      7  O         17.7510   37.7900   35.5880 O.co2 335  SAH335     -0.2441
      8  OXT       19.1620   38.8890   36.7010 O.co2 335  SAH335     -0.2441
      9  C5'       15.8200   42.4870   32.4860 C.3   335  SAH335      0.0899
     10  C4'       16.9120   43.4850   32.1070 C.3   335  SAH335      0.1630
     11  O4'       16.8730   43.7440   30.7150 O.3   335  SAH335     -0.3153
     12  C3'       16.7830   44.8360   32.8060 C.3   335  SAH335      0.2168
     13  O3'       17.8720   45.0390   33.6780 O.3   335  SAH335     -0.2175
     14  C2'       16.7720   45.8650   31.6930 C.3   335  SAH335      0.2569
     15  O2'       17.5980   46.9700   31.9770 O.3   335  SAH335     -0.2130
     16  C1'       17.2650   45.0830   30.4850 C.3   335  SAH335      0.3185
     17  N9        16.7260   45.6220   29.2220 N.pl3 335  SAH335     -0.1439
     18  C8        15.4140   45.6670   28.8250 C.3   335  SAH335      0.3377
     19  N7        15.3610   46.2420   27.6010 N.2   335  SAH335     -0.2095
     20  C5        16.6150   46.5630   27.2130 C.2   335  SAH335      0.2526
     21  C6        17.1240   47.1620   26.0640 C.2   335  SAH335      0.4393
     22  N6        16.3060   47.5380   25.0860 N.pl3 335  SAH335      0.2180
     23  N1        18.4870   47.3690   25.9490 N.2   335  SAH335      0.0021
     24  C2        19.3400   46.9780   26.9650 C.3   335  SAH335      0.5254
     25  N3        18.8230   46.3840   28.1020 N.2   335  SAH335     -0.0055
     26  C4        17.4850   46.1790   28.2250 C.2   335  SAH335      0.3518
@<TRIPOS>BOND
     1    22    21    1
     2    23    21    2
     3    23    24    1
     4    21    20    1
     5    24    25    1
     6    20    19    2
     7    20    26    1
     8    19    18    1
     9    25    26    2
    10    26    17    1
    11    18    17    1
    12    17    16    1
    13    16    11    1
    14    16    14    1
    15    11    10    1
    16    14    15    1
    17    14    12    1
    18    10     9    1
    19    10    12    1
    20     9     5    1
    21    12    13    1
    22     1     2    1
    23     5     4    1
    24     4     3    1
    25     2     3    1
    26     2     6    1
    27     7     6   ar
    28     6     8   ar
