@<TRIPOS>MOLECULE
1rjk_VDZ_A_1.pdb
 30 32 0 0 0
SMALL
GASTEIGER

@<TRIPOS>ATOM
      1  O1        60.7500    4.4650    2.3210 O.3   500  VDZ500     -0.2182
      2  C1        60.3420    5.6240    1.5500 C.3   500  VDZ500      0.1767
      3  C2        60.7740    6.9480    2.0310 C.2   500  VDZ500      0.0160
      4  C28       61.4370    7.0540    3.1640 C.2   500  VDZ500     -0.0041
      5  C3        60.5680    8.2070    1.2310 C.3   500  VDZ500      0.1767
      6  O2        59.0680    8.2300    1.2610 O.3   500  VDZ500     -0.2182
      7  C4        60.9350    8.1270   -0.2230 C.3   500  VDZ500      0.0593
      8  C10       60.9120    5.5430    0.1050 C.3   500  VDZ500      0.0593
      9  C5        60.7380    6.7730   -0.8220 C.2   500  VDZ500     -0.0385
     10  C6        60.3730    6.8190   -2.1860 C.2   500  VDZ500     -0.0090
     11  C7        60.0870    5.5890   -2.9850 C.2   500  VDZ500     -0.0091
     12  C8        60.4170    5.4320   -4.2500 C.2   500  VDZ500     -0.0446
     13  C9        61.2090    6.4650   -5.0040 C.3   500  VDZ500      0.0220
     14  C11       62.5240    5.7880   -5.4630 C.3   500  VDZ500      0.0044
     15  C14       60.0790    4.1080   -4.9030 C.3   500  VDZ500      0.0183
     16  C13       61.4720    3.4610   -5.3350 C.3   500  VDZ500      0.0034
     17  C12       62.3850    4.4010   -6.1410 C.3   500  VDZ500      0.0006
     18  C18       62.2880    3.1140   -3.9840 C.3   500  VDZ500      0.0003
     19  C15       59.1980    3.0270   -4.3210 C.3   500  VDZ500      0.0040
     20  C16       59.6510    1.7530   -5.1050 C.3   500  VDZ500      0.0003
     21  C17       60.9460    2.1400   -5.9090 C.3   500  VDZ500      0.0003
     22  C20       61.8400    0.9140   -6.0080 C.3   500  VDZ500      0.0000
     23  C21       61.0040   -0.1080   -6.8150 C.3   500  VDZ500      0.0000
     24  C22       63.2710    1.1470   -6.5570 C.3   500  VDZ500      0.0001
     25  C23       64.0700   -0.1510   -6.5920 C.3   500  VDZ500      0.0025
     26  C24       65.5740    0.0140   -6.8040 C.3   500  VDZ500      0.0304
     27  C25       66.3780   -1.3180   -6.6720 C.3   500  VDZ500      0.1268
     28  C26       67.6920   -1.0490   -7.3470 C.3   500  VDZ500      0.0329
     29  C27       66.5370   -1.8900   -5.2340 C.3   500  VDZ500      0.0329
     30  O3        65.7230   -2.3130   -7.4020 O.3   500  VDZ500     -0.2257
@<TRIPOS>BOND
     1    30    27    1
     2    28    27    1
     3    23    22    1
     4    26    27    1
     5    26    25    1
     6    27    29    1
     7    25    24    1
     8    24    22    1
     9    17    14    1
    10    17    16    1
    11    22    21    1
    12    21    16    1
    13    21    20    1
    14    14    13    1
    15    16    15    1
    16    16    18    1
    17    20    19    1
    18    13    12    1
    19    15    19    1
    20    15    12    1
    21    12    11    2
    22    11    10    1
    23    10     9    2
    24     9     7    1
    25     9     8    1
    26     7     5    1
    27     8     2    1
    28     5     6    1
    29     5     3    1
    30     2     3    1
    31     2     1    1
    32     3     4    2
