@<TRIPOS>MOLECULE
1rjl_III_D_1.pdb
 26 25 0 0 0
SMALL
GASTEIGER

@<TRIPOS>ATOM
      1  N         96.3940   12.9470   51.1090 N.3     1  UNK1       -0.1231
      2  CA        96.2280   12.3310   49.7610 C.3     1  UNK1        0.1694
      3  C         94.9660   12.8420   49.0750 C.2     1  UNK1        0.2592
      4  O         93.8860   12.8550   49.6660 O.2     1  UNK1       -0.2718
      5  CB        96.1730   10.8140   49.8870 C.3     1  UNK1        0.0304
      6  N         95.1120   13.2650   47.8240 N.am    2  UNK2       -0.1966
      7  CA        93.9890   13.7760   47.0470 C.3     2  UNK2        0.1728
      8  C         94.0420   13.2220   45.6270 C.2     2  UNK2        0.2616
      9  O         95.0930   13.2210   44.9880 O.2     2  UNK2       -0.2715
     10  CB        94.0200   15.3020   47.0180 C.3     2  UNK2        0.0334
     11  N         92.9010   12.7440   45.1430 N.am    3  UNK3       -0.1963
     12  CA        92.8100   12.1840   43.8000 C.3     3  UNK3        0.1728
     13  C         91.5980   12.7570   43.0710 C.2     3  UNK3        0.2616
     14  O         90.4860   12.7410   43.5930 O.2     3  UNK3       -0.2715
     15  CB        92.7080   10.6630   43.8740 C.3     3  UNK3        0.0334
     16  N         91.8210   13.2640   41.8630 N.am    4  UNK4       -0.1963
     17  CA        90.7440   13.8440   41.0680 C.3     4  UNK4        0.1728
     18  C         90.7050   13.2410   39.6670 C.2     4  UNK4        0.2617
     19  O         91.7470   13.0300   39.0460 O.2     4  UNK4       -0.2715
     20  CB        90.9200   15.3570   40.9840 C.3     4  UNK4        0.0334
     21  N         89.4990   12.9660   39.1750 N.am    5  UNK5       -0.1942
     22  CA        89.3210   12.3890   37.8470 C.3     5  UNK5        0.1979
     23  C         87.8830   12.5450   37.3610 C.2     5  UNK5        0.3842
     24  O         87.6820   13.1570   36.2900 O.co2   5  UNK5       -0.2437
     25  CB        89.7070   10.9170   37.8640 C.3     5  UNK5        0.0356
     26  OXT       86.9750   12.0470   38.0560 O.co2   5  UNK5       -0.2437
@<TRIPOS>BOND
     1    24    23   ar
     2    23    22    1
     3    23    26   ar
     4    22    25    1
     5    22    21    1
     6    19    18    2
     7    21    18   am
     8    18    17    1
     9    20    17    1
    10    17    16    1
    11    16    13   am
    12    13    14    2
    13    13    12    1
    14    12    15    1
    15    12    11    1
    16     9     8    2
    17    11     8   am
    18     8     7    1
    19    10     7    1
    20     7     6    1
    21     6     3   am
    22     3     4    2
    23     3     2    1
    24     2     5    1
    25     2     1    1
