@<TRIPOS>MOLECULE
1rjm_EP1_A_1.pdb
 16 16 0 0 0
SMALL
GASTEIGER

@<TRIPOS>ATOM
      1  O2S       12.8890    5.9910  117.8290 O.3   315  EP1315     -0.3075
      2  S         13.2660    6.5480  116.5210 S.3   315  EP1315     -0.1960
      3  O3S       12.0850    7.1350  115.8510 O.3   315  EP1315     -0.3075
      4  O1S       14.2970    7.5820  116.7490 O.3   315  EP1315     -0.3075
      5  C11       13.8920    5.3280  115.5950 C.3   315  EP1315      0.1070
      6  C10       14.2730    5.7840  114.1940 C.3   315  EP1315      0.0433
      7  C9        13.7510    4.7440  113.1980 C.3   315  EP1315      0.0974
      8  N1        14.4320    4.8540  111.9040 N.pl3 315  EP1315     -0.2828
      9  C2        13.5500    4.8350  110.7450 C.2   315  EP1315      0.0818
     10  C3        14.2390    4.9390  109.3870 C.2   315  EP1315      0.0818
     11  N4        15.7410    5.0610  109.2820 N.pl3 315  EP1315     -0.2801
     12  C5        16.5530    5.0580  110.5320 C.2   315  EP1315      0.0818
     13  C6        15.8910    4.9560  111.9030 C.2   315  EP1315      0.0818
     14  C7        16.0830    6.3360  108.5850 C.3   315  EP1315      0.1312
     15  C8        15.4090    6.5040  107.2350 C.3   315  EP1315      0.2038
     16  O8        15.7330    5.3990  106.4280 O.3   315  EP1315     -0.2185
@<TRIPOS>BOND
     1    16    15    1
     2    15    14    1
     3    14    11    1
     4    11    10    1
     5    11    12    1
     6    10     9    2
     7    12    13    2
     8     9     8    1
     9    13     8    1
    10     8     7    1
    11     7     6    1
    12     6     5    1
    13     5     2    1
    14     3     2    1
    15     2     4    1
    16     2     1    1
