@<TRIPOS>MOLECULE
1rjn_COA_B_1.pdb
 39 41 0 0 0
SMALL
GASTEIGER

@<TRIPOS>ATOM
      1  N1A       64.8990    3.2750    8.7680 N.2   1210  COA1210     0.0021
      2  C2A       63.8550    3.2070    7.8270 C.3   1210  COA1210     0.5254
      3  N3A       64.0140    2.8940    6.4730 N.2   1210  COA1210    -0.0055
      4  C4A       65.3110    2.6340    6.0600 C.2   1210  COA1210     0.3518
      5  C5A       66.4530    2.6860    6.9650 C.2   1210  COA1210     0.2526
      6  C6A       66.2030    3.0280    8.3650 C.2   1210  COA1210     0.4393
      7  N6A       67.3080    3.0790    9.2340 N.pl3 1210  COA1210     0.2180
      8  N7A       67.6650    2.3930    6.3150 N.2   1210  COA1210    -0.2095
      9  C8A       67.3400    2.1520    5.0510 C.3   1210  COA1210     0.3377
     10  N9A       65.9510    2.2900    4.8530 N.pl3 1210  COA1210    -0.1439
     11  C1B       65.2530    2.1000    3.5420 C.3   1210  COA1210     0.3185
     12  C2B       64.8750    3.4690    2.9860 C.3   1210  COA1210     0.2543
     13  O2B       63.7160    3.9990    3.6770 O.3   1210  COA1210    -0.2131
     14  C3B       64.6430    3.1930    1.5270 C.3   1210  COA1210     0.1928
     15  O3B       63.3070    2.6920    1.2940 O.3   1210  COA1210    -0.2673
     16  P3B       62.4720    2.9570   -0.1190 P.3   1210  COA1210     0.5327
     17  O7A       61.4800    1.7610   -0.1990 O.3   1210  COA1210    -0.1145
     18  O8A       63.5160    3.0020   -1.2620 O.2   1210  COA1210    -0.2224
     19  O9A       61.8560    4.3720    0.0080 O.3   1210  COA1210    -0.1145
     20  C4B       65.7760    2.1860    1.1610 C.3   1210  COA1210     0.1795
     21  O4B       66.1050    1.6070    2.3880 O.3   1210  COA1210    -0.3136
     22  C5B       67.1000    2.7840    0.5440 C.3   1210  COA1210     0.1812
     23  O5B       67.7610    3.9350    0.1410 O.3   1210  COA1210    -0.3112
     24  P1A       68.8550    5.1530    0.4480 P.3   1210  COA1210     0.2189
     25  O1A       68.4590    5.8830    1.6860 O.3   1210  COA1210    -0.4371
     26  O2A       68.8790    6.0560   -0.7610 O.2   1210  COA1210    -0.5170
     27  O3A       70.1640    4.4300    0.7880 O.3   1210  COA1210    -0.2703
     28  P2A       71.6760    4.2340    0.2090 P.3   1210  COA1210     0.2188
     29  O4A       71.7100    3.3540   -0.9500 O.2   1210  COA1210    -0.5170
     30  O5A       72.2170    5.5830   -0.1570 O.3   1210  COA1210    -0.4371
     31  O6A       72.4680    3.7450    1.5520 O.3   1210  COA1210    -0.3138
     32  CBP       72.0620    4.4510    3.9950 C.3   1210  COA1210     0.0632
     33  CCP       71.8340    3.4070    2.7850 C.3   1210  COA1210     0.1519
     34  CDP       72.6650    3.6880    5.2410 C.3   1210  COA1210     0.0055
     35  CEP       73.0010    5.4780    3.3800 C.3   1210  COA1210     0.0055
     36  CAP       70.6110    5.1230    4.5840 C.3   1210  COA1210     0.2182
     37  OAP       69.5630    4.0830    4.6440 O.3   1210  COA1210    -0.2146
     38  C9P       70.6840    5.7420    6.0440 C.2   1210  COA1210     0.2400
     39  O9P       69.8080    5.6250    6.9670 O.2   1210  COA1210    -0.2855
@<TRIPOS>BOND
     1    18    16    2
     2    29    28    2
     3    26    24    2
     4    17    16    1
     5    30    28    1
     6    16    19    1
     7    16    15    1
     8    23    24    1
     9    23    22    1
    10    28    27    1
    11    28    31    1
    12    24    27    1
    13    24    25    1
    14    22    20    1
    15    20    14    1
    16    20    21    1
    17    15    14    1
    18    14    12    1
    19    31    33    1
    20    21    11    1
    21    33    32    1
    22    12    11    1
    23    12    13    1
    24    35    32    1
    25    11    10    1
    26    32    36    1
    27    32    34    1
    28    36    37    1
    29    36    38    1
    30    10     9    1
    31    10     4    1
    32     9     8    1
    33    38    39    2
    34     4     3    2
    35     4     5    1
    36     8     5    2
    37     3     2    1
    38     5     6    1
    39     2     1    1
    40     6     1    2
    41     6     7    1
