@<TRIPOS>MOLECULE
1rjn_EP1_B_1.pdb
 16 16 0 0 0
SMALL
GASTEIGER

@<TRIPOS>ATOM
      1  O2S       92.7490    0.6660   25.8250 O.3   1211  EP11211    -0.3075
      2  S         92.3720    0.0140   24.5570 S.3   1211  EP11211    -0.1960
      3  O3S       92.6540   -1.4340   24.6560 O.3   1211  EP11211    -0.3075
      4  O1S       90.9340    0.2270   24.3120 O.3   1211  EP11211    -0.3075
      5  C11       93.2760    0.6750   23.3140 C.3   1211  EP11211     0.1070
      6  C10       92.9550    0.0020   21.9770 C.3   1211  EP11211     0.0433
      7  C9        94.1510   -0.7870   21.4220 C.3   1211  EP11211     0.0974
      8  N1        94.3670   -0.3630   20.0330 N.pl3 1211  EP11211    -0.2828
      9  C2        93.4820   -0.9460   19.0150 C.2   1211  EP11211     0.0818
     10  C3        93.7300   -0.4920   17.5720 C.2   1211  EP11211     0.0818
     11  N4        94.8230    0.4890   17.2530 N.pl3 1211  EP11211    -0.2801
     12  C5        95.6750    1.0310   18.3570 C.2   1211  EP11211     0.0818
     13  C6        95.4490    0.5960   19.8110 C.2   1211  EP11211     0.0818
     14  C7        94.2360    1.6360   16.5030 C.3   1211  EP11211     0.1312
     15  C8        94.4280    1.4820   14.9880 C.3   1211  EP11211     0.2038
     16  O8        95.7960    1.6370   14.6510 O.3   1211  EP11211    -0.2185
@<TRIPOS>BOND
     1    16    15    1
     2    15    14    1
     3    14    11    1
     4    11    10    1
     5    11    12    1
     6    10     9    2
     7    12    13    2
     8     9     8    1
     9    13     8    1
    10     8     7    1
    11     7     6    1
    12     6     5    1
    13     5     2    1
    14     4     2    1
    15     2     3    1
    16     2     1    1
