@<TRIPOS>MOLECULE
1rk1_FUL_A_1.pdb
 10 10 0 0 0
SMALL
GASTEIGER

@<TRIPOS>ATOM
      1  C1        60.2770   55.0960   19.6460 C.3   901  FUL901      0.1776
      2  C2        59.2000   54.8450   18.5820 C.3   901  FUL901      0.2141
      3  O2        58.8270   53.4740   18.5780 O.3   901  FUL901     -0.2176
      4  C3        57.9810   55.7100   18.8730 C.3   901  FUL901      0.2172
      5  O3        56.9450   55.3940   17.9610 O.3   901  FUL901     -0.2175
      6  C4        58.3600   57.1820   18.7350 C.3   901  FUL901      0.2116
      7  O4        58.4510   57.5220   17.3580 O.3   901  FUL901     -0.2177
      8  C5        59.6960   57.4760   19.4360 C.3   901  FUL901      0.1483
      9  C6        60.8450   57.7830   18.4910 C.3   901  FUL901      0.0349
     10  O5        60.0930   56.3650   20.2920 O.3   901  FUL901     -0.3508
@<TRIPOS>BOND
     1     7     6    1
     2     5     4    1
     3     9     8    1
     4     3     2    1
     5     2     4    1
     6     2     1    1
     7     6     4    1
     8     6     8    1
     9     8    10    1
    10     1    10    1
