@<TRIPOS>MOLECULE
1rk2_RIB_A_1.pdb
 10 10 0 0 0
SMALL
GASTEIGER

@<TRIPOS>ATOM
      1  O5'       15.6580    2.9270   79.7810 O.3   311  RIB311     -0.2176
      2  C5'       15.7960    3.7690   80.9320 C.3   311  RIB311      0.2142
      3  C4'       14.4120    4.2930   81.3570 C.3   311  RIB311      0.1837
      4  O4'       13.5640    3.1900   81.6610 O.3   311  RIB311     -0.3236
      5  C3'       14.4290    5.1870   82.6110 C.3   311  RIB311      0.2169
      6  O3'       14.5080    6.5740   82.2760 O.3   311  RIB311     -0.2175
      7  C2'       13.1360    4.8300   83.3630 C.3   311  RIB311      0.2433
      8  O2'       12.2200    5.9200   83.3100 O.3   311  RIB311     -0.2148
      9  C1'       12.6010    3.5800   82.6290 C.3   311  RIB311      0.3024
     10  O1'       11.3890    3.8580   81.9700 O.3   311  RIB311     -0.1869
@<TRIPOS>BOND
     1     1     2    1
     2     2     3    1
     3     3     4    1
     4     3     5    1
     5     4     9    1
     6    10     9    1
     7     6     5    1
     8     5     7    1
     9     9     7    1
    10     8     7    1
