@<TRIPOS>MOLECULE
1rk2_ADP_A_1.pdb
 27 29 0 0 0
SMALL
GASTEIGER

@<TRIPOS>ATOM
      1  PB        20.4080   -0.9010   77.2660 P.3   310  ADP310      0.5373
      2  O1B       20.8110    0.4360   77.8070 O.3   310  ADP310     -0.1143
      3  O2B       20.5090   -2.1200   78.3390 O.3   310  ADP310     -0.1143
      4  O3B       19.0050   -0.8380   76.7380 O.2   310  ADP310     -0.2221
      5  PA        22.8960   -1.8460   76.1580 P.3   310  ADP310      0.2231
      6  O1A       23.3430   -2.0700   77.5510 O.3   310  ADP310     -0.4370
      7  O2A       22.9430   -3.0960   75.3810 O.2   310  ADP310     -0.5169
      8  O3A       21.4230   -1.2780   76.1620 O.3   310  ADP310     -0.2261
      9  O5'       23.7250   -0.6730   75.4720 O.3   310  ADP310     -0.3111
     10  C5'       23.1160    0.1730   74.4940 C.3   310  ADP310      0.1813
     11  C4'       24.2090    0.9420   73.7470 C.3   310  ADP310      0.1821
     12  O4'       24.7880    2.0170   74.5360 O.3   310  ADP310     -0.3135
     13  C3'       25.4150    0.1260   73.2600 C.3   310  ADP310      0.2184
     14  O3'       25.2110   -0.4850   71.9860 O.3   310  ADP310     -0.2174
     15  C2'       26.5350    1.1410   73.2320 C.3   310  ADP310      0.2570
     16  O2'       26.5440    1.9060   72.0210 O.3   310  ADP310     -0.2130
     17  C1'       26.2410    1.9530   74.4590 C.3   310  ADP310      0.3186
     18  N9        26.9330    1.3940   75.6980 N.pl3 310  ADP310     -0.1439
     19  C8        26.4000    0.5900   76.6310 C.3   310  ADP310      0.3377
     20  N7        27.3180    0.3210   77.5640 N.2   310  ADP310     -0.2095
     21  C5        28.4240    0.9380   77.2480 C.2   310  ADP310      0.2526
     22  C6        29.7000    1.0470   77.8130 C.2   310  ADP310      0.4393
     23  N6        29.9760    0.4100   78.9580 N.pl3 310  ADP310      0.2180
     24  N1        30.6660    1.8060   77.1970 N.2   310  ADP310      0.0021
     25  C2        30.4260    2.4690   76.0330 C.3   310  ADP310      0.5254
     26  N3        29.1960    2.3720   75.4810 N.2   310  ADP310     -0.0055
     27  C4        28.1840    1.6320   76.0420 C.2   310  ADP310      0.3518
@<TRIPOS>BOND
     1    14    13    1
     2    16    15    1
     3    15    13    1
     4    15    17    1
     5    13    11    1
     6    11    10    1
     7    11    12    1
     8    17    12    1
     9    17    18    1
    10    10     9    1
    11     7     5    2
    12     9     5    1
    13    26    25    1
    14    26    27    2
    15    18    27    1
    16    18    19    1
    17    25    24    1
    18    27    21    1
    19     5     8    1
    20     5     6    1
    21     8     1    1
    22    19    20    1
    23     4     1    2
    24    24    22    2
    25    21    20    2
    26    21    22    1
    27     1     2    1
    28     1     3    1
    29    22    23    1
