@<TRIPOS>MOLECULE
1rk3_VDX_A_1.pdb
 30 32 0 0 0
SMALL
GASTEIGER

@<TRIPOS>ATOM
      1  O2        58.8620    8.2470    1.1940 O.3   500  VDX500     -0.2227
      2  O3        65.8380   -2.5630   -7.4170 O.3   500  VDX500     -0.2257
      3  C1        60.3880    5.7130    1.6510 C.3   500  VDX500      0.1765
      4  C2        60.7620    7.0780    2.3160 C.3   500  VDX500      0.0707
      5  C3        60.2910    8.3050    1.4000 C.3   500  VDX500      0.1592
      6  C4        61.0320    8.2370    0.0000 C.3   500  VDX500      0.0591
      7  C5        60.8430    6.8970   -0.7000 C.2   500  VDX500     -0.0213
      8  C6        60.6360    6.7260   -2.0670 C.2   500  VDX500     -0.0051
      9  C7        60.4190    5.4900   -2.8830 C.2   500  VDX500     -0.0088
     10  C8        60.4810    5.4120   -4.1780 C.2   500  VDX500     -0.0446
     11  C9        60.9120    6.6570   -5.1020 C.3   500  VDX500      0.0220
     12  C10       60.9870    5.6750    0.2240 C.2   500  VDX500      0.0039
     13  C11       62.2950    6.3060   -5.8690 C.3   500  VDX500      0.0044
     14  C12       62.1840    4.8180   -6.5180 C.3   500  VDX500      0.0006
     15  C13       61.6540    3.6030   -5.5550 C.3   500  VDX500      0.0034
     16  C14       60.2490    4.1270   -4.9500 C.3   500  VDX500      0.0183
     17  C15       59.6800    2.7500   -4.1990 C.3   500  VDX500      0.0040
     18  C16       60.2880    1.5870   -5.0770 C.3   500  VDX500      0.0003
     19  C17       61.1350    2.3010   -6.2110 C.3   500  VDX500      0.0003
     20  C18       62.8850    3.4300   -4.4240 C.3   500  VDX500      0.0003
     21  C19       61.7210    4.5890   -0.1930 C.2   500  VDX500     -0.0024
     22  C20       62.3040    1.5010   -6.9660 C.3   500  VDX500      0.0000
     23  C21       61.4970    0.6150   -8.0540 C.3   500  VDX500      0.0000
     24  C22       63.1090    0.4390   -6.1310 C.3   500  VDX500      0.0001
     25  C23       64.4720    0.0960   -6.7340 C.3   500  VDX500      0.0025
     26  C24       65.3490   -0.7430   -5.9490 C.3   500  VDX500      0.0304
     27  C25       66.4250   -1.5500   -6.6350 C.3   500  VDX500      0.1268
     28  C26       67.2700   -0.6230   -7.4810 C.3   500  VDX500      0.0329
     29  C27       67.4000   -2.2490   -5.6110 C.3   500  VDX500      0.0329
     30  O1        60.9450    4.6050    2.4230 O.3   500  VDX500     -0.2182
@<TRIPOS>BOND
     1    23    22    1
     2    28    27    1
     3     2    27    1
     4    22    19    1
     5    22    24    1
     6    25    24    1
     7    25    26    1
     8    27    26    1
     9    27    29    1
    10    14    13    1
    11    14    15    1
    12    19    15    1
    13    19    18    1
    14    13    11    1
    15    15    16    1
    16    15    20    1
    17    11    10    1
    18    18    17    1
    19    16    17    1
    20    16    10    1
    21    10     9    2
    22     9     8    1
    23     8     7    2
    24     7     6    1
    25     7    12    1
    26    21    12    2
    27     6     5    1
    28    12     3    1
    29     1     5    1
    30     5     4    1
    31     3     4    1
    32     3    30    1
