@<TRIPOS>MOLECULE
1rkd_RIB_A_1.pdb
 10 10 0 0 0
SMALL
GASTEIGER

@<TRIPOS>ATOM
      1  O5'      -22.6380   14.7210   43.8220 O.3   311  RIB311     -0.2176
      2  C5'      -21.8430   14.2850   44.9440 C.3   311  RIB311      0.2142
      3  C4'      -20.4280   14.0570   44.3410 C.3   311  RIB311      0.1837
      4  O4'      -19.9480   15.2740   43.7680 O.3   311  RIB311     -0.3236
      5  C3'      -19.3960   13.6130   45.3810 C.3   311  RIB311      0.2169
      6  O3'      -19.4410   12.1840   45.5000 O.3   311  RIB311     -0.2175
      7  C2'      -18.0890   14.2220   44.8740 C.3   311  RIB311      0.2433
      8  O2'      -17.1990   13.2000   44.4310 O.3   311  RIB311     -0.2148
      9  C1'      -18.5120   15.1230   43.6960 C.3   311  RIB311      0.3024
     10  O1'      -18.2410   14.4140   42.5290 O.3   311  RIB311     -0.1869
@<TRIPOS>BOND
     1    10     9    1
     2     9     4    1
     3     9     7    1
     4     4     3    1
     5     1     2    1
     6     3     2    1
     7     3     5    1
     8     8     7    1
     9     7     5    1
    10     5     6    1
