@<TRIPOS>MOLECULE
1rkd_ADP_A_1.pdb
 27 29 0 0 0
SMALL
GASTEIGER

@<TRIPOS>ATOM
      1  PB       -28.7060   18.8450   43.4980 P.3   310  ADP310      0.5373
      2  O1B      -28.3530   18.1620   44.7690 O.3   310  ADP310     -0.1143
      3  O2B      -28.2680   20.2660   43.5470 O.3   310  ADP310     -0.1143
      4  O3B      -28.2690   18.0380   42.2030 O.2   310  ADP310     -0.2221
      5  PA       -31.4510   19.5400   44.1550 P.3   310  ADP310      0.2231
      6  O1A      -30.9820   20.3360   45.3060 O.3   310  ADP310     -0.4370
      7  O2A      -32.3060   20.4570   43.3080 O.2   310  ADP310     -0.5169
      8  O3A      -30.2990   18.8330   43.2910 O.3   310  ADP310     -0.2261
      9  O5'      -32.2450   18.2300   44.6050 O.3   310  ADP310     -0.3111
     10  C5'      -32.3730   17.1050   43.6940 C.3   310  ADP310      0.1813
     11  C4'      -33.4910   16.1800   44.1530 C.3   310  ADP310      0.1821
     12  O4'      -33.1650   15.7410   45.4930 O.3   310  ADP310     -0.3135
     13  C3'      -34.8600   16.8640   44.3190 C.3   310  ADP310      0.2184
     14  O3'      -35.5710   17.0320   43.0820 O.3   310  ADP310     -0.2174
     15  C2'      -35.5130   15.8830   45.3350 C.3   310  ADP310      0.2570
     16  O2'      -35.8320   14.6220   44.7290 O.3   310  ADP310     -0.2130
     17  C1'      -34.3010   15.6700   46.2920 C.3   310  ADP310      0.3186
     18  N9       -34.3450   16.6610   47.3390 N.pl3 310  ADP310     -0.1439
     19  C8       -33.5090   17.7160   47.5250 C.3   310  ADP310      0.3377
     20  N7       -33.5900   18.3320   48.6490 N.2   310  ADP310     -0.2095
     21  C5       -34.5450   17.6760   49.2800 C.2   310  ADP310      0.2526
     22  C6       -35.0590   17.9150   50.5250 C.2   310  ADP310      0.4393
     23  N6       -34.6360   18.8670   51.3600 N.pl3 310  ADP310      0.2180
     24  N1       -36.0520   17.0960   50.9300 N.2   310  ADP310      0.0021
     25  C2       -36.4800   16.0910   50.0870 C.3   310  ADP310      0.5254
     26  N3       -36.0670   15.8020   48.8780 N.2   310  ADP310     -0.0055
     27  C4       -35.0730   16.6460   48.5260 C.2   310  ADP310      0.3518
@<TRIPOS>BOND
     1     4     1    2
     2    14    13    1
     3     8     1    1
     4     8     5    1
     5     7     5    2
     6     1     3    1
     7     1     2    1
     8    10    11    1
     9    10     9    1
    10    11    13    1
    11    11    12    1
    12     5     9    1
    13     5     6    1
    14    13    15    1
    15    16    15    1
    16    15    17    1
    17    12    17    1
    18    17    18    1
    19    18    19    1
    20    18    27    1
    21    19    20    1
    22    27    26    2
    23    27    21    1
    24    20    21    2
    25    26    25    1
    26    21    22    1
    27    25    24    1
    28    22    24    2
    29    22    23    1
