@<TRIPOS>MOLECULE
1rkg_VD1_A_1.pdb
 25 27 0 0 0
SMALL
GASTEIGER

@<TRIPOS>ATOM
      1  O2        58.9370    8.1280    1.0830 O.3   500  VD1500     -0.2182
      2  C3        60.4370    8.0980    1.1750 C.3   500  VD1500      0.1767
      3  C2        60.6950    6.8690    2.0090 C.2   500  VD1500      0.0160
      4  C28       61.3590    7.0210    3.1370 C.2   500  VD1500     -0.0041
      5  C1        60.2640    5.5250    1.5640 C.3   500  VD1500      0.1767
      6  O1        60.7810    4.4000    2.3180 O.3   500  VD1500     -0.2182
      7  C4        60.9390    7.9940   -0.2290 C.3   500  VD1500      0.0593
      8  C5        60.7530    6.6390   -0.8050 C.2   500  VD1500     -0.0385
      9  C10       60.8570    5.4180    0.1380 C.3   500  VD1500      0.0593
     10  C6        60.4860    6.6620   -2.1890 C.2   500  VD1500     -0.0090
     11  C7        60.2840    5.4180   -2.9840 C.2   500  VD1500     -0.0091
     12  C8        60.4920    5.3120   -4.2960 C.2   500  VD1500     -0.0446
     13  C9        61.0010    6.4260   -5.1700 C.3   500  VD1500      0.0220
     14  C11       62.3600    5.9990   -5.7330 C.3   500  VD1500      0.0044
     15  C12       62.2970    4.6450   -6.4960 C.3   500  VD1500      0.0006
     16  C13       61.7270    3.5660   -5.5560 C.3   500  VD1500      0.0034
     17  C18       62.8120    3.3200   -4.3680 C.3   500  VD1500      0.0003
     18  C14       60.2880    3.9580   -4.9640 C.3   500  VD1500      0.0183
     19  C15       59.6650    2.7290   -4.3520 C.3   500  VD1500      0.0040
     20  C17       61.3830    2.1790   -6.1390 C.3   500  VD1500      0.0003
     21  C16       60.2690    1.5760   -5.2130 C.3   500  VD1500      0.0003
     22  C20       62.4970    1.2170   -6.5810 C.3   500  VD1500      0.0000
     23  C21       61.7490    0.1650   -7.4320 C.3   500  VD1500      0.0000
     24  C22       63.6310    1.8910   -7.4060 C.3   500  VD1500      0.0000
     25  C23       65.0260    1.6680   -6.8310 C.3   500  VD1500      0.0000
@<TRIPOS>BOND
     1    23    22    1
     2    24    25    1
     3    24    22    1
     4    22    20    1
     5    15    14    1
     6    15    16    1
     7    20    16    1
     8    20    21    1
     9    14    13    1
    10    16    18    1
    11    16    17    1
    12    21    19    1
    13    13    12    1
    14    18    19    1
    15    18    12    1
    16    12    11    2
    17    11    10    1
    18    10     8    2
    19     8     7    1
    20     8     9    1
    21     7     2    1
    22     9     5    1
    23     1     2    1
    24     2     3    1
    25     5     3    1
    26     5     6    1
    27     3     4    2
