@<TRIPOS>MOLECULE
1rkh_VD2_A_1.pdb
 30 32 0 0 0
SMALL
GASTEIGER

@<TRIPOS>ATOM
      1  O3        65.9920   -2.5040   -7.4360 O.3   500  VD2500     -0.2257
      2  C25       66.5170   -1.4030   -6.7450 C.3   500  VD2500      0.1268
      3  C27       67.3880   -1.9550   -5.5660 C.3   500  VD2500      0.0329
      4  C26       67.3460   -0.5120   -7.6460 C.3   500  VD2500      0.0329
      5  C24       65.4030   -0.6240   -6.1230 C.3   500  VD2500      0.0304
      6  C23       64.5510    0.2170   -6.9030 C.3   500  VD2500      0.0025
      7  C22       63.2540    0.5210   -6.1940 C.3   500  VD2500      0.0001
      8  C20       62.3580    1.5040   -7.0040 C.3   500  VD2500      0.0000
      9  C21       61.5340    0.6100   -8.0710 C.3   500  VD2500      0.0000
     10  C17       61.2150    2.2590   -6.1680 C.3   500  VD2500      0.0003
     11  C16       60.4430    1.5190   -4.9890 C.3   500  VD2500      0.0003
     12  C13       61.7540    3.5440   -5.5190 C.3   500  VD2500      0.0034
     13  C18       63.0270    3.4230   -4.4330 C.3   500  VD2500      0.0003
     14  C14       60.3290    4.0370   -4.9160 C.3   500  VD2500      0.0183
     15  C15       59.7080    2.6700   -4.2060 C.3   500  VD2500      0.0040
     16  C12       62.2260    4.7550   -6.4780 C.3   500  VD2500      0.0006
     17  C11       62.3570    6.1790   -5.7210 C.3   500  VD2500      0.0044
     18  C9        60.9400    6.5420   -5.1220 C.3   500  VD2500      0.0220
     19  C8        60.5620    5.3200   -4.1390 C.2   500  VD2500     -0.0446
     20  C7        60.4980    5.4050   -2.8520 C.2   500  VD2500     -0.0091
     21  C6        60.7190    6.6640   -2.0730 C.2   500  VD2500     -0.0090
     22  C5        60.8830    6.7930   -0.7030 C.2   500  VD2500     -0.0392
     23  C10       60.9420    5.5890    0.2500 C.3   500  VD2500      0.0550
     24  C4        61.0580    8.1440   -0.0270 C.3   500  VD2500      0.0550
     25  C3        60.2880    8.2370    1.3320 C.3   500  VD2500      0.1584
     26  O2        58.8690    8.1170    1.1080 O.3   500  VD2500     -0.2227
     27  C2        60.7730    7.0420    2.2810 C.3   500  VD2500      0.0615
     28  C28       62.1360    6.9470    2.9880 C.3   500  VD2500      0.0053
     29  C1        60.3310    5.6840    1.6790 C.3   500  VD2500      0.1584
     30  O1        60.8130    4.5940    2.5240 O.3   500  VD2500     -0.2227
@<TRIPOS>BOND
     1     9     8    1
     2     4     2    1
     3     1     2    1
     4     8     7    1
     5     8    10    1
     6     6     7    1
     7     6     5    1
     8     2     5    1
     9     2     3    1
    10    16    17    1
    11    16    12    1
    12    10    12    1
    13    10    11    1
    14    17    18    1
    15    12    14    1
    16    12    13    1
    17    18    19    1
    18    11    15    1
    19    14    15    1
    20    14    19    1
    21    19    20    2
    22    20    21    1
    23    21    22    2
    24    22    24    1
    25    22    23    1
    26    24    25    1
    27    23    29    1
    28    26    25    1
    29    25    27    1
    30    29    27    1
    31    29    30    1
    32    27    28    1
