@<TRIPOS>MOLECULE
1rkp_IBM_A_1.pdb
 16 17 0 0 0
SMALL
GASTEIGER

@<TRIPOS>ATOM
      1  N9        44.0280   15.0490   46.2360 N.2   201  IBM201     -0.2256
      2  C8        44.5430   16.0780   45.4870 C.3   201  IBM201      0.2523
      3  N7        44.5950   17.2190   46.1300 N.2   201  IBM201     -0.2364
      4  C5        44.0860   16.9180   47.3830 C.ar  201  IBM201      0.1681
      5  C4        43.7330   15.5880   47.4650 C.ar  201  IBM201      0.1667
      6  N3        43.2110   14.9420   48.5290 N.ar  201  IBM201     -0.2651
      7  C2        43.0140   15.7300   49.6310 C.ar  201  IBM201      0.3350
      8  N1        43.3590   17.0820   49.6440 N.ar  201  IBM201     -0.2454
      9  C6        43.8920   17.6790   48.5270 C.ar  201  IBM201      0.2846
     10  O6        44.1880   18.8690   48.5330 O.2   201  IBM201     -0.2651
     11  O2        42.5200   15.2330   50.6370 O.2   201  IBM201     -0.2461
     12  C10       43.1910   17.8570   50.8650 C.3   201  IBM201      0.1383
     13  C11       42.8880   13.5230   48.4980 C.3   201  IBM201      0.1119
     14  C12       44.1720   12.7070   48.6540 C.3   201  IBM201      0.0228
     15  C13       44.9850   13.1650   49.8660 C.3   201  IBM201      0.0020
     16  C14       43.8500   11.2220   48.7520 C.3   201  IBM201      0.0020
@<TRIPOS>BOND
     1     2     3    1
     2     2     1    1
     3     3     4    2
     4     1     5    2
     5     4     5   ar
     6     4     9   ar
     7     5     6   ar
     8    13     6    1
     9    13    14    1
    10     9    10    2
    11     9     8   ar
    12     6     7   ar
    13    14    16    1
    14    14    15    1
    15     7     8   ar
    16     7    11    2
    17     8    12    1
