@<TRIPOS>MOLECULE
1rks_RIB_A_1.pdb
 10 10 0 0 0
SMALL
GASTEIGER

@<TRIPOS>ATOM
      1  O5'      -22.5170   14.7440   43.0020 O.3   311  RIB311     -0.2176
      2  C5'      -21.8950   14.2570   44.1970 C.3   311  RIB311      0.2142
      3  C4'      -20.3980   14.0300   43.8290 C.3   311  RIB311      0.1837
      4  O4'      -19.9180   15.2450   43.1930 O.3   311  RIB311     -0.3236
      5  C3'      -19.4760   13.7630   45.0050 C.3   311  RIB311      0.2169
      6  O3'      -19.4760   12.3520   45.2910 O.3   311  RIB311     -0.2175
      7  C2'      -18.1530   14.3650   44.5560 C.3   311  RIB311      0.2433
      8  O2'      -17.1320   13.4140   44.2530 O.3   311  RIB311     -0.2148
      9  C1'      -18.5140   15.2220   43.3220 C.3   311  RIB311      0.3024
     10  O1'      -18.1910   14.6450   42.0770 O.3   311  RIB311     -0.1869
@<TRIPOS>BOND
     1    10     9    1
     2     1     2    1
     3     4     9    1
     4     4     3    1
     5     9     7    1
     6     3     2    1
     7     3     5    1
     8     8     7    1
     9     7     5    1
    10     5     6    1
