@<TRIPOS>MOLECULE
1rkw_PNT_A_1.pdb
 25 26 0 0 0
SMALL
GASTEIGER

@<TRIPOS>ATOM
      1  C1       -67.7810  -44.6000    1.5050 C.ar  225  PNT225      0.1386
      2  C2       -67.3030  -43.2690    1.6030 C.ar  225  PNT225      0.0372
      3  C3       -68.2410  -42.2270    1.7070 C.ar  225  PNT225      0.0111
      4  C4       -69.6730  -42.4720    1.7250 C.ar  225  PNT225      0.0977
      5  C5       -70.0980  -43.8120    1.6360 C.ar  225  PNT225      0.0111
      6  C6       -69.2000  -44.8430    1.5240 C.ar  225  PNT225      0.0372
      7  C7       -65.6190  -45.3210    0.8430 C.3   225  PNT225      0.2054
      8  C8       -65.1670  -46.7530    0.9750 C.3   225  PNT225      0.0475
      9  C9       -70.5910  -41.4730    1.8270 C.2   225  PNT225      0.4766
     10  C10      -63.7210  -46.4610    0.8340 C.3   225  PNT225      0.0077
     11  C1'      -59.4130  -45.6260    2.3000 C.ar  225  PNT225      0.1386
     12  C2'      -59.0970  -44.6870    1.3190 C.ar  225  PNT225      0.0372
     13  C3'      -57.7580  -44.5740    0.9070 C.ar  225  PNT225      0.0111
     14  C4'      -56.7110  -45.3860    1.4650 C.ar  225  PNT225      0.0977
     15  C5'      -57.0420  -46.3070    2.4290 C.ar  225  PNT225      0.0111
     16  C6'      -58.3750  -46.4330    2.8520 C.ar  225  PNT225      0.0372
     17  C7'      -61.5490  -46.0340    1.6250 C.3   225  PNT225      0.2054
     18  C8'      -62.9460  -46.2820    2.1070 C.3   225  PNT225      0.0475
     19  C9'      -55.3950  -45.2630    1.0490 C.2   225  PNT225      0.4766
     20  O1       -66.9580  -45.6400    1.4110 O.3   225  PNT225     -0.4755
     21  O1'      -60.6620  -45.8050    2.7390 O.3   225  PNT225     -0.4755
     22  N1       -70.1720  -40.2150    1.8820 N.pl3 225  PNT225      0.2047
     23  N2       -71.9330  -41.7260    1.8760 N.pl3 225  PNT225      0.2047
     24  N1'      -55.0940  -44.3390    0.0920 N.pl3 225  PNT225      0.2047
     25  N2'      -54.3560  -46.0540    1.5790 N.pl3 225  PNT225      0.2047
@<TRIPOS>BOND
     1    24    19    2
     2    10     8    1
     3    10    18    1
     4     7     8    1
     5     7    20    1
     6    13    12   ar
     7    13    14   ar
     8    19    14    1
     9    19    25    1
    10    12    11   ar
    11    20     1    1
    12    14    15   ar
    13     1     6   ar
    14     1     2   ar
    15     6     5   ar
    16     2     3   ar
    17    17    18    1
    18    17    21    1
    19     5     4   ar
    20     3     4   ar
    21     4     9    1
    22     9    23    2
    23     9    22    1
    24    11    21    1
    25    11    16   ar
    26    15    16   ar
