@<TRIPOS>MOLECULE
1rkx_NAD_A_1.pdb
 44 48 0 0 0
SMALL
GASTEIGER

@<TRIPOS>ATOM
      1  PA         3.8390   48.8130    4.0080 P.3   360  NAD360      0.2189
      2  O1A        4.9220   48.7830    5.0060 O.3   360  NAD360     -0.4371
      3  O2A        3.9090   49.8420    2.9640 O.2   360  NAD360     -0.5170
      4  O5B        2.4040   48.9570    4.7510 O.3   360  NAD360     -0.3112
      5  C5B        2.2180   48.3470    6.0350 C.3   360  NAD360      0.1813
      6  C4B        1.1020   49.0530    6.8010 C.3   360  NAD360      0.1821
      7  O4B        1.0790   48.3350    8.0510 O.3   360  NAD360     -0.3135
      8  C3B        1.4370   50.5050    7.1430 C.3   360  NAD360      0.2184
      9  O3B        0.3180   51.3080    6.7460 O.3   360  NAD360     -0.2174
     10  C2B        1.6970   50.4380    8.6410 C.3   360  NAD360      0.2570
     11  O2B        1.4320   51.6620    9.3580 O.3   360  NAD360     -0.2130
     12  C1B        0.8460   49.2740    9.0610 C.3   360  NAD360      0.3186
     13  N9A        1.2730   48.7130   10.3240 N.pl3 360  NAD360     -0.1439
     14  C8A        2.4180   48.0040   10.5920 C.3   360  NAD360      0.3377
     15  N7A        2.5250   47.6350   11.8650 N.2   360  NAD360     -0.2095
     16  C5A        1.3810   48.1380   12.4520 C.2   360  NAD360      0.2526
     17  C6A        0.9140   48.0820   13.7830 C.2   360  NAD360      0.4393
     18  N6A        1.5230   47.4970   14.7930 N.pl3 360  NAD360      0.2180
     19  N1A       -0.2840   48.6930   14.0600 N.2   360  NAD360      0.0021
     20  C2A       -0.9390   49.3150   13.0180 C.3   360  NAD360      0.5254
     21  N3A       -0.6010   49.4290   11.7480 N.2   360  NAD360     -0.0055
     22  C4A        0.5900   48.8090   11.5210 C.2   360  NAD360      0.3518
     23  O3         3.7510   47.4130    3.3690 O.3   360  NAD360     -0.2703
     24  PN         2.8120   46.8500    2.1620 P.3   360  NAD360      0.2189
     25  O1N        3.7620   46.5250    1.0930 O.2   360  NAD360     -0.5170
     26  O2N        1.8410   47.9160    1.7810 O.3   360  NAD360     -0.4371
     27  O5D        2.2120   45.5260    2.7680 O.3   360  NAD360     -0.3112
     28  C5D        0.7830   45.4650    2.8960 C.3   360  NAD360      0.1813
     29  C4D        0.3900   44.1020    3.4210 C.3   360  NAD360      0.1799
     30  O4D        0.7220   43.1710    2.3450 O.3   360  NAD360     -0.3327
     31  C3D        1.1180   43.5500    4.6430 C.3   360  NAD360      0.2158
     32  O3D        0.2270   42.6920    5.3670 O.3   360  NAD360     -0.2175
     33  C2D        2.2500   42.7520    4.0140 C.3   360  NAD360      0.2309
     34  O2D        2.7390   41.7610    4.9330 O.3   360  NAD360     -0.2158
     35  C1D        1.5520   42.1480    2.8290 C.3   360  NAD360      0.2263
     36  N1N        2.4980   41.7090    1.8090 N.pl3 360  NAD360     -0.2787
     37  C2N        3.0990   42.5990    0.9060 C.3   360  NAD360      0.1244
     38  C3N        3.9970   42.1080   -0.1790 C.2   360  NAD360      0.0544
     39  C7N        4.5280   43.1140   -1.1130 C.2   360  NAD360      0.2818
     40  O7N        5.2610   42.7030   -2.0300 O.2   360  NAD360     -0.2670
     41  N7N        4.2500   44.4310   -1.0100 N.am  360  NAD360     -0.0839
     42  C4N        4.3700   40.6400   -0.2110 C.2   360  NAD360      0.0033
     43  C5N        3.6740   39.8410    0.8360 C.2   360  NAD360      0.0157
     44  C6N        2.8290   40.3200    1.7360 C.2   360  NAD360      0.0633
@<TRIPOS>BOND
     1    40    39    2
     2    39    41   am
     3    39    38    1
     4    42    38    2
     5    42    43    1
     6    38    37    1
     7    43    44    2
     8    37    36    1
     9    25    24    2
    10    44    36    1
    11    26    24    1
    12    36    35    1
    13    24    27    1
    14    24    23    1
    15    30    35    1
    16    30    29    1
    17    27    28    1
    18    35    33    1
    19    28    29    1
    20     3     1    2
    21    23     1    1
    22    29    31    1
    23     1     4    1
    24     1     2    1
    25    33    31    1
    26    33    34    1
    27    31    32    1
    28     4     5    1
    29     5     6    1
    30     9     8    1
    31     6     8    1
    32     6     7    1
    33     8    10    1
    34     7    12    1
    35    10    12    1
    36    10    11    1
    37    12    13    1
    38    13    14    1
    39    13    22    1
    40    14    15    1
    41    22    21    2
    42    22    16    1
    43    21    20    1
    44    15    16    2
    45    16    17    1
    46    20    19    1
    47    17    19    2
    48    17    18    1
