@<TRIPOS>MOLECULE
1rl4_BRR_A_1.pdb
 13 12 0 0 0
SMALL
GASTEIGER

@<TRIPOS>ATOM
      1  C10       -6.6400   36.4660   -5.6300 C.3   401  BRR401      0.0000
      2  C9        -6.1880   36.2190   -4.1900 C.3   401  BRR401      0.0000
      3  C8        -7.3720   36.0080   -3.2440 C.3   401  BRR401      0.0006
      4  C7        -6.9160   36.1610   -1.7850 C.3   401  BRR401      0.0130
      5  C6        -7.9770   36.8670   -0.9300 C.3   401  BRR401      0.1236
      6  C11       -9.1560   35.9430   -0.7520 C.2   401  BRR401      0.3660
      7  O12       -8.9960   34.8630   -0.1830 O.co2 401  BRR401     -0.2456
      8  O13      -10.2610   36.2660   -1.1760 O.co2 401  BRR401     -0.2456
      9  C5        -7.3930   37.1640    0.4580 C.3   401  BRR401      0.1092
     10  N3        -6.3350   38.1430    0.2930 N.am  401  BRR401     -0.2790
     11  C2        -5.0800   37.7560    0.2380 C.2   401  BRR401      0.1130
     12  O1        -4.1840   38.5760    0.0780 O.2   401  BRR401     -0.5358
     13  O4        -6.4970   39.5100    0.1410 O.3   401  BRR401     -0.4195
@<TRIPOS>BOND
     1     1     2    1
     2     2     3    1
     3     3     4    1
     4     4     5    1
     5     8     6   ar
     6     5     6    1
     7     5     9    1
     8     6     7   ar
     9    12    11    2
    10    13    10    1
    11    11    10   am
    12    10     9    1
