@<TRIPOS>MOLECULE
1rl4_BL5_A_1.pdb
 50 51 0 0 0
SMALL
GASTEIGER

@<TRIPOS>ATOM
      1  C5        -9.2240   34.4290   -8.6700 C.ar  501  BL5501      0.0166
      2  C4        -8.1870   33.8990   -7.9000 C.ar  501  BL5501      0.0013
      3  C3        -7.6170   32.6720   -8.2470 C.ar  501  BL5501      0.0001
      4  C2        -8.0910   31.9870   -9.3760 C.ar  501  BL5501      0.0013
      5  C1        -9.1220   32.5220  -10.1400 C.ar  501  BL5501      0.0166
      6  C6        -9.7070   33.7390   -9.7890 C.ar  501  BL5501      0.0734
      7  N7       -10.7070   34.3020  -10.4950 N.am  501  BL5501     -0.1778
      8  C8       -11.5410   33.7260  -11.3690 C.2   501  BL5501      0.2654
      9  O9       -11.4660   32.5660  -11.7780 O.2   501  BL5501     -0.2711
     10  C10      -12.6980   34.6380  -11.8200 C.3   501  BL5501      0.1731
     11  C11      -13.8620   34.3130  -10.8700 C.3   501  BL5501      0.0312
     12  C12      -15.0550   35.2690  -11.0180 C.3   501  BL5501      0.0038
     13  C13      -16.0200   35.0760   -9.8440 C.3   501  BL5501      0.0206
     14  C14      -17.4680   35.2360  -10.3000 C.3   501  BL5501      0.1093
     15  N15      -18.0750   36.4110   -9.6680 N.3   501  BL5501     -0.1314
     16  N16      -13.0760   34.4040  -13.2380 N.am  501  BL5501     -0.1977
     17  C17      -12.6320   35.1790  -14.2480 C.2   501  BL5501      0.2428
     18  O18      -11.8810   36.1370  -14.0620 O.2   501  BL5501     -0.2733
     19  C19      -13.0980   34.8170  -15.7030 C.3   501  BL5501      0.0972
     20  C20      -14.1240   35.8600  -16.1810 C.3   501  BL5501      0.0106
     21  C21      -15.4900   35.7530  -15.4920 C.3   501  BL5501      0.0005
     22  C22      -16.4360   36.8630  -15.9690 C.3   501  BL5501      0.0000
     23  C23      -17.5900   37.0580  -14.9770 C.3   501  BL5501      0.0000
     24  C24      -11.9540   34.8920  -16.7510 C.3   501  BL5501      0.1184
     25  N25      -11.1610   33.6350  -16.9700 N.3   501  BL5501     -0.1309
     26  N26      -11.5770   32.7040  -16.0130 N.3   501  BL5501     -0.1309
     27  C27      -10.7670   31.4730  -16.1870 C.3   501  BL5501      0.1184
     28  C32      -10.8340   30.7740  -14.8110 C.3   501  BL5501      0.0972
     29  C31       -9.7380   29.7060  -14.6640 C.3   501  BL5501      0.0106
     30  C30       -9.0150   29.7690  -13.3090 C.3   501  BL5501      0.0005
     31  C29       -7.6550   30.4560  -13.4080 C.3   501  BL5501      0.0000
     32  C28       -6.5480   29.6840  -12.6970 C.3   501  BL5501      0.0000
     33  C34      -12.2420   30.1640  -14.5860 C.2   501  BL5501      0.2428
     34  O33      -12.6690   29.2530  -15.3040 O.2   501  BL5501     -0.2733
     35  N35      -12.9260   30.6870  -13.5730 N.am  501  BL5501     -0.1977
     36  C41      -14.2570   30.1940  -13.1620 C.3   501  BL5501      0.1731
     37  C40      -14.2620   29.9410  -11.6520 C.3   501  BL5501      0.0312
     38  C39      -13.1970   28.9350  -11.2170 C.3   501  BL5501      0.0038
     39  C38      -13.4280   28.5390   -9.7490 C.3   501  BL5501      0.0206
     40  C37      -12.1850   27.9140   -9.1160 C.3   501  BL5501      0.1093
     41  N36      -12.4690   27.5730   -7.7130 N.3   501  BL5501     -0.1314
     42  C43      -15.3640   31.2010  -13.4410 C.2   501  BL5501      0.2654
     43  O42      -15.1270   32.4010  -13.3300 O.2   501  BL5501     -0.2711
     44  N44      -16.5440   30.6450  -13.7850 N.am  501  BL5501     -0.1778
     45  C45      -17.6970   31.3020  -14.0150 C.ar  501  BL5501      0.0734
     46  C46      -18.9080   30.6100  -13.9370 C.ar  501  BL5501      0.0166
     47  C47      -20.1210   31.2550  -14.1650 C.ar  501  BL5501      0.0013
     48  C48      -20.1360   32.6050  -14.5050 C.ar  501  BL5501      0.0001
     49  C49      -18.9340   33.3040  -14.5940 C.ar  501  BL5501      0.0013
     50  C50      -17.7230   32.6550  -14.3520 C.ar  501  BL5501      0.0166
@<TRIPOS>BOND
     1    25    24    1
     2    25    26    1
     3    24    19    1
     4    27    26    1
     5    27    28    1
     6    20    19    1
     7    20    21    1
     8    22    21    1
     9    22    23    1
    10    19    17    1
    11    34    33    2
    12    28    29    1
    13    28    33    1
    14    29    30    1
    15    49    48   ar
    16    49    50   ar
    17    33    35   am
    18    48    47   ar
    19    50    45   ar
    20    17    18    2
    21    17    16   am
    22    47    46   ar
    23    45    46   ar
    24    45    44    1
    25    44    42   am
    26    35    36    1
    27    42    43    2
    28    42    36    1
    29    31    30    1
    30    31    32    1
    31    16    10    1
    32    36    37    1
    33    10     8    1
    34    10    11    1
    35     9     8    2
    36    37    38    1
    37     8     7   am
    38    38    39    1
    39    12    11    1
    40    12    13    1
    41     7     6    1
    42    14    13    1
    43    14    15    1
    44     5     6   ar
    45     5     4   ar
    46     6     1   ar
    47    39    40    1
    48     4     3   ar
    49    40    41    1
    50     1     2   ar
    51     3     2   ar
