@<TRIPOS>MOLECULE
1rl8_RIT_A_1.pdb
 50 53 0 0 0
SMALL
GASTEIGER

@<TRIPOS>ATOM
      1  C1        -9.2070   15.4970   20.2170 C.ar  9001  RIT9001     0.1053
      2  C2        -8.2300   14.8300   20.8950 C.ar  9001  RIT9001     0.0714
      3  S3        -6.6410   14.7540   20.0990 S.2   9001  RIT9001    -0.0652
      4  C4        -7.5990   15.6790   18.9220 C.ar  9001  RIT9001     0.1343
      5  N5        -8.8380   15.9770   19.0910 N.ar  9001  RIT9001    -0.2350
      6  C6        -8.0800   14.1440   22.1310 C.3   9001  RIT9001     0.2448
      7  O7        -8.1820   15.1400   23.1290 O.3   9001  RIT9001    -0.4279
      8  C10       -8.0930   14.9330   24.5140 C.2   9001  RIT9001     0.4215
      9  O24       -7.9070   13.8100   25.0060 O.2   9001  RIT9001    -0.2246
     10  N11       -8.2450   16.0970   25.2210 N.am  9001  RIT9001    -0.1675
     11  C12       -8.2060   16.1370   26.7000 C.3   9001  RIT9001     0.1333
     12  C13       -9.5310   16.5030   27.3890 C.3   9001  RIT9001     0.1739
     13  C14      -10.6470   15.5190   27.1530 C.3   9001  RIT9001     0.0567
     14  C15      -10.6990   14.1920   27.9330 C.3   9001  RIT9001     0.1023
     15  C26       -7.0630   17.0020   27.2890 C.3   9001  RIT9001     0.0507
     16  C28       -5.7050   16.8790   26.8020 C.ar  9001  RIT9001    -0.0204
     17  C31       -5.0090   15.8680   27.5320 C.ar  9001  RIT9001    -0.0042
     18  C32       -3.6600   15.6000   27.1830 C.ar  9001  RIT9001    -0.0003
     19  C33       -3.0010   16.3150   26.1330 C.ar  9001  RIT9001    -0.0000
     20  C34       -3.7150   17.3350   25.4080 C.ar  9001  RIT9001    -0.0003
     21  C35       -5.0640   17.6150   25.7410 C.ar  9001  RIT9001    -0.0042
     22  O41       -9.9440   17.7420   26.8730 O.3   9001  RIT9001    -0.2212
     23  C44      -12.0480   13.5970   27.6040 C.3   9001  RIT9001     0.0481
     24  C45      -12.0560   12.1780   27.9300 C.ar  9001  RIT9001    -0.0205
     25  C48      -12.8470   11.7880   29.0530 C.ar  9001  RIT9001    -0.0042
     26  C49      -12.9150   10.4070   29.4500 C.ar  9001  RIT9001    -0.0003
     27  C50      -12.1860    9.4480   28.7060 C.ar  9001  RIT9001    -0.0000
     28  C51      -11.4060    9.8410   27.5930 C.ar  9001  RIT9001    -0.0003
     29  C52      -11.3340   11.2040   27.1950 C.ar  9001  RIT9001    -0.0042
     30  N58      -10.6000   14.3790   29.3700 N.am  9001  RIT9001    -0.2053
     31  N20      -10.5820   13.1210   32.2350 N.am  9001  RIT9001    -0.1808
     32  C19       -9.7870   14.2160   31.6230 C.3   9001  RIT9001     0.1742
     33  C18       -9.6000   13.9110   30.1280 C.2   9001  RIT9001     0.2612
     34  O61       -8.6280   13.2630   29.6720 O.2   9001  RIT9001    -0.2715
     35  C62       -8.4460   14.3670   32.4340 C.3   9001  RIT9001     0.0290
     36  C64       -7.4570   15.4480   31.9260 C.3   9001  RIT9001     0.0023
     37  C68       -8.7310   14.6610   33.9260 C.3   9001  RIT9001     0.0023
     38  C21      -11.8820   13.2440   32.6200 C.2   9001  RIT9001     0.3240
     39  N74      -12.4700   12.0490   32.9860 N.am  9001  RIT9001    -0.2546
     40  C75      -13.8770   11.9990   33.4240 C.3   9001  RIT9001     0.1504
     41  O76      -12.4590   14.3630   32.6270 O.2   9001  RIT9001    -0.2507
     42  C77      -14.8420   11.5630   32.4020 C.2   9001  RIT9001     0.1182
     43  C80      -15.5060   12.5240   31.6880 C.3   9001  RIT9001     0.1202
     44  S81      -16.5490   11.6600   30.5280 S.3   9001  RIT9001    -0.0795
     45  C82      -15.9510   10.1210   31.1780 C.2   9001  RIT9001     0.1335
     46  N83      -15.0820   10.3100   32.1350 N.2   9001  RIT9001    -0.4061
     47  C85      -16.5550    9.0920   30.4850 C.3   9001  RIT9001     0.0585
     48  C86      -18.0090    8.8000   30.1280 C.3   9001  RIT9001     0.0080
     49  C90      -16.0270    7.8390   31.0660 C.3   9001  RIT9001     0.0080
     50  C95      -11.9350   10.8230   33.0100 C.3   9001  RIT9001     0.1169
@<TRIPOS>BOND
     1     4     5   ar
     2     4     3   ar
     3     5     1   ar
     4     3     2   ar
     5     1     2   ar
     6     2     6    1
     7     6     7    1
     8     7     8    1
     9     8     9    2
    10     8    10   am
    11    10    11    1
    12    20    21   ar
    13    20    19   ar
    14    21    16   ar
    15    19    18   ar
    16    11    15    1
    17    11    12    1
    18    16    15    1
    19    16    17   ar
    20    22    12    1
    21    13    12    1
    22    13    14    1
    23    18    17   ar
    24    29    28   ar
    25    29    24   ar
    26    28    27   ar
    27    23    24    1
    28    23    14    1
    29    24    25   ar
    30    14    30    1
    31    27    26   ar
    32    25    26   ar
    33    30    33   am
    34    34    33    2
    35    33    32    1
    36    48    47    1
    37    47    49    1
    38    47    45    1
    39    44    45    1
    40    44    43    1
    41    45    46    2
    42    32    31    1
    43    32    35    1
    44    43    42    1
    45    36    35    1
    46    46    42    2
    47    31    38   am
    48    42    40    1
    49    35    37    1
    50    38    41    2
    51    38    39   am
    52    39    50    1
    53    39    40    1
