@<TRIPOS>MOLECULE
1rl9_ADP_A_1.pdb
 27 29 0 0 0
SMALL
GASTEIGER

@<TRIPOS>ATOM
      1  PB       -24.5650   26.8050   65.8460 P.3   900  ADP900      0.5373
      2  O1B      -23.9940   27.8260   64.8880 O.2   900  ADP900     -0.2221
      3  O2B      -24.7200   25.5560   65.1200 O.3   900  ADP900     -0.1143
      4  O3B      -23.9450   26.7550   67.1570 O.3   900  ADP900     -0.1143
      5  PA       -27.0900   28.4190   65.8360 P.3   900  ADP900      0.2231
      6  O1A      -26.3860   29.3960   64.9730 O.2   900  ADP900     -0.5169
      7  O2A      -27.7080   28.8550   67.0600 O.3   900  ADP900     -0.4370
      8  O3A      -26.1160   27.2170   66.1990 O.3   900  ADP900     -0.2261
      9  O5'      -28.1900   27.6530   64.9950 O.3   900  ADP900     -0.3111
     10  C5'      -27.7470   27.0460   63.7640 C.3   900  ADP900      0.1813
     11  C4'      -28.9340   26.2120   63.2530 C.3   900  ADP900      0.1821
     12  O4'      -29.0080   24.9900   64.0000 O.3   900  ADP900     -0.3135
     13  C3'      -30.3230   26.9060   63.3000 C.3   900  ADP900      0.2184
     14  O3'      -31.0260   26.6100   62.0470 O.3   900  ADP900     -0.2174
     15  C2'      -31.0080   26.1340   64.4050 C.3   900  ADP900      0.2570
     16  O2'      -32.4320   26.0540   64.3100 O.3   900  ADP900     -0.2130
     17  C1'      -30.4060   24.7320   64.2300 C.3   900  ADP900      0.3186
     18  N9       -30.5080   23.8220   65.3730 N.pl3 900  ADP900     -0.1439
     19  C8       -29.8190   23.8790   66.5580 C.3   900  ADP900      0.3377
     20  N7       -30.0880   22.8740   67.3980 N.2   900  ADP900     -0.2095
     21  C5       -31.0520   22.1440   66.6940 C.2   900  ADP900      0.2526
     22  C6       -31.7140   20.9480   67.0860 C.2   900  ADP900      0.4393
     23  N6       -31.5570   20.2890   68.2200 N.pl3 900  ADP900      0.2180
     24  N1       -32.5860   20.4840   66.1670 N.2   900  ADP900      0.0021
     25  C2       -32.8290   21.1190   65.0040 C.3   900  ADP900      0.5254
     26  N3       -32.1670   22.2020   64.6380 N.2   900  ADP900     -0.0055
     27  C4       -31.2780   22.7170   65.4830 C.2   900  ADP900      0.3518
@<TRIPOS>BOND
     1    14    13    1
     2    11    13    1
     3    11    10    1
     4    11    12    1
     5    13    15    1
     6    10     9    1
     7    12    17    1
     8    17    15    1
     9    17    18    1
    10    16    15    1
    11    26    25    1
    12    26    27    2
    13     2     1    2
    14     6     5    2
    15     9     5    1
    16    25    24    1
    17     3     1    1
    18    18    27    1
    19    18    19    1
    20    27    21    1
    21     5     8    1
    22     5     7    1
    23     1     8    1
    24     1     4    1
    25    24    22    2
    26    19    20    1
    27    21    22    1
    28    21    20    2
    29    22    23    1
