@<TRIPOS>MOLECULE
1rlb_REA_E_1.pdb
 21 21 0 0 0
SMALL
GASTEIGER

@<TRIPOS>ATOM
      1  C1       122.5090   60.8510   18.2520 C.3   176  REA176      0.0000
      2  C2       122.3550   61.7270   19.4910 C.3   176  REA176      0.0000
      3  C3       122.4130   61.0380   20.8460 C.3   176  REA176      0.0000
      4  C4       123.2530   59.7670   20.8000 C.3   176  REA176      0.0000
      5  C5       124.0860   59.5690   19.5380 C.3   176  REA176      0.0000
      6  C6       123.5820   59.7900   18.3160 C.3   176  REA176      0.0000
      7  C7       124.4590   59.2180   17.3590 C.3   176  REA176      0.0000
      8  C8       124.3160   57.8860   17.4700 C.3   176  REA176      0.0000
      9  C9       124.9790   57.2940   16.3110 C.3   176  REA176      0.0000
     10  C10      124.6270   55.9590   16.1960 C.3   176  REA176      0.0000
     11  C11      125.2890   55.2440   15.1090 C.3   176  REA176      0.0000
     12  C12      124.5940   54.0770   14.8670 C.3   176  REA176      0.0001
     13  C13      125.4280   52.9880   14.3100 C.3   176  REA176      0.0026
     14  C14      124.8570   51.7360   14.4680 C.3   176  REA176      0.0355
     15  C15      125.5000   50.8300   13.5020 C.3   176  REA176      0.1821
     16  C16      123.0300   61.8600   17.2350 C.3   176  REA176      0.0000
     17  C17      121.1330   60.3370   17.8680 C.3   176  REA176      0.0000
     18  C18      124.9610   58.3530   19.7810 C.3   176  REA176      0.0000
     19  C19      125.2950   58.4910   15.4130 C.3   176  REA176      0.0000
     20  C20      125.7210   53.1470   12.8010 C.3   176  REA176      0.0001
     21  O1       126.3520   49.9890   14.1580 O.3   176  REA176     -0.2204
@<TRIPOS>BOND
     1    20    13    1
     2    15    21    1
     3    15    14    1
     4    13    14    1
     5    13    12    1
     6    12    11    1
     7    11    10    1
     8    19     9    1
     9    10     9    1
    10     9     8    1
    11    16     1    1
    12     7     8    1
    13     7     6    1
    14    17     1    1
    15     1     6    1
    16     1     2    1
    17     6     5    1
    18     2     3    1
    19     5    18    1
    20     5     4    1
    21     4     3    1
