@<TRIPOS>MOLECULE
1rlc_CAP_L_1.pdb
 21 20 0 0 0
SMALL
GASTEIGER

@<TRIPOS>ATOM
      1  C1       102.9090  100.4810   85.8610 C.3   490  CAP490      0.1978
      2  C2       103.2640   99.0410   86.3630 C.3   490  CAP490      0.2763
      3  C3       104.0430   98.8620   87.7260 C.3   490  CAP490      0.2253
      4  C4       104.9360   97.6990   88.3350 C.3   490  CAP490      0.2152
      5  C5       104.6570   97.8750   89.8430 C.3   490  CAP490      0.1892
      6  C        101.9400   98.4420   86.8720 C.2   490  CAP490      0.3967
      7  O1       102.8130  100.6050   84.4180 O.3   490  CAP490     -0.2669
      8  O2       103.8030   98.0480   85.5180 O.3   490  CAP490     -0.2086
      9  O3       104.8660   99.9760   87.8660 O.3   490  CAP490     -0.2170
     10  O4       104.6970   96.3930   87.7480 O.3   490  CAP490     -0.2176
     11  O5       105.4510   99.0350   90.4710 O.3   490  CAP490     -0.2674
     12  O6       101.3030   98.2210   87.9220 O.co2 490  CAP490     -0.2428
     13  O7       101.3310   98.0530   85.8580 O.co2 490  CAP490     -0.2428
     14  P1       102.3740  101.8620   83.4250 P.3   490  CAP490      0.5327
     15  P2       105.8100   98.9940   92.0530 P.3   490  CAP490      0.5327
     16  O1P      101.9960  100.9660   82.0700 O.2   490  CAP490     -0.2224
     17  O2P      103.5210  102.5830   82.7210 O.3   490  CAP490     -0.1145
     18  O3P      101.1540  102.7470   83.8250 O.3   490  CAP490     -0.1145
     19  O4P      106.4200   97.7550   92.6020 O.3   490  CAP490     -0.1145
     20  O5P      104.7560   99.3990   93.0890 O.3   490  CAP490     -0.1145
     21  O6P      106.8070  100.2770   92.3040 O.2   490  CAP490     -0.2224
@<TRIPOS>BOND
     1    16    14    2
     2    17    14    1
     3    14    18    1
     4    14     7    1
     5     7     1    1
     6     8     2    1
     7    13     6   ar
     8     1     2    1
     9     2     6    1
    10     2     3    1
    11     6    12   ar
    12     3     9    1
    13     3     4    1
    14    10     4    1
    15     4     5    1
    16     5    11    1
    17    11    15    1
    18    15    21    2
    19    15    19    1
    20    15    20    1
