@<TRIPOS>MOLECULE
1rlj_FMN_A_1.pdb
 31 33 0 0 0
SMALL
GASTEIGER

@<TRIPOS>ATOM
      1  N1        28.0170   23.9690   26.3000 N.2   151  FMN151     -0.2887
      2  C2        27.3750   22.9680   26.9680 C.1   151  FMN151      0.3669
      3  O2        27.9450   21.9590   27.3460 O.2   151  FMN151     -0.1744
      4  N3        26.0010   23.1770   27.1960 N.2   151  FMN151     -0.2300
      5  C4        25.2140   24.3130   26.8100 C.1   151  FMN151      0.2513
      6  O4        24.0160   24.3520   27.0840 O.2   151  FMN151     -0.2057
      7  C4A       25.9300   25.3130   26.1290 C.2   151  FMN151      0.2703
      8  N5        25.4220   26.5060   25.6540 N.2   151  FMN151     -0.3882
      9  C5A       26.0410   27.5610   24.9770 C.2   151  FMN151      0.1277
     10  C6        25.2850   28.7530   24.5680 C.3   151  FMN151      0.0820
     11  C7        25.9870   29.8300   23.8590 C.2   151  FMN151     -0.0408
     12  C7M       25.1520   31.0460   23.4550 C.3   151  FMN151      0.0265
     13  C8        27.4400   29.6910   23.5720 C.2   151  FMN151     -0.0280
     14  C8M       28.3160   30.7480   22.8270 C.3   151  FMN151      0.0304
     15  C9        28.1240   28.4850   24.0080 C.2   151  FMN151      0.0123
     16  C9A       27.4350   27.4060   24.7150 C.2   151  FMN151      0.0793
     17  N10       28.0050   26.1790   25.1880 N.pl3 151  FMN151     -0.2545
     18  C10       27.3460   25.1020   25.8900 C.2   151  FMN151      0.2449
     19  C1'       29.4860   25.9200   24.9430 C.3   151  FMN151      0.1336
     20  C2'       29.7530   25.3170   23.5430 C.3   151  FMN151      0.2048
     21  O2'       28.9640   24.1610   23.2870 O.3   151  FMN151     -0.2185
     22  C3'       31.2460   24.9980   23.4040 C.3   151  FMN151      0.2165
     23  O3'       32.0490   26.1670   23.6380 O.3   151  FMN151     -0.2175
     24  C4'       31.5180   24.3610   22.0110 C.3   151  FMN151      0.2147
     25  O4'       32.8340   23.7900   22.0420 O.3   151  FMN151     -0.2176
     26  C5'       31.6190   25.3390   20.9440 C.3   151  FMN151      0.1892
     27  O5'       31.8450   24.7460   19.7130 O.3   151  FMN151     -0.2674
     28  P         32.0290   25.7350   18.5540 P.3   151  FMN151      0.5327
     29  O1P       33.3580   26.1340   18.1200 O.3   151  FMN151     -0.1145
     30  O2P       30.8250   25.9570   17.7250 O.2   151  FMN151     -0.2224
     31  O3P       32.1700   24.4780   17.8220 O.3   151  FMN151     -0.1145
@<TRIPOS>BOND
     1    30    28    2
     2    31    28    1
     3    29    28    1
     4    28    27    1
     5    27    26    1
     6    26    24    1
     7    24    25    1
     8    24    22    1
     9    14    13    1
    10    21    20    1
    11    22    20    1
    12    22    23    1
    13    12    11    1
    14    20    19    1
    15    13    11    2
    16    13    15    1
    17    11    10    1
    18    15    16    2
    19    10     9    1
    20    16     9    1
    21    16    17    1
    22    19    17    1
    23     9     8    2
    24    17    18    1
    25     8     7    2
    26    18     7    1
    27    18     1    2
    28     7     5    1
    29     1     2    2
    30     5     6    2
    31     5     4    2
    32     2     4    2
    33     2     3    2
