@<TRIPOS>MOLECULE
1rls_3GP_A_1.pdb
 24 26 0 0 0
SMALL
GASTEIGER

@<TRIPOS>ATOM
      1  P         75.2630   89.5460   60.0080 P.3   105  3GP105      0.5327
      2  O1P       75.1450   89.5650   58.5440 O.2   105  3GP105     -0.2224
      3  O2P       76.6690   89.3030   60.4230 O.3   105  3GP105     -0.1145
      4  O3P       74.3450   88.5160   60.5820 O.3   105  3GP105     -0.1145
      5  O5'       76.6350   90.6720   63.4640 O.3   105  3GP105     -0.2176
      6  C5'       75.5390   91.6910   63.7640 C.3   105  3GP105      0.2141
      7  C4'       75.2990   92.5050   62.4960 C.3   105  3GP105      0.1802
      8  O4'       76.1480   93.6690   62.4630 O.3   105  3GP105     -0.3326
      9  C3'       75.7580   91.7240   61.2210 C.3   105  3GP105      0.1903
     10  O3'       74.8130   91.0330   60.5510 O.3   105  3GP105     -0.2674
     11  C2'       76.6580   92.6790   60.3360 C.3   105  3GP105      0.2283
     12  O2'       76.1030   92.9430   59.0800 O.3   105  3GP105     -0.2159
     13  C1'       76.6070   93.9480   61.1400 C.3   105  3GP105      0.2292
     14  N9        77.9930   94.4740   61.1900 N.pl3 105  3GP105     -0.2354
     15  C8        78.4920   95.5570   60.4830 C.3   105  3GP105      0.2246
     16  N7        79.7850   95.6840   60.5660 N.2   105  3GP105     -0.2322
     17  C5        80.1500   94.5820   61.3520 C.2   105  3GP105      0.2182
     18  C6        81.4380   94.2100   61.7950 C.1   105  3GP105      0.2372
     19  O6        82.4790   94.7650   61.5820 O.2   105  3GP105     -0.2069
     20  N1        81.3980   93.0250   62.5830 N.2   105  3GP105     -0.2485
     21  C2        80.2480   92.3300   62.8970 C.1   105  3GP105      0.2531
     22  N2        80.3920   91.2560   63.7040 N.pl3 105  3GP105     -0.0226
     23  N3        79.0280   92.7070   62.4690 N.2   105  3GP105     -0.3074
     24  C4        79.0940   93.8420   61.7170 C.2   105  3GP105      0.2300
@<TRIPOS>BOND
     1     2     1    2
     2    12    11    1
     3     1     3    1
     4     1    10    1
     5     1     4    1
     6    11    13    1
     7    11     9    1
     8    15    16    1
     9    15    14    1
    10    10     9    1
    11    16    17    2
    12    13    14    1
    13    13     8    1
    14    14    24    1
    15     9     7    1
    16    17    24    1
    17    17    18    1
    18    19    18    2
    19    24    23    2
    20    18    20    2
    21     8     7    1
    22    23    21    2
    23     7     6    1
    24    20    21    2
    25    21    22    1
    26     5     6    1
