@<TRIPOS>MOLECULE
1rlu_GSP_A_1.pdb
 32 34 0 0 0
SMALL
GASTEIGER

@<TRIPOS>ATOM
      1  PG        -8.4920   41.8380    0.9390 P.3   401  GSP401      0.4340
      2  O3B       -7.4180   40.9930    1.8190 O.3   401  GSP401     -0.2405
      3  S1G      -10.0860   41.6850    1.6020 S.3   401  GSP401      0.0416
      4  O2G       -7.9460   43.2770    0.8820 O.3   401  GSP401     -0.1305
      5  O3G       -8.3360   41.2770   -0.4830 O.2   401  GSP401     -0.2423
      6  PB        -7.1700   40.8960    3.4230 P.3   401  GSP401      0.2262
      7  O1B       -5.7590   40.4480    3.5860 O.2   401  GSP401     -0.5168
      8  O2B       -7.7200   41.9770    4.3260 O.3   401  GSP401     -0.4369
      9  PA        -8.4210   38.9730    5.1390 P.3   401  GSP401      0.2189
     10  O1A       -7.2660   39.2170    6.1450 O.3   401  GSP401     -0.4371
     11  O2A       -9.7690   39.5120    5.5310 O.2   401  GSP401     -0.5170
     12  O3A       -8.0320   39.5350    3.6910 O.3   401  GSP401     -0.2701
     13  O5'       -8.5270   37.4500    4.7630 O.3   401  GSP401     -0.3112
     14  C5'       -7.3960   36.6490    4.5450 C.3   401  GSP401      0.1813
     15  C4'       -7.5670   35.3240    5.2810 C.3   401  GSP401      0.1799
     16  O4'       -7.6320   35.5430    6.6810 O.3   401  GSP401     -0.3326
     17  C3'       -8.8730   34.5550    4.9540 C.3   401  GSP401      0.2158
     18  O3'       -8.6820   33.8030    3.7620 O.3   401  GSP401     -0.2175
     19  C2'       -9.0980   33.7000    6.1980 C.3   401  GSP401      0.2310
     20  O2'       -8.3240   32.4870    6.1200 O.3   401  GSP401     -0.2158
     21  C1'       -8.5070   34.5970    7.3040 C.3   401  GSP401      0.2293
     22  N9        -9.4860   35.4020    8.0330 N.pl3 401  GSP401     -0.2354
     23  C8       -10.6570   36.0010    7.6160 C.3   401  GSP401      0.2246
     24  N7       -11.1930   36.6760    8.6620 N.2   401  GSP401     -0.2322
     25  C5       -10.3920   36.5180    9.7620 C.2   401  GSP401      0.2182
     26  C6       -10.4090   36.9880   11.0740 C.1   401  GSP401      0.2372
     27  O6       -11.3280   37.6870   11.5360 O.2   401  GSP401     -0.2069
     28  N1        -9.3850   36.6060   11.9120 N.2   401  GSP401     -0.2485
     29  C2        -8.3230   35.8270   11.4930 C.1   401  GSP401      0.2531
     30  N2        -7.3080   35.4480   12.2990 N.pl3 401  GSP401     -0.0226
     31  N3        -8.3270   35.3830   10.1980 N.2   401  GSP401     -0.3074
     32  C4        -9.3200   35.7290    9.3550 C.2   401  GSP401      0.2300
@<TRIPOS>BOND
     1     5     1    2
     2     4     1    1
     3     1     3    1
     4     1     2    1
     5     2     6    1
     6     6     7    2
     7     6    12    1
     8     6     8    1
     9    12     9    1
    10    18    17    1
    11    14    13    1
    12    14    15    1
    13    13     9    1
    14    17    15    1
    15    17    19    1
    16     9    11    2
    17     9    10    1
    18    15    16    1
    19    20    19    1
    20    19    21    1
    21    16    21    1
    22    21    22    1
    23    23    22    1
    24    23    24    1
    25    22    32    1
    26    24    25    2
    27    32    25    1
    28    32    31    2
    29    25    26    1
    30    31    29    2
    31    26    27    2
    32    26    28    2
    33    29    28    2
    34    29    30    1
