@<TRIPOS>MOLECULE
1rlz_NAD_A_1.pdb
 44 48 0 0 0
SMALL
GASTEIGER

@<TRIPOS>ATOM
      1  PA        12.2500   -7.0310   37.9680 P.3   700  NAD700      0.2189
      2  O1A       12.4990   -7.3060   36.5230 O.2   700  NAD700     -0.5170
      3  O2A       13.1200   -6.9910   39.1890 O.3   700  NAD700     -0.4371
      4  O5B       10.7080   -7.3620   38.3800 O.3   700  NAD700     -0.3112
      5  C5B        9.8460   -8.1600   37.5610 C.3   700  NAD700      0.1813
      6  C4B        8.4130   -7.8550   37.9080 C.3   700  NAD700      0.1821
      7  O4B        8.2500   -8.0160   39.3270 O.3   700  NAD700     -0.3135
      8  C3B        7.9480   -6.4180   37.6470 C.3   700  NAD700      0.2184
      9  O3B        7.5120   -6.2240   36.2940 O.3   700  NAD700     -0.2174
     10  C2B        6.8300   -6.2060   38.6500 C.3   700  NAD700      0.2570
     11  O2B        5.5430   -6.5640   38.1690 O.3   700  NAD700     -0.2130
     12  C1B        7.2660   -7.0540   39.8300 C.3   700  NAD700      0.3186
     13  N9A        7.8670   -6.2320   40.8910 N.pl3 700  NAD700     -0.1439
     14  C8A        9.1060   -5.6260   40.8980 C.3   700  NAD700      0.3377
     15  N7A        9.3530   -4.9390   41.9920 N.2   700  NAD700     -0.2095
     16  C5A        8.1650   -5.0220   42.7090 C.2   700  NAD700      0.2526
     17  C6A        7.7270   -4.4230   43.9160 C.2   700  NAD700      0.4393
     18  N6A        8.4150   -3.4730   44.5640 N.pl3 700  NAD700      0.2180
     19  N1A        6.5380   -4.8390   44.4300 N.2   700  NAD700      0.0021
     20  C2A        5.8200   -5.7480   43.7410 C.3   700  NAD700      0.5254
     21  N3A        6.0260   -6.2050   42.5060 N.2   700  NAD700     -0.0055
     22  C4A        7.2620   -5.8690   42.0750 C.2   700  NAD700      0.3518
     23  O3        12.4960   -8.6360   38.0670 O.3   700  NAD700     -0.2703
     24  PN        13.6040   -9.6580   38.7070 P.3   700  NAD700      0.2189
     25  O1N       14.5180   -9.2350   39.8050 O.3   700  NAD700     -0.4371
     26  O2N       13.8620  -10.8120   37.7820 O.2   700  NAD700     -0.5170
     27  O5D       14.7100   -8.8240   37.8040 O.3   700  NAD700     -0.3112
     28  C5D       15.2690   -9.3010   36.5430 C.3   700  NAD700      0.1813
     29  C4D       16.7790   -9.5700   36.6220 C.3   700  NAD700      0.1799
     30  O4D       17.5290   -8.3690   36.8640 O.3   700  NAD700     -0.3327
     31  C3D       17.2210  -10.5010   37.7330 C.3   700  NAD700      0.2158
     32  O3D       17.1150  -11.8630   37.3070 O.3   700  NAD700     -0.2175
     33  C2D       18.6570  -10.1270   38.0370 C.3   700  NAD700      0.2309
     34  O2D       19.6110  -11.0230   37.4930 O.3   700  NAD700     -0.2158
     35  C1D       18.7980   -8.7330   37.4670 C.3   700  NAD700      0.2263
     36  N1N       19.1730   -7.7760   38.4820 N.pl3 700  NAD700     -0.2787
     37  C2N       18.2700   -6.8340   38.9790 C.3   700  NAD700      0.1244
     38  C3N       18.6250   -5.9400   39.9760 C.2   700  NAD700      0.0544
     39  C7N       17.6380   -4.9880   40.5050 C.2   700  NAD700      0.2818
     40  O7N       17.9690   -4.2220   41.4220 O.2   700  NAD700     -0.2670
     41  N7N       16.4050   -4.9870   40.0000 N.am  700  NAD700     -0.0839
     42  C4N       19.9280   -5.9610   40.4630 C.2   700  NAD700      0.0033
     43  C5N       20.8530   -6.8630   39.9760 C.2   700  NAD700      0.0157
     44  C6N       20.4730   -7.7640   39.0010 C.2   700  NAD700      0.0633
@<TRIPOS>BOND
     1     9     8    1
     2     2     1    2
     3    28    29    1
     4    28    27    1
     5    29    30    1
     6    29    31    1
     7    30    35    1
     8    32    31    1
     9    35    33    1
    10    35    36    1
    11    34    33    1
    12     5     6    1
    13     5     4    1
    14     8     6    1
    15     8    10    1
    16    31    33    1
    17    26    24    2
    18    27    24    1
    19     6     7    1
    20     1    23    1
    21     1     4    1
    22     1     3    1
    23    23    24    1
    24    11    10    1
    25    36    37    1
    26    36    44    1
    27    10    12    1
    28    24    25    1
    29    37    38    1
    30    44    43    2
    31     7    12    1
    32    12    13    1
    33    43    42    1
    34    38    42    2
    35    38    39    1
    36    41    39   am
    37    39    40    2
    38    13    14    1
    39    13    22    1
    40    14    15    1
    41    15    16    2
    42    22    21    2
    43    22    16    1
    44    21    20    1
    45    16    17    1
    46    20    19    1
    47    17    19    2
    48    17    18    1
