@<TRIPOS>MOLECULE
1rm0_D6P_A_1.pdb
 15 14 0 0 0
SMALL
GASTEIGER

@<TRIPOS>ATOM
      1  C1       -10.0320   41.3980    5.5010 C.3   1520  D6P1520     0.1848
      2  C2       -11.4450   41.1420    6.0830 C.3   1520  D6P1520     0.0712
      3  C3       -11.4540   41.0880    7.6230 C.3   1520  D6P1520     0.1877
      4  C4       -11.0880   39.6290    7.9980 C.3   1520  D6P1520     0.2164
      5  C5       -10.8520   39.5200    9.5250 C.3   1520  D6P1520     0.2068
      6  C6        -9.9410   38.4380    9.6530 C.2   1520  D6P1520     0.0116
      7  O1        -9.2010   40.2740    5.7110 O.3   1520  D6P1520    -0.2203
      8  O3       -12.7130   41.4490    8.1260 O.3   1520  D6P1520    -0.2202
      9  O4       -12.1580   38.8130    7.6020 O.3   1520  D6P1520    -0.2173
     10  O5       -10.3150   40.7380    9.9750 O.3   1520  D6P1520    -0.2155
     11  C7       -10.0690   37.6460   10.6980 C.2   1520  D6P1520     0.0295
     12  P         -9.1140   36.5270   10.8170 P.3   1520  D6P1520     0.1394
     13  O1P       -9.3010   35.8800   12.2860 O.3   1520  D6P1520    -0.3542
     14  O2P       -9.4470   35.4760    9.6440 O.2   1520  D6P1520    -0.4557
     15  O3P       -7.6310   37.1100   10.6310 O.3   1520  D6P1520    -0.3542
@<TRIPOS>BOND
     1     1     7    1
     2     1     2    1
     3     2     3    1
     4     9     4    1
     5     3     4    1
     6     3     8    1
     7     4     5    1
     8     5     6    1
     9     5    10    1
    10    14    12    2
    11     6    11    2
    12    15    12    1
    13    11    12    1
    14    12    13    1
