@<TRIPOS>MOLECULE
1rm0_NAI_A_1.pdb
 44 48 0 0 0
SMALL
GASTEIGER

@<TRIPOS>ATOM
      1  PA       -20.5490   44.3210    5.6230 P.3   650  NAI650      0.2189
      2  O1A      -19.9690   45.4140    4.8470 O.3   650  NAI650     -0.4371
      3  O2A      -21.2430   43.3440    4.7680 O.2   650  NAI650     -0.5170
      4  O5B      -21.6750   44.7590    6.6660 O.3   650  NAI650     -0.3112
      5  C5B      -21.5860   45.9950    7.4310 C.3   650  NAI650      0.1813
      6  C4B      -22.8740   46.6880    7.3630 C.3   650  NAI650      0.1821
      7  O4B      -22.7540   47.8810    8.1820 O.3   650  NAI650     -0.3135
      8  C3B      -23.2760   47.2040    5.9570 C.3   650  NAI650      0.2184
      9  O3B      -24.5650   46.6780    5.5710 O.3   650  NAI650     -0.2174
     10  C2B      -23.2010   48.7540    6.0860 C.3   650  NAI650      0.2570
     11  O2B      -24.2520   49.4100    5.3310 O.3   650  NAI650     -0.2130
     12  C1B      -23.4430   48.9450    7.5820 C.3   650  NAI650      0.3186
     13  N9A      -22.8810   50.2220    8.1160 N.pl3 650  NAI650     -0.1439
     14  C8A      -21.6820   50.8550    7.8380 C.3   650  NAI650      0.3377
     15  N7A      -21.4400   51.9610    8.6060 N.2   650  NAI650     -0.2095
     16  C5A      -22.5760   52.0260    9.3970 C.2   650  NAI650      0.2526
     17  C6A      -22.9740   52.9520   10.4580 C.2   650  NAI650      0.4393
     18  N6A      -22.2350   54.0010   10.8290 N.pl3 650  NAI650      0.2180
     19  N1A      -24.1540   52.6630   11.1270 N.2   650  NAI650      0.0021
     20  C2A      -24.9250   51.5500   10.7450 C.3   650  NAI650      0.5254
     21  N3A      -24.6700   50.7000    9.7450 N.2   650  NAI650     -0.0055
     22  C4A      -23.4790   50.9700    9.1140 C.2   650  NAI650      0.3518
     23  O3       -19.4270   43.6410    6.4660 O.3   650  NAI650     -0.2703
     24  PN       -19.3660   42.3380    7.3830 P.3   650  NAI650      0.2189
     25  O1N      -18.6540   41.3220    6.5570 O.2   650  NAI650     -0.5170
     26  O2N      -20.7270   41.9590    7.8400 O.3   650  NAI650     -0.4371
     27  O5D      -18.4110   42.7990    8.5550 O.3   650  NAI650     -0.3112
     28  C5D      -18.8860   43.8220    9.4530 C.3   650  NAI650      0.1813
     29  C4D      -17.7480   44.2680   10.3420 C.3   650  NAI650      0.1799
     30  O4D      -17.3070   43.1520   11.1670 O.3   650  NAI650     -0.3327
     31  C3D      -16.5250   44.8990    9.6400 C.3   650  NAI650      0.2158
     32  O3D      -15.9150   45.9880   10.3820 O.3   650  NAI650     -0.2175
     33  C2D      -15.6080   43.6680    9.6000 C.3   650  NAI650      0.2309
     34  O2D      -14.2320   44.0350    9.3500 O.3   650  NAI650     -0.2158
     35  C1D      -15.8980   43.0700   11.0020 C.3   650  NAI650      0.2263
     36  N1N      -15.4270   41.6750   11.1960 N.pl3 650  NAI650     -0.2787
     37  C2N      -16.0420   40.7120   10.3920 C.3   650  NAI650      0.1244
     38  C3N      -15.5490   39.4380   10.2930 C.2   650  NAI650      0.0544
     39  C7N      -16.1180   38.5720    9.2110 C.2   650  NAI650      0.2818
     40  O7N      -15.8540   37.3830    9.1650 O.2   650  NAI650     -0.2670
     41  N7N      -16.9440   39.1270    8.3130 N.am  650  NAI650     -0.0839
     42  C4N      -14.3250   39.0600   11.0560 C.2   650  NAI650      0.0033
     43  C5N      -13.6870   40.0640   11.9080 C.2   650  NAI650      0.0157
     44  C6N      -14.2260   41.3550   11.9480 C.2   650  NAI650      0.0633
@<TRIPOS>BOND
     1     3     1    2
     2     2     1    1
     3    11    10    1
     4     9     8    1
     5     1    23    1
     6     1     4    1
     7     8    10    1
     8     8     6    1
     9    10    12    1
    10    23    24    1
    11    25    24    2
    12     4     5    1
    13     6     5    1
    14     6     7    1
    15    24    26    1
    16    24    27    1
    17    12    13    1
    18    12     7    1
    19    14    13    1
    20    14    15    1
    21    13    22    1
    22    41    39   am
    23    27    28    1
    24    15    16    2
    25    22    16    1
    26    22    21    2
    27    40    39    2
    28    39    38    1
    29    34    33    1
    30    16    17    1
    31    28    29    1
    32    33    31    1
    33    33    35    1
    34    31    29    1
    35    31    32    1
    36    21    20    1
    37    38    37    1
    38    38    42    2
    39    29    30    1
    40    37    36    1
    41    17    18    1
    42    17    19    2
    43    20    19    1
    44    35    30    1
    45    35    36    1
    46    42    43    1
    47    36    44    1
    48    43    44    2
