@<TRIPOS>MOLECULE
1rm3_NDP_A_1.pdb
 48 52 0 0 0
SMALL
GASTEIGER

@<TRIPOS>ATOM
      1  PA        87.1300   50.2360   35.0010 P.3   1335  NDP1335     0.2189
      2  O1A       86.7920   48.8180   35.3240 O.2   1335  NDP1335    -0.5170
      3  O2A       88.1090   50.9810   35.8340 O.3   1335  NDP1335    -0.4371
      4  O5B       85.7480   51.0340   34.8040 O.3   1335  NDP1335    -0.3112
      5  C5B       84.5520   50.2950   34.5420 C.3   1335  NDP1335     0.1813
      6  C4B       83.5270   50.7190   35.5610 C.3   1335  NDP1335     0.1820
      7  O4B       82.2100   50.3130   35.1690 O.3   1335  NDP1335    -0.3136
      8  C3B       83.8220   50.1630   36.9480 C.3   1335  NDP1335     0.2157
      9  O3B       83.9280   51.1860   37.9430 O.3   1335  NDP1335    -0.2175
     10  C2B       82.5350   49.4370   37.2410 C.3   1335  NDP1335     0.2314
     11  O2B       82.1850   49.5070   38.6180 O.3   1335  NDP1335    -0.2630
     12  C1B       81.5810   50.2510   36.4260 C.3   1335  NDP1335     0.3158
     13  N9A       80.3440   49.5170   36.3140 N.pl3 1335  NDP1335    -0.1439
     14  C8A       80.2350   48.2760   35.8090 C.3   1335  NDP1335     0.3377
     15  N7A       78.9510   47.9890   35.5950 N.2   1335  NDP1335    -0.2095
     16  C5A       78.3160   49.0750   36.0300 C.2   1335  NDP1335     0.2526
     17  C6A       76.9350   49.2430   36.0000 C.2   1335  NDP1335     0.4393
     18  N6A       76.1650   48.3200   35.4260 N.pl3 1335  NDP1335     0.2180
     19  N1A       76.4520   50.4030   36.5100 N.2   1335  NDP1335     0.0021
     20  C2A       77.2690   51.3220   37.0320 C.3   1335  NDP1335     0.5254
     21  N3A       78.5980   51.1750   37.0330 N.2   1335  NDP1335    -0.0055
     22  C4A       79.1510   50.0500   36.5210 C.2   1335  NDP1335     0.3518
     23  O3        87.7170   50.3720   33.5170 O.3   1335  NDP1335    -0.2703
     24  PN        88.0130   51.5410   32.4750 P.3   1335  NDP1335     0.2189
     25  O1N       89.3910   51.5470   31.9710 O.2   1335  NDP1335    -0.5170
     26  O2N       87.5020   52.7870   33.1020 O.3   1335  NDP1335    -0.4371
     27  O5D       87.2330   51.1250   31.1510 O.3   1335  NDP1335    -0.3112
     28  C5D       85.8330   51.3010   30.9880 C.3   1335  NDP1335     0.1813
     29  C4D       85.5950   51.4750   29.5190 C.3   1335  NDP1335     0.1799
     30  O4D       86.4030   52.5100   28.9400 O.3   1335  NDP1335    -0.3327
     31  C3D       85.9040   50.2570   28.7060 C.3   1335  NDP1335     0.2158
     32  O3D       84.9670   50.3580   27.6150 O.3   1335  NDP1335    -0.2175
     33  C2D       87.3530   50.4800   28.2480 C.3   1335  NDP1335     0.2309
     34  O2D       87.7900   49.7060   27.1000 O.3   1335  NDP1335    -0.2158
     35  C1D       87.2630   51.9650   27.9500 C.3   1335  NDP1335     0.2263
     36  N1N       88.5660   52.6650   27.9100 N.pl3 1335  NDP1335    -0.2787
     37  C2N       89.5790   52.5040   28.8880 C.3   1335  NDP1335     0.1244
     38  C3N       90.7830   53.2290   28.7850 C.2   1335  NDP1335     0.0544
     39  C7N       91.9560   53.1220   29.7870 C.2   1335  NDP1335     0.2818
     40  O7N       93.1180   53.2770   29.4290 O.2   1335  NDP1335    -0.2670
     41  N7N       91.7120   52.6450   30.9850 N.am  1335  NDP1335    -0.0839
     42  C4N       90.9290   54.1460   27.7540 C.2   1335  NDP1335     0.0033
     43  C5N       89.9340   54.2820   26.7910 C.2   1335  NDP1335     0.0157
     44  C6N       88.7580   53.5280   26.8330 C.2   1335  NDP1335     0.0633
     45  P2B       82.7790   48.3730   39.5640 P.3   1335  NDP1335     0.5328
     46  O1X       82.5550   46.8950   38.9210 O.2   1335  NDP1335    -0.2224
     47  O2X       84.2540   48.4680   39.6250 O.3   1335  NDP1335    -0.1145
     48  O3X       81.8640   48.5500   40.8730 O.3   1335  NDP1335    -0.1145
@<TRIPOS>BOND
     1    43    44    2
     2    43    42    1
     3    44    36    1
     4    34    33    1
     5    32    31    1
     6    42    38    2
     7    36    35    1
     8    36    37    1
     9    35    33    1
    10    35    30    1
    11    33    31    1
    12    31    29    1
    13    38    37    1
    14    38    39    1
    15    30    29    1
    16    40    39    2
    17    29    28    1
    18    39    41   am
    19    28    27    1
    20    27    24    1
    21    25    24    2
    22    24    26    1
    23    24    23    1
    24    23     1    1
    25     5     4    1
    26     5     6    1
    27     4     1    1
    28     1     2    2
    29     1     3    1
    30     7     6    1
    31     7    12    1
    32    18    17    1
    33     6     8    1
    34    15    14    1
    35    15    16    2
    36    14    13    1
    37    17    16    1
    38    17    19    2
    39    16    22    1
    40    13    12    1
    41    13    22    1
    42    12    10    1
    43    19    20    1
    44    22    21    2
    45     8    10    1
    46     8     9    1
    47    20    21    1
    48    10    11    1
    49    11    45    1
    50    46    45    2
    51    45    47    1
    52    45    48    1
