@<TRIPOS>MOLECULE
1rm4_NDP_A_1.pdb
 48 52 0 0 0
SMALL
GASTEIGER

@<TRIPOS>ATOM
      1  PA        19.8860  126.8690   44.5590 P.3   1335  NDP1335     0.2189
      2  O1A       19.0570  128.0610   44.3230 O.3   1335  NDP1335    -0.4371
      3  O2A       21.1450  126.6950   43.8140 O.2   1335  NDP1335    -0.5170
      4  O5B       19.0210  125.5100   44.3350 O.3   1335  NDP1335    -0.3112
      5  C5B       17.6070  125.3460   44.5880 C.3   1335  NDP1335     0.1813
      6  C4B       17.0670  124.3450   43.5550 C.3   1335  NDP1335     0.1820
      7  O4B       15.7090  123.9340   43.8310 O.3   1335  NDP1335    -0.3136
      8  C3B       17.0170  124.8610   42.1310 C.3   1335  NDP1335     0.2157
      9  O3B       17.4390  123.8980   41.1820 O.3   1335  NDP1335    -0.2175
     10  C2B       15.5450  125.0680   41.8980 C.3   1335  NDP1335     0.2314
     11  O2B       15.1800  125.0680   40.5230 O.3   1335  NDP1335    -0.2630
     12  C1B       14.9730  123.9070   42.6090 C.3   1335  NDP1335     0.3158
     13  N9A       13.5520  124.0730   42.9030 N.pl3 1335  NDP1335    -0.1439
     14  C8A       12.8940  125.2120   43.2020 C.3   1335  NDP1335     0.3377
     15  N7A       11.6300  124.9470   43.5590 N.2   1335  NDP1335    -0.2095
     16  C5A       11.5430  123.6350   43.4550 C.2   1335  NDP1335     0.2526
     17  C6A       10.3950  122.9040   43.7130 C.2   1335  NDP1335     0.4393
     18  N6A        9.2760  123.4990   44.0790 N.pl3 1335  NDP1335     0.2180
     19  N1A       10.4930  121.5690   43.5610 N.2   1335  NDP1335     0.0021
     20  C2A       11.6570  121.0120   43.1920 C.3   1335  NDP1335     0.5254
     21  N3A       12.7780  121.7170   42.9400 N.2   1335  NDP1335    -0.0055
     22  C4A       12.7270  123.0530   43.0600 C.2   1335  NDP1335     0.3518
     23  O3        20.2510  126.7760   46.0810 O.3   1335  NDP1335    -0.2703
     24  PN        21.2580  125.9090   46.9380 P.3   1335  NDP1335     0.2189
     25  O1N       22.4520  126.7170   47.3290 O.3   1335  NDP1335    -0.4371
     26  O2N       21.4670  124.6280   46.2270 O.2   1335  NDP1335    -0.5170
     27  O5D       20.5040  125.5340   48.2820 O.3   1335  NDP1335    -0.3112
     28  C5D       19.4190  124.6070   48.2460 C.3   1335  NDP1335     0.1813
     29  C4D       19.0690  124.2380   49.6840 C.3   1335  NDP1335     0.1799
     30  O4D       20.1840  123.6000   50.3270 O.3   1335  NDP1335    -0.3327
     31  C3D       18.7290  125.4020   50.6000 C.3   1335  NDP1335     0.2158
     32  O3D       17.9350  124.9130   51.6990 O.3   1335  NDP1335    -0.2175
     33  C2D       20.0590  125.7710   51.2200 C.3   1335  NDP1335     0.2309
     34  O2D       19.9210  126.4580   52.4840 O.3   1335  NDP1335    -0.2158
     35  C1D       20.6310  124.3910   51.4300 C.3   1335  NDP1335     0.2263
     36  N1N       22.1040  124.3770   51.5120 N.pl3 1335  NDP1335    -0.2787
     37  C2N       22.9060  125.2480   50.7160 C.3   1335  NDP1335     0.1244
     38  C3N       24.3040  125.2330   50.8260 C.2   1335  NDP1335     0.0544
     39  C7N       25.2510  125.9370   49.8160 C.2   1335  NDP1335     0.2818
     40  O7N       26.4490  126.0450   50.0920 O.2   1335  NDP1335    -0.2670
     41  N7N       24.7070  126.5770   48.7780 N.am  1335  NDP1335    -0.0839
     42  C4N       24.8600  124.3710   51.7760 C.2   1335  NDP1335     0.0033
     43  C5N       24.0720  123.5360   52.5780 C.2   1335  NDP1335     0.0157
     44  C6N       22.6890  123.5200   52.4480 C.2   1335  NDP1335     0.0633
     45  P2B       14.8870  126.5180   39.8600 P.3   1335  NDP1335     0.5328
     46  O1X       13.5240  127.1610   40.4480 O.3   1335  NDP1335    -0.1145
     47  O2X       16.0860  127.5440   40.2020 O.3   1335  NDP1335    -0.1145
     48  O3X       14.7780  126.3630   38.3940 O.2   1335  NDP1335    -0.2224
@<TRIPOS>BOND
     1    48    45    2
     2    45    47    1
     3    45    46    1
     4    45    11    1
     5    11    10    1
     6     9     8    1
     7    10     8    1
     8    10    12    1
     9     8     6    1
    10    12    13    1
    11    12     7    1
    12    13    22    1
    13    13    14    1
    14    21    22    2
    15    21    20    1
    16    22    16    1
    17    20    19    1
    18    14    15    1
    19    16    15    2
    20    16    17    1
    21     6     7    1
    22     6     5    1
    23    19    17    2
    24    17    18    1
    25     3     1    2
    26     2     1    1
    27     4     1    1
    28     4     5    1
    29     1    23    1
    30    23    24    1
    31    26    24    2
    32    24    25    1
    33    24    27    1
    34    28    27    1
    35    28    29    1
    36    41    39   am
    37    29    30    1
    38    29    31    1
    39    39    40    2
    40    39    38    1
    41    30    35    1
    42    31    33    1
    43    31    32    1
    44    37    38    1
    45    37    36    1
    46    38    42    2
    47    33    35    1
    48    33    34    1
    49    35    36    1
    50    36    44    1
    51    42    43    1
    52    44    43    2
