@<TRIPOS>MOLECULE
1rm5_NDP_A_1.pdb
 48 52 0 0 0
SMALL
GASTEIGER

@<TRIPOS>ATOM
      1  PA        20.4880  129.5360   45.3410 P.3   1335  NDP1335     0.2189
      2  O1A       19.5680  130.6210   44.8860 O.3   1335  NDP1335    -0.4371
      3  O2A       21.7550  129.2720   44.6110 O.2   1335  NDP1335    -0.5170
      4  O5B       19.6060  128.2090   45.5570 O.3   1335  NDP1335    -0.3112
      5  C5B       18.2120  128.3400   45.8430 C.3   1335  NDP1335     0.1813
      6  C4B       17.4570  127.6380   44.7470 C.3   1335  NDP1335     0.1820
      7  O4B       16.0930  127.4050   45.1240 O.3   1335  NDP1335    -0.3136
      8  C3B       17.4790  128.4140   43.4360 C.3   1335  NDP1335     0.2157
      9  O3B       18.0030  127.6450   42.3480 O.3   1335  NDP1335    -0.2175
     10  C2B       16.0060  128.5570   43.1650 C.3   1335  NDP1335     0.2314
     11  O2B       15.7080  128.4940   41.7750 O.3   1335  NDP1335    -0.2630
     12  C1B       15.4910  127.3330   43.8540 C.3   1335  NDP1335     0.3158
     13  N9A       14.0600  127.4590   43.9900 N.pl3 1335  NDP1335    -0.1439
     14  C8A       13.4380  128.4760   44.6130 C.3   1335  NDP1335     0.3377
     15  N7A       12.1550  128.1700   44.8020 N.2   1335  NDP1335    -0.2095
     16  C5A       12.0380  126.9710   44.2340 C.2   1335  NDP1335     0.2526
     17  C6A       10.8570  126.2350   44.1910 C.2   1335  NDP1335     0.4393
     18  N6A        9.7720  126.6780   44.8230 N.pl3 1335  NDP1335     0.2180
     19  N1A       10.9080  125.0410   43.5480 N.2   1335  NDP1335     0.0021
     20  C2A       12.0350  124.6150   42.9690 C.3   1335  NDP1335     0.5254
     21  N3A       13.1770  125.3080   43.0360 N.2   1335  NDP1335    -0.0055
     22  C4A       13.2040  126.4990   43.6810 C.2   1335  NDP1335     0.3518
     23  O3        20.9660  129.7740   46.8510 O.3   1335  NDP1335    -0.2703
     24  PN        21.6710  128.9290   48.0040 P.3   1335  NDP1335     0.2189
     25  O1N       22.8270  129.6040   48.6080 O.3   1335  NDP1335    -0.4371
     26  O2N       21.8800  127.5680   47.4450 O.2   1335  NDP1335    -0.5170
     27  O5D       20.6530  128.9680   49.2280 O.3   1335  NDP1335    -0.3112
     28  C5D       19.4970  128.1480   49.3020 C.3   1335  NDP1335     0.1813
     29  C4D       19.2190  127.9340   50.7590 C.3   1335  NDP1335     0.1799
     30  O4D       20.3560  127.4370   51.4790 O.3   1335  NDP1335    -0.3327
     31  C3D       18.8260  129.1800   51.4900 C.3   1335  NDP1335     0.2158
     32  O3D       17.9420  128.6820   52.5140 O.3   1335  NDP1335    -0.2175
     33  C2D       20.1520  129.6980   52.0690 C.3   1335  NDP1335     0.2309
     34  O2D       20.0470  130.6280   53.1790 O.3   1335  NDP1335    -0.2158
     35  C1D       20.7460  128.3640   52.4810 C.3   1335  NDP1335     0.2263
     36  N1N       22.2130  128.3770   52.6740 N.pl3 1335  NDP1335    -0.2787
     37  C2N       23.1240  128.9680   51.7640 C.3   1335  NDP1335     0.1244
     38  C3N       24.5110  128.9150   52.0140 C.2   1335  NDP1335     0.0544
     39  C7N       25.5890  129.5350   51.0960 C.2   1335  NDP1335     0.2818
     40  O7N       26.6400  129.9690   51.5500 O.2   1335  NDP1335    -0.2670
     41  N7N       25.2730  129.7930   49.8480 N.am  1335  NDP1335    -0.0839
     42  C4N       24.9660  128.2190   53.1250 C.2   1335  NDP1335     0.0033
     43  C5N       24.0600  127.6580   54.0190 C.2   1335  NDP1335     0.0157
     44  C6N       22.6800  127.7520   53.8290 C.2   1335  NDP1335     0.0633
     45  P2B       15.7600  129.8690   40.9720 P.3   1335  NDP1335     0.5328
     46  O1X       15.8560  131.1380   41.9880 O.3   1335  NDP1335    -0.1145
     47  O2X       17.0270  129.9790   40.2150 O.2   1335  NDP1335    -0.2224
     48  O3X       14.3330  129.8550   40.2390 O.3   1335  NDP1335    -0.1145
@<TRIPOS>BOND
     1    47    45    2
     2    48    45    1
     3    45    11    1
     4    45    46    1
     5    11    10    1
     6     9     8    1
     7    20    21    1
     8    20    19    1
     9    21    22    2
    10    10     8    1
    11    10    12    1
    12     8     6    1
    13    19    17    2
    14    22    13    1
    15    22    16    1
    16    12    13    1
    17    12     7    1
    18    13    14    1
    19    17    16    1
    20    17    18    1
    21    16    15    2
    22     3     1    2
    23    14    15    1
    24     6     7    1
    25     6     5    1
    26     2     1    1
    27     1     4    1
    28     1    23    1
    29     4     5    1
    30    23    24    1
    31    26    24    2
    32    24    25    1
    33    24    27    1
    34    27    28    1
    35    28    29    1
    36    41    39   am
    37    29    30    1
    38    29    31    1
    39    39    40    2
    40    39    38    1
    41    30    35    1
    42    31    33    1
    43    31    32    1
    44    37    38    1
    45    37    36    1
    46    38    42    2
    47    33    35    1
    48    33    34    1
    49    35    36    1
    50    36    44    1
    51    42    43    1
    52    44    43    2
