@<TRIPOS>MOLECULE
1rm6_PCD_A_1.pdb
 48 53 0 0 0
SMALL
GASTEIGER

@<TRIPOS>ATOM
      1  N1        26.1370   54.8990  163.3960 N.am  920  PCD920      0.0000
      2  C2        27.2660   54.8560  164.1510 C.1   920  PCD920      0.0000
      3  N3        27.1210   55.1270  165.5020 N.2   920  PCD920      0.0000
      4  C4        25.9030   55.4110  166.1130 C.2   920  PCD920      0.0000
      5  C5        24.6980   55.3310  165.2050 C.2   920  PCD920      0.0000
      6  C6        24.8580   55.0960  163.8940 C.2   920  PCD920      0.0000
      7  O2        28.3990   54.6320  163.7250 O.2   920  PCD920      0.0000
      8  N4        25.7920   55.7670  167.3930 N.pl3 920  PCD920      0.0000
      9  C1'       26.3060   54.7750  161.9520 C.3   920  PCD920      0.0000
     10  C2D       26.4630   53.4420  161.2070 C.3   920  PCD920      0.0000
     11  O2'       27.1610   53.5810  159.9790 O.3   920  PCD920      0.0000
     12  C3'       24.9390   53.2380  161.0900 C.3   920  PCD920      0.0000
     13  C4D       24.4170   54.6050  160.5390 C.3   920  PCD920      0.0000
     14  O4D       25.2600   55.5340  161.3020 O.3   920  PCD920      0.0000
     15  O3'       24.7210   52.2370  160.1260 O.3   920  PCD920      0.0000
     16  C5'       22.8680   54.7900  160.6420 C.3   920  PCD920      0.0000
     17  O5'       22.5030   54.3410  161.9560 O.3   920  PCD920      0.0000
     18  PA        20.9710   54.5210  162.4250 P.3   920  PCD920      0.0000
     19  O1A       20.8510   53.5420  163.5430 O.3   920  PCD920     -0.5000
     20  O2A       20.8230   56.0040  162.6240 O.2   920  PCD920     -0.5000
     21  O3A       20.0060   54.0810  161.1520 O.3   920  PCD920      0.0000
     22  PB        19.5360   52.6310  160.6550 P.3   920  PCD920      0.0000
     23  O1B       18.2800   52.3270  161.4460 O.3   920  PCD920     -0.5000
     24  O2B       20.7690   51.7680  160.5210 O.2   920  PCD920     -0.5000
     25  O3B       19.1780   53.0740  159.1870 O.3   920  PCD920      0.0000
     26  C10       17.9020   53.4790  158.7480 C.3   920  PCD920      0.0000
     27  C9'       17.9400   54.9840  158.5470 C.3   920  PCD920      0.0000
     28  C8'       16.6810   55.7100  158.0680 C.2   920  PCD920      0.0000
     29  S8'       15.2170   55.2450  158.8940 S.3   920  PCD920      0.0000
     30  C7'       16.6830   56.6820  157.0710 C.2   920  PCD920      0.0000
     31  S7'       15.1390   57.4110  156.6010 S.3   920  PCD920      0.0000
     32  C6'       17.9890   57.0830  156.4400 C.3   920  PCD920      0.0000
     33  C7        19.1860   56.6830  157.3410 C.3   920  PCD920      0.0000
     34  O9'       19.0470   55.3010  157.6410 O.3   920  PCD920      0.0000
     35  N5'       17.8750   56.4070  155.0840 N.2   920  PCD920      0.0000
     36  C4A       19.2100   56.3690  154.5850 C.2   920  PCD920      0.0000
     37  N8'       20.2740   56.9990  156.4450 N.2   920  PCD920      0.0000
     38  C4B       20.5570   56.6770  155.0860 C.1   920  PCD920      0.0000
     39  N1'       21.7210   56.6590  154.4640 N.2   920  PCD920      0.0000
     40  C2'       21.6810   56.2570  153.1160 C.1   920  PCD920      0.0000
     41  N2'       22.9810   56.3840  152.7420 N.pl3 920  PCD920      0.0000
     42  N3'       20.5160   55.8740  152.5250 N.2   920  PCD920      0.0000
     43  C4'       19.3880   55.9600  153.2960 C.1   920  PCD920      0.0000
     44  O4'       18.4480   55.5360  152.4130 O.2   920  PCD920      0.0000
     45 MO         13.4730   55.9780  157.4120 Mo    920  PCD920      0.0000
     46  OR1       12.0840   57.5440  156.9480 O.3   920  PCD920      0.0000
     47  OM2       12.2770   55.4660  158.7360 O.3   920  PCD920      0.0000
     48  OM1       13.4470   54.7640  156.2020 O.3   920  PCD920      0.0000
@<TRIPOS>BOND
     1    44    43    2
     2    42    40    2
     3    42    43    2
     4    41    40    1
     5    40    39    2
     6    43    36    1
     7    39    38    2
     8    36    35    2
     9    36    38    1
    10    35    32    1
    11    38    37    2
    12    48    45    1
    13    32    30    1
    14    32    33    1
    15    37    33    1
    16    31    30    1
    17    31    45    1
    18    46    45    1
    19    30    28    2
    20    33    34    1
    21    45    47    1
    22    45    29    1
    23    34    27    1
    24    28    27    1
    25    28    29    1
    26    27    26    1
    27    26    25    1
    28    25    22    1
    29    11    10    1
    30    15    12    1
    31    24    22    2
    32    13    16    1
    33    13    12    1
    34    13    14    1
    35    16    17    1
    36    22    21    1
    37    22    23    1
    38    12    10    1
    39    21    18    1
    40    10     9    1
    41    14     9    1
    42     9     1    1
    43    17    18    1
    44    18    20    2
    45    18    19    1
    46     1     6    1
    47     1     2   am
    48     7     2    2
    49     6     5    2
    50     2     3    2
    51     5     4    1
    52     3     4    2
    53     4     8    1
