@<TRIPOS>MOLECULE
1rmg_BMA_A_1.pdb
 11 11 0 0 0
SMALL
GASTEIGER

@<TRIPOS>ATOM
      1  C1        57.6200   72.6490  137.0310 C.3   427  BMA427      0.1777
      2  C2        56.5710   72.9310  138.1160 C.3   427  BMA427      0.2141
      3  C3        55.5670   71.7900  138.2740 C.3   427  BMA427      0.2173
      4  C4        55.5000   70.9500  137.0150 C.3   427  BMA427      0.2142
      5  C5        56.8590   70.3690  136.6510 C.3   427  BMA427      0.1810
      6  C6        56.9040   70.0580  135.1620 C.3   427  BMA427      0.2141
      7  O2        55.8810   74.1410  137.8500 O.3   427  BMA427     -0.2176
      8  O3        54.2750   72.3240  138.5470 O.3   427  BMA427     -0.2175
      9  O4        54.5880   69.8800  137.2130 O.3   427  BMA427     -0.2176
     10  O5        57.9540   71.2580  137.0010 O.3   427  BMA427     -0.3481
     11  O6        58.2490   70.0820  134.7220 O.3   427  BMA427     -0.2176
@<TRIPOS>BOND
     1    11     6    1
     2     6     5    1
     3     5    10    1
     4     5     4    1
     5    10     1    1
     6     4     9    1
     7     4     3    1
     8     1     2    1
     9     7     2    1
    10     2     3    1
    11     3     8    1
