@<TRIPOS>MOLECULE
1rmg_MAN_A_1.pdb
 11 11 0 0 0
SMALL
GASTEIGER

@<TRIPOS>ATOM
      1  C1        45.0430  101.9060  113.4560 C.3   428  MAN428      0.1777
      2  C2        43.8190  102.7580  113.1090 C.3   428  MAN428      0.2141
      3  C3        43.3670  102.4680  111.6820 C.3   428  MAN428      0.2173
      4  C4        44.5270  102.7110  110.7300 C.3   428  MAN428      0.2142
      5  C5        45.7260  101.8670  111.1380 C.3   428  MAN428      0.1810
      6  C6        46.9190  102.1400  110.2050 C.3   428  MAN428      0.2141
      7  O2        44.1610  104.1270  113.2290 O.3   428  MAN428     -0.2176
      8  O3        42.2820  103.3210  111.3440 O.3   428  MAN428     -0.2175
      9  O4        44.1400  102.3800  109.4100 O.3   428  MAN428     -0.2176
     10  O5        46.0930  102.1710  112.5040 O.3   428  MAN428     -0.3481
     11  O6        48.0930  101.5120  110.7090 O.3   428  MAN428     -0.2176
@<TRIPOS>BOND
     1     9     4    1
     2     6    11    1
     3     6     5    1
     4     4     5    1
     5     4     3    1
     6     5    10    1
     7     8     3    1
     8     3     2    1
     9    10     1    1
    10     2     7    1
    11     2     1    1
