@<TRIPOS>MOLECULE
1rmg_GLC_A_1.pdb
 11 11 0 0 0
SMALL
GASTEIGER

@<TRIPOS>ATOM
      1  C1        26.4070   97.1820  109.2550 C.3   433  GLC433      0.1777
      2  C2        27.7520   97.4410  109.9320 C.3   433  GLC433      0.2141
      3  C3        27.5920   98.6840  110.8170 C.3   433  GLC433      0.2173
      4  C4        27.1010   99.8630  109.9810 C.3   433  GLC433      0.2142
      5  C5        25.7940   99.5390  109.2390 C.3   433  GLC433      0.1810
      6  C6        25.4280  100.6620  108.2770 C.3   433  GLC433      0.2141
      7  O2        27.9590   96.3340  110.7880 O.3   433  GLC433     -0.2176
      8  O3        28.8260   99.0130  111.4440 O.3   433  GLC433     -0.2175
      9  O4        26.8860  100.9620  110.8470 O.3   433  GLC433     -0.2176
     10  O5        25.9130   98.2970  108.4850 O.3   433  GLC433     -0.3481
     11  O6        24.3820  100.2250  107.4180 O.3   433  GLC433     -0.2176
@<TRIPOS>BOND
     1    11     6    1
     2     6     5    1
     3    10     5    1
     4    10     1    1
     5     5     4    1
     6     1     2    1
     7     2     7    1
     8     2     3    1
     9     4     3    1
    10     4     9    1
    11     3     8    1
