@<TRIPOS>MOLECULE
1rmh_III_C_1.pdb
 49 51 0 0 0
SMALL
GASTEIGER

@<TRIPOS>ATOM
      1  C1         4.5870   54.9160   68.7830 C.2     1  SIN1        0.3881
      2  O1         3.8570   55.3720   69.6760 O.co2   1  SIN1       -0.2405
      3  O2         5.1890   53.8630   68.9550 O.co2   1  SIN1       -0.2405
      4  C2         4.7580   55.6290   67.4340 C.2     1  SIN1        0.0908
      5  C3         5.0640   57.1250   67.5160 C.2     1  SIN1        0.0645
      6  C4         5.3700   57.9000   66.2380 C.2     1  SIN1        0.2465
      7  O3         5.7290   59.0770   66.3070 O.2     1  SIN1       -0.2701
      8  N          5.2920   57.3250   65.0410 N.am    2  ALA2       -0.2948
      9  CA         5.5310   58.0870   63.8060 C.3     2  ALA2        0.1488
     10  C          4.3530   58.9580   63.4160 C.2     2  ALA2        0.2406
     11  O          4.4480   60.0540   62.8540 O.2     2  ALA2       -0.2733
     12  CB         5.7810   57.1810   62.6100 C.3     2  ALA2        0.0312
     13  H          5.0940   56.3710   65.0240 H       2  ALA2        0.1501
     14  N          3.2100   58.3600   63.6860 N.am    3  ALA3       -0.2970
     15  CA         1.9600   59.0030   63.4050 C.3     3  ALA3        0.1489
     16  C          1.7040   59.8710   64.6240 C.2     3  ALA3        0.2438
     17  O          2.0540   59.4170   65.7100 O.2     3  ALA3       -0.2731
     18  CB         0.8800   57.9670   63.2740 C.3     3  ALA3        0.0312
     19  H          3.2100   57.5590   64.2530 H       3  ALA3        0.1499
     20  N          1.0780   61.0520   64.6220 N.am    4  PRO4       -0.2717
     21  CA         0.3060   61.5230   63.5080 C.3     4  PRO4        0.1518
     22  C          1.1170   62.0300   62.3550 C.2     4  PRO4        0.2409
     23  O          2.2260   62.5370   62.5240 O.2     4  PRO4       -0.2733
     24  CB        -0.5830   62.5620   64.0990 C.3     4  PRO4        0.0310
     25  CG         0.2210   63.1620   65.1760 C.3     4  PRO4        0.0237
     26  CD         0.7900   61.9060   65.7670 C.3     4  PRO4        0.0939
     27  N          0.5260   61.8260   61.1850 N.am    5  PHE5       -0.2967
     28  CA         1.0880   62.2820   59.9310 C.3     5  PHE5        0.1533
     29  C          0.4850   63.6600   59.7750 C.2     5  PHE5        0.2443
     30  O         -0.6870   63.9700   59.9870 O.2     5  PHE5       -0.2730
     31  CB         0.6790   61.3880   58.7470 C.3     5  PHE5        0.0553
     32  CG         1.3150   60.0040   58.8100 C.ar    5  PHE5       -0.0200
     33  CD1        2.6880   59.8630   59.0600 C.ar    5  PHE5       -0.0042
     34  CD2        0.5070   58.8590   58.7230 C.ar    5  PHE5       -0.0042
     35  CE1        3.2260   58.5910   59.2890 C.ar    5  PHE5       -0.0003
     36  CE2        1.0520   57.5920   58.9590 C.ar    5  PHE5       -0.0003
     37  CZ         2.4080   57.4610   59.2590 C.ar    5  PHE5       -0.0000
     38  H         -0.3860   61.4730   61.1540 H       5  PHE5        0.1499
     39  N1         1.4760   64.4820   59.5580 N.am    6  NIT6       -0.2826
     40  C1         1.3500   65.9020   59.4140 C.ar    6  NIT6        0.0504
     41  C2         0.1630   66.5500   59.1040 C.ar    6  NIT6        0.0164
     42  C3         0.1520   67.9410   59.0140 C.ar    6  NIT6        0.0253
     43  C4         1.3290   68.6620   59.2230 C.ar    6  NIT6        0.1430
     44  N4         1.3590   69.9750   59.1650 N.pl3   6  NIT6        0.0577
     45  ON1        2.3900   70.6130   59.3240 O.2     6  NIT6       -0.1261
     46  ON2        0.3630   70.6200   58.9580 O.2     6  NIT6       -0.1261
     47  C5         2.5070   67.9760   59.5240 C.ar    6  NIT6        0.0253
     48  C6         2.5180   66.6090   59.6150 C.ar    6  NIT6        0.0164
     49 HN11        2.3600   64.0850   59.4450 H       6  NIT6        0.1549
@<TRIPOS>BOND
     1    34    32   ar
     2    34    36   ar
     3    31    32    1
     4    31    28    1
     5    32    33   ar
     6    46    44    2
     7    36    37   ar
     8    42    41   ar
     9    42    43   ar
    10    33    35   ar
    11    41    40   ar
    12    44    43    1
    13    44    45    2
    14    43    47   ar
    15    37    35   ar
    16    40    39    1
    17    40    48   ar
    18    49    39    1
    19    47    48   ar
    20    39    29   am
    21    29    28    1
    22    29    30    2
    23    28    27    1
    24    38    27    1
    25    27    22   am
    26    22    23    2
    27    22    21    1
    28    12     9    1
    29    11    10    2
    30    18    15    1
    31    15    14    1
    32    15    16    1
    33    10    14   am
    34    10     9    1
    35    21    24    1
    36    21    20    1
    37    14    19    1
    38     9     8    1
    39    24    25    1
    40    20    16   am
    41    20    26    1
    42    16    17    2
    43    13     8    1
    44     8     6   am
    45    25    26    1
    46     6     7    2
    47     6     5    1
    48     4     5    2
    49     4     1    1
    50     1     3   ar
    51     1     2   ar
