@<TRIPOS>MOLECULE
1rml_NTS_A_1.pdb
 27 28 0 0 0
SMALL
GASTEIGER

@<TRIPOS>ATOM
      1  C1        15.8800   -2.6030   -1.2230 C.ar  178  NTS178      0.1051
      2  C2        16.4440   -3.8610   -1.0080 C.ar  178  NTS178     -0.0103
      3  C3        15.7740   -5.0110   -1.4210 C.ar  178  NTS178      0.0980
      4  C4        14.5360   -4.9030   -2.0510 C.ar  178  NTS178     -0.0284
      5  C5        12.7270   -3.5530   -2.9000 C.ar  178  NTS178     -0.0285
      6  C6        12.1470   -2.3060   -3.1230 C.ar  178  NTS178      0.0962
      7  C7        12.8100   -1.1510   -2.7130 C.ar  178  NTS178     -0.0357
      8  C8        14.0500   -1.2450   -2.0810 C.ar  178  NTS178     -0.0504
      9  C9        14.6380   -2.4920   -1.8540 C.ar  178  NTS178      0.0077
     10  C10       13.9680   -3.6470   -2.2680 C.ar  178  NTS178     -0.0124
     11  O11       15.6580    0.0300    0.0940 O.3   178  NTS178     -0.0650
     12  O12       17.6270   -0.3500   -2.0530 O.3   178  NTS178     -0.0650
     13  O13       18.0300   -1.6400    0.5560 O.3   178  NTS178     -0.0650
     14  O31       17.8300   -6.9160   -2.3380 O.3   178  NTS178     -0.0650
     15  O32       15.2540   -7.9170   -1.3370 O.3   178  NTS178     -0.0650
     16  O33       17.1960   -6.7180    0.5260 O.3   178  NTS178     -0.0650
     17  O61        9.3110   -1.5890   -2.7600 O.3   178  NTS178     -0.0650
     18  O62       10.0380   -3.8080   -4.5440 O.3   178  NTS178     -0.0650
     19  O63       10.6390   -1.0320   -5.3220 O.3   178  NTS178     -0.0650
     20  S1        16.8020   -1.1370   -0.6600 S.3   178  NTS178      0.0415
     21  S3        16.5150   -6.6470   -1.1390 S.3   178  NTS178      0.0409
     22  S6        10.5290   -2.1850   -3.9440 S.3   178  NTS178      0.0409
     23  H2        17.4170   -3.9510   -0.5130 H     178  NTS178      0.0656
     24  H4        14.0150   -5.8120   -2.3760 H     178  NTS178      0.0643
     25  H5        12.2010   -4.4580   -3.2260 H     178  NTS178      0.0643
     26  H7        12.3560   -0.1690   -2.8870 H     178  NTS178      0.0637
     27  H8        14.5460   -0.3200   -1.7710 H     178  NTS178      0.0625
@<TRIPOS>BOND
     1    19    22    1
     2    18    22    1
     3    22     6    1
     4    22    17    1
     5    25     5    1
     6     6     5   ar
     7     6     7   ar
     8     5    10   ar
     9    26     7    1
    10     7     8   ar
    11    24     4    1
    12    14    21    1
    13    10     4   ar
    14    10     9   ar
    15     8     9   ar
    16     8    27    1
    17    12    20    1
    18     4     3   ar
    19     9     1   ar
    20     3    21    1
    21     3     2   ar
    22    15    21    1
    23     1     2   ar
    24     1    20    1
    25    21    16    1
    26     2    23    1
    27    20    11    1
    28    20    13    1
