@<TRIPOS>MOLECULE
1rms_3GP_A_1.pdb
 24 27 0 0 0
SMALL
GASTEIGER

@<TRIPOS>ATOM
      1  P         31.8170   41.2980   30.4390 P.3   106  3GP106      0.5327
      2  O1P       32.2320   42.1610   31.5520 O.3   106  3GP106     -0.1145
      3  O2P       32.2410   41.4880   29.0340 O.2   106  3GP106     -0.2224
      4  O3P       30.4140   40.7900   30.4080 O.3   106  3GP106     -0.1145
      5  O5'       30.5600   39.0420   33.9550 O.3   106  3GP106     -0.2177
      6  C5'       30.6170   38.7800   32.5720 C.3   106  3GP106      0.2116
      7  C4'       31.9970   38.1420   32.3580 C.3   106  3GP106      0.1802
      8  O4'       31.8520   36.7480   32.2830 O.3   106  3GP106     -0.3326
      9  C3'       31.6640   38.7910   31.0400 C.3   106  3GP106      0.1927
     10  O3'       32.5720   39.9000   30.6430 O.3   106  3GP106     -0.2673
     11  C2'       31.7560   37.6230   30.1440 C.3   106  3GP106      0.2284
     12  O2'       32.9610   37.3700   29.4070 O.3   106  3GP106     -0.2159
     13  C1'       31.3110   36.4850   30.9940 C.3   106  3GP106      0.2292
     14  N9        29.9280   36.0110   30.8870 N.pl3 106  3GP106     -0.2354
     15  C8        29.4300   35.2710   29.8390 C.3   106  3GP106      0.2246
     16  N7        28.1200   34.9930   30.0590 N.2   106  3GP106     -0.2322
     17  C5        27.7990   35.5400   31.2380 C.2   106  3GP106      0.2182
     18  C6        26.6060   35.5430   32.0040 C.1   106  3GP106      0.2372
     19  O6        25.5010   35.0950   31.7320 O.2   106  3GP106     -0.2069
     20  N1        26.6490   36.2590   33.1800 N.2   106  3GP106     -0.2485
     21  C2        27.7380   36.8910   33.7020 C.1   106  3GP106      0.2531
     22  N2        27.7560   37.5620   34.8710 N.pl3 106  3GP106     -0.0226
     23  N3        28.8550   36.8380   32.9580 N.2   106  3GP106     -0.3074
     24  C4        28.9110   36.1830   31.7720 C.2   106  3GP106      0.2300
@<TRIPOS>BOND
     1     3     1    2
     2    12    11    1
     3    15    16    1
     4    15    14    1
     5    16    17    2
     6    11    13    1
     7    11     9    1
     8     4     1    1
     9     1    10    1
    10     1     2    1
    11    10     9    1
    12    14    13    1
    13    14    24    1
    14    13     8    1
    15     9     7    1
    16     9     6    1
    17    17    24    1
    18    17    18    1
    19    19    18    2
    20    24    23    2
    21    18    20    2
    22     8     7    1
    23     7     6    1
    24     6     5    1
    25    23    21    2
    26    20    21    2
    27    21    22    1
