@<TRIPOS>MOLECULE
1rmt_ADN_A_1.pdb
 19 21 0 0 0
SMALL
GASTEIGER

@<TRIPOS>ATOM
      1  O5'       26.4900    8.4430    9.1700 O.3   1501  ADN1501    -0.2176
      2  C5'       25.4520    7.4500    9.3070 C.3   1501  ADN1501     0.2143
      3  C4'       24.0920    8.0550    8.9820 C.3   1501  ADN1501     0.1851
      4  O4'       23.8760    7.4740    7.7080 O.3   1501  ADN1501    -0.3134
      5  C3'       24.2600    9.5540    8.8790 C.3   1501  ADN1501     0.2186
      6  O3'       23.1120   10.2190    9.3730 O.3   1501  ADN1501    -0.2174
      7  C2'       24.3180    9.8580    7.4130 C.3   1501  ADN1501     0.2570
      8  O2'       23.4020   10.9180    7.1620 O.3   1501  ADN1501    -0.2130
      9  C1'       24.0490    8.5000    6.7390 C.3   1501  ADN1501     0.3186
     10  N9        22.8840    8.4200    5.8630 N.pl3 1501  ADN1501    -0.1439
     11  C8        22.2550    7.2610    5.5370 C.3   1501  ADN1501     0.3377
     12  N7        21.2590    7.4860    4.6620 N.2   1501  ADN1501    -0.2095
     13  C5        21.2620    8.8020    4.4120 C.2   1501  ADN1501     0.2526
     14  C6        20.5280    9.7590    3.5920 C.2   1501  ADN1501     0.4393
     15  N6        19.5280    9.2600    2.8660 N.pl3 1501  ADN1501     0.2180
     16  N1        20.8440   11.0830    3.5950 N.2   1501  ADN1501     0.0021
     17  C2        21.8530   11.5810    4.3250 C.3   1501  ADN1501     0.5254
     18  N3        22.6020   10.7900    5.1230 N.2   1501  ADN1501    -0.0055
     19  C4        22.3170    9.3800    5.1750 C.2   1501  ADN1501     0.3518
@<TRIPOS>BOND
     1    15    14    1
     2    14    16    2
     3    14    13    1
     4    16    17    1
     5    17    18    1
     6    13    12    2
     7    13    19    1
     8    12    11    1
     9    18    19    2
    10    19    10    1
    11    11    10    1
    12    10     9    1
    13     9     7    1
    14     9     4    1
    15     8     7    1
    16     7     5    1
    17     4     3    1
    18     5     3    1
    19     5     6    1
    20     3     2    1
    21     1     2    1
