@<TRIPOS>MOLECULE
1rmy_DCZ_A_1.pdb
 16 17 0 0 0
SMALL
GASTEIGER

@<TRIPOS>ATOM
      1  N1         1.3120   -8.3290   26.3080 N.am  807  DCZ807     -0.1802
      2  C2         1.8790   -9.6310   26.2710 C.1   807  DCZ807      0.2756
      3  N3         3.0900   -9.8500   25.7330 N.2   807  DCZ807     -0.3024
      4  C4         3.7710   -8.8250   25.2190 C.2   807  DCZ807      0.2346
      5  C5         3.2250   -7.5270   25.2320 C.2   807  DCZ807      0.0687
      6  C6         1.9720   -7.2810   25.7890 C.2   807  DCZ807      0.0835
      7  O2         1.2610  -10.6170   26.7380 O.2   807  DCZ807     -0.1925
      8  N4         4.9790   -9.1080   24.6820 N.pl3 807  DCZ807     -0.0921
      9  C1'       -0.0070   -8.2540   26.9290 C.3   807  DCZ807      0.2090
     10  C2'       -0.3020   -6.9600   27.6560 C.3   807  DCZ807      0.0874
     11  C3'       -0.4570   -7.3250   29.1170 C.3   807  DCZ807      0.1858
     12  C4'       -0.2070   -8.8130   29.2430 C.3   807  DCZ807      0.1802
     13  O4'        0.0130   -9.2930   27.9220 O.3   807  DCZ807     -0.3338
     14  O3'        0.5090   -6.6250   29.8740 O.3   807  DCZ807     -0.2203
     15  C5'       -1.3310   -9.5790   29.9220 C.3   807  DCZ807      0.2141
     16  O5'       -0.9060  -10.9250   30.1180 O.3   807  DCZ807     -0.2176
@<TRIPOS>BOND
     1     8     4    1
     2     4     5    1
     3     4     3    2
     4     5     6    2
     5     3     2    2
     6     6     1    1
     7     2     1   am
     8     2     7    2
     9     1     9    1
    10     9    10    1
    11     9    13    1
    12    10    11    1
    13    13    12    1
    14    11    12    1
    15    11    14    1
    16    12    15    1
    17    15    16    1
