@<TRIPOS>MOLECULE
1rmz_NGH_A_1.pdb
 21 21 0 0 0
SMALL
GASTEIGER

@<TRIPOS>ATOM
      1  C1         5.6860   25.7730    5.1030 C.ar  269  NGH269      0.0230
      2  C2         4.8190   24.5880    5.4310 C.ar  269  NGH269      0.0383
      3  C3         5.3440   23.2220    5.0390 C.ar  269  NGH269      0.1388
      4  C4         6.7490   22.9920    4.6070 C.ar  269  NGH269      0.0383
      5  C5         7.5880   24.1570    4.3210 C.ar  269  NGH269      0.0230
      6  C6         6.9710   25.5300    4.3710 C.ar  269  NGH269      0.1224
      7  O1         4.8060   22.0520    5.6080 O.3   269  NGH269     -0.4714
      8  C7         3.4810   22.1230    6.1270 C.3   269  NGH269      0.2525
      9  S1         8.0310   26.8030    4.1980 S.O2  269  NGH269      0.0634
     10  O2         9.4750   26.2970    4.2240 O.2   269  NGH269     -0.1528
     11  O3         7.7140   27.9250    5.2210 O.2   269  NGH269     -0.1528
     12  N          7.8730   27.1890    2.6870 N.3   269  NGH269     -0.1513
     13  C9         6.7760   28.0630    2.2290 C.3   269  NGH269      0.0959
     14  C10        8.7190   26.5180    1.6770 C.3   269  NGH269      0.1496
     15  C11        7.8710   25.3180    1.2280 C.3   269  NGH269      0.2734
     16  N1         8.5430   24.1350    0.8100 N.4   269  NGH269     -0.0141
     17  O4         7.8450   23.1190    0.5040 O.3   269  NGH269     -0.0975
     18  O5         6.8870   25.5300    0.2820 O.3   269  NGH269     -0.1994
     19  C12        7.2480   29.3240    1.4730 C.3   269  NGH269      0.0178
     20  C13        7.6240   30.4300    2.4390 C.3   269  NGH269      0.0015
     21  C14        6.2040   29.8250    0.4700 C.3   269  NGH269      0.0015
@<TRIPOS>BOND
     1    18    15    1
     2    21    19    1
     3    17    16    1
     4    16    15    1
     5    15    14    1
     6    19    13    1
     7    19    20    1
     8    14    12    1
     9    13    12    1
    10    12     9    1
    11     9    10    2
    12     9     6    1
    13     9    11    2
    14     5     6   ar
    15     5     4   ar
    16     6     1   ar
    17     4     3   ar
    18     3     2   ar
    19     3     7    1
    20     1     2   ar
    21     7     8    1
