@<TRIPOS>MOLECULE
1rn8_DUP_A_1.pdb
 28 29 0 0 0
SMALL
GASTEIGER

@<TRIPOS>ATOM
      1  O4        -4.6080   33.0700    2.4150 O.2   777  DUP777     -0.2085
      2  C4        -5.5570   32.5950    3.0670 C.1   777  DUP777      0.2182
      3  C5        -6.5730   33.3990    3.5920 C.2   777  DUP777      0.1242
      4  C6        -7.5860   32.7890    4.3010 C.2   777  DUP777      0.0928
      5  N3        -5.5960   31.2680    3.2830 N.2   777  DUP777     -0.2452
      6  C2        -6.5750   30.6710    3.9810 C.1   777  DUP777      0.2844
      7  O2        -6.5360   29.4380    4.1690 O.2   777  DUP777     -0.1918
      8  N1        -7.6100   31.4460    4.4980 N.am  777  DUP777     -0.1790
      9  C1'       -8.6770   30.7960    5.2710 C.3   777  DUP777      0.2090
     10  C2'       -8.5030   31.0670    6.7530 C.3   777  DUP777      0.0874
     11  C3'       -9.4910   32.1670    7.0690 C.3   777  DUP777      0.1857
     12  O3'       -9.9210   32.1280    8.4390 O.3   777  DUP777     -0.2203
     13  O4'       -9.9210   31.3640    4.8990 O.3   777  DUP777     -0.3339
     14  C4'      -10.5970   31.9280    6.0410 C.3   777  DUP777      0.1774
     15  C5'      -11.4230   33.1600    5.6720 C.3   777  DUP777      0.1848
     16  O5'      -10.5930   34.2330    5.2170 O.3   777  DUP777     -0.2775
     17  PA       -11.2260   35.5420    4.5030 P.3   777  DUP777      0.4623
     18  O1A      -12.3010   36.0640    5.4150 O.3   777  DUP777     -0.1255
     19  O2A      -10.0430   36.4150    4.1610 O.2   777  DUP777     -0.2354
     20  N3A      -11.8740   34.9430    3.0640 N.3   777  DUP777     -0.0179
     21  PB       -13.4570   35.1350    2.5640 P.3   777  DUP777      0.4700
     22  O1B      -14.0320   36.3960    3.1980 O.3   777  DUP777     -0.1252
     23  O2B      -13.4430   35.1140    1.0800 O.2   777  DUP777     -0.2350
     24  O3B      -14.2040   33.8010    3.0870 O.3   777  DUP777     -0.1901
     25  PG       -15.3210   33.7390    4.2650 P.3   777  DUP777      0.5397
     26  O2G      -15.0850   34.7590    5.3550 O.3   777  DUP777     -0.1143
     27  O1G      -16.6720   33.9930    3.6140 O.2   777  DUP777     -0.2220
     28  O3G      -15.1880   32.3440    4.8310 O.3   777  DUP777     -0.1143
@<TRIPOS>BOND
     1    23    21    2
     2     1     2    2
     3    21    20    1
     4    21    24    1
     5    21    22    1
     6    20    17    1
     7     2     5    2
     8     2     3    1
     9    24    25    1
    10     5     6    2
    11     3     4    2
    12    27    25    2
    13     6     7    2
    14     6     8   am
    15    19    17    2
    16    25    28    1
    17    25    26    1
    18     4     8    1
    19     8     9    1
    20    17    16    1
    21    17    18    1
    22    13     9    1
    23    13    14    1
    24    16    15    1
    25     9    10    1
    26    15    14    1
    27    14    11    1
    28    10    11    1
    29    11    12    1
