@<TRIPOS>MOLECULE
1rnb_NUC_C_1.pdb
 38 42 0 0 0
SMALL
GASTEIGER

@<TRIPOS>ATOM
      1  O5'       33.8510   21.1670   73.7260 O.3   111  DG111      -0.2176
      2  C5'       34.8600   20.7470   74.6060 C.3   111  DG111       0.2140
      3  C4'       36.1930   20.7850   73.8980 C.3   111  DG111       0.1774
      4  O4'       36.3520   22.0050   73.2140 O.3   111  DG111      -0.3347
      5  C3'       37.3580   20.9040   74.9360 C.3   111  DG111       0.1556
      6  O3'       38.4560   20.1290   74.4230 O.3   111  DG111      -0.3139
      7  C2'       37.6140   22.4030   75.0580 C.3   111  DG111       0.0836
      8  C1'       37.4680   22.7580   73.5650 C.3   111  DG111       0.1980
      9  N9        37.1190   24.2040   73.4040 N.pl3 111  DG111      -0.2374
     10  C8        37.4380   24.9840   72.3240 C.3   111  DG111       0.2245
     11  N7        37.0560   26.2250   72.4990 N.2   111  DG111      -0.2322
     12  C5        36.5260   26.2590   73.7460 C.2   111  DG111       0.2182
     13  C6        35.9490   27.3390   74.4670 C.1   111  DG111       0.2372
     14  O6        35.8090   28.5260   74.0680 O.2   111  DG111      -0.2069
     15  N1        35.4840   26.9980   75.7310 N.2   111  DG111      -0.2485
     16  C2        35.5860   25.7800   76.2870 C.1   111  DG111       0.2531
     17  N2        35.0740   25.6130   77.5420 N.pl3 111  DG111      -0.0226
     18  N3        36.1060   24.7550   75.5940 N.2   111  DG111      -0.3074
     19  C4        36.5510   25.0680   74.3470 C.2   111  DG111       0.2299
     20  P         38.6890   18.6190   74.6970 P.3   112  DC112       0.2141
     21  OP1       39.8190   18.2920   73.7010 O.2   112  DC112      -0.5172
     22  OP2       37.6120   17.6330   74.7980 O.3   112  DC112      -0.4373
     23  O5'       39.4080   18.5430   76.2130 O.3   112  DC112      -0.3114
     24  C5'       40.5010   19.4430   76.4780 C.3   112  DC112       0.1812
     25  C4'       40.2400   20.1290   77.7850 C.3   112  DC112       0.1773
     26  O4'       39.4140   21.2530   77.8400 O.3   112  DC112      -0.3339
     27  C3'       39.9070   19.2510   78.9340 C.3   112  DC112       0.1857
     28  O3'       41.0130   18.5870   79.5490 O.3   112  DC112      -0.2203
     29  C2'       39.0930   20.1160   79.8850 C.3   112  DC112       0.0874
     30  C1'       38.7400   21.3500   79.1160 C.3   112  DC112       0.2090
     31  N1        37.2940   21.4110   78.9040 N.am  112  DC112      -0.1802
     32  C2        36.7510   22.6260   79.0440 C.1   112  DC112       0.2756
     33  O2        37.5600   23.5110   79.3770 O.2   112  DC112      -0.1925
     34  N3        35.4720   22.9160   78.8480 N.2   112  DC112      -0.3024
     35  C4        34.7160   21.8920   78.5310 C.2   112  DC112       0.2346
     36  N4        33.4080   22.1890   78.3370 N.pl3 112  DC112      -0.0921
     37  C5        35.2140   20.6050   78.3630 C.2   112  DC112       0.0687
     38  C6        36.5330   20.3620   78.5550 C.2   112  DC112       0.0835
@<TRIPOS>BOND
     1    10    11    1
     2    10     9    1
     3    11    12    2
     4     4     8    1
     5     4     3    1
     6     9     8    1
     7     9    19    1
     8     8     7    1
     9    21    20    2
    10     1     2    1
    11    12    19    1
    12    12    13    1
    13     3     2    1
    14     3     5    1
    15    14    13    2
    16    19    18    2
    17     6    20    1
    18     6     5    1
    19    13    15    2
    20    20    22    1
    21    20    23    1
    22     5     7    1
    23    18    16    2
    24    15    16    2
    25    23    24    1
    26    16    17    1
    27    24    25    1
    28    25    26    1
    29    25    27    1
    30    26    30    1
    31    36    35    1
    32    37    35    1
    33    37    38    2
    34    35    34    2
    35    38    31    1
    36    34    32    2
    37    31    32   am
    38    31    30    1
    39    27    28    1
    40    27    29    1
    41    32    33    2
    42    30    29    1
