@<TRIPOS>MOLECULE
1rnc_5GP_A_1.pdb
 24 26 0 0 0
SMALL
GASTEIGER

@<TRIPOS>ATOM
      1  P         37.0530    6.9570    7.8190 P.3   161  5GP161      0.5327
      2  O1P       38.2780    6.8280    8.7250 O.3   161  5GP161     -0.1145
      3  O2P       36.6280    7.2230    6.3790 O.2   161  5GP161     -0.2224
      4  O3P       36.1800    5.6070    8.1200 O.3   161  5GP161     -0.1145
      5  O5'       36.1390    7.9700    8.6710 O.3   161  5GP161     -0.2675
      6  C5'       36.6030    8.3820    9.9620 C.3   161  5GP161      0.1859
      7  C4'       36.9430    9.8070    9.6820 C.3   161  5GP161      0.1801
      8  O4'       35.7150   10.5640    9.3680 O.3   161  5GP161     -0.3326
      9  C3'       37.7540   10.5640   10.7110 C.3   161  5GP161      0.2158
     10  O3'       39.1320   10.4160   10.3230 O.3   161  5GP161     -0.2175
     11  C2'       37.3790   12.0280   10.3390 C.3   161  5GP161      0.2310
     12  O2'       38.4130   12.4490    9.4530 O.3   161  5GP161     -0.2158
     13  C1'       36.0610   11.8440    9.6300 C.3   161  5GP161      0.2293
     14  N9        34.8220   12.4090   10.2360 N.pl3 161  5GP161     -0.2354
     15  C8        34.3910   12.4110   11.5220 C.3   161  5GP161      0.2246
     16  N7        33.2530   13.0240   11.7030 N.2   161  5GP161     -0.2322
     17  C5        32.9070   13.4350   10.4500 C.2   161  5GP161      0.2182
     18  C6        31.7960   14.1470   10.0270 C.1   161  5GP161      0.2372
     19  O6        30.8530   14.6000   10.6620 O.2   161  5GP161     -0.2069
     20  N1        31.7430   14.4180    8.6260 N.2   161  5GP161     -0.2485
     21  C2        32.7920   13.9800    7.8470 C.1   161  5GP161      0.2531
     22  N2        32.7480   14.2430    6.5080 N.pl3 161  5GP161     -0.0226
     23  N3        33.8450   13.3150    8.2340 N.2   161  5GP161     -0.3074
     24  C4        33.8880   13.0490    9.5400 C.2   161  5GP161      0.2300
@<TRIPOS>BOND
     1     3     1    2
     2    22    21    1
     3     1     4    1
     4     1     5    1
     5     1     2    1
     6    21    23    2
     7    21    20    2
     8    23    24    2
     9    20    18    2
    10     5     6    1
    11     8    13    1
    12     8     7    1
    13    12    11    1
    14    24    14    1
    15    24    17    1
    16    13    14    1
    17    13    11    1
    18     7     6    1
    19     7     9    1
    20    18    17    1
    21    18    19    2
    22    14    15    1
    23    10     9    1
    24    11     9    1
    25    17    16    2
    26    15    16    1
