@<TRIPOS>MOLECULE
1rnd_DGP_A_1.pdb
 23 25 0 0 0
SMALL
GASTEIGER

@<TRIPOS>ATOM
      1  P         38.9670    7.2330   11.6610 P.3   126  DGP126      0.5327
      2  OP1       38.4780    8.0530   12.8670 O.3   126  DGP126     -0.1145
      3  OP2       40.1890    7.0520   10.7270 O.2   126  DGP126     -0.2224
      4  OP3       38.7100    5.7100   12.1530 O.3   126  DGP126     -0.1145
      5  O5'       37.8520    7.3750   10.5080 O.3   126  DGP126     -0.2675
      6  C5'       37.0890    8.5000   10.1830 C.3   126  DGP126      0.1858
      7  C4'       37.2730    9.8690    9.6930 C.3   126  DGP126      0.1774
      8  O4'       36.0430   10.5380    9.3290 O.3   126  DGP126     -0.3347
      9  C3'       38.1590   10.9580   10.2690 C.3   126  DGP126      0.1857
     10  O3'       39.0040   11.4260    9.2160 O.3   126  DGP126     -0.2203
     11  C2'       37.2960   12.1830   10.4640 C.3   126  DGP126      0.0865
     12  C1'       36.0870   11.8890    9.6420 C.3   126  DGP126      0.1981
     13  N9        34.8120   12.4390   10.1510 N.pl3 126  DGP126     -0.2374
     14  C8        34.4240   12.4740   11.4890 C.3   126  DGP126      0.2245
     15  N7        33.2910   13.0770   11.6090 N.2   126  DGP126     -0.2322
     16  C5        32.9170   13.4840   10.3860 C.2   126  DGP126      0.2182
     17  C6        31.8050   14.1930    9.9530 C.1   126  DGP126      0.2372
     18  O6        30.9190   14.5870   10.6810 O.2   126  DGP126     -0.2069
     19  N1        31.7830   14.4530    8.5530 N.2   126  DGP126     -0.2485
     20  C2        32.7880   14.0390    7.7570 C.1   126  DGP126      0.2531
     21  N2        32.6990   14.3030    6.4550 N.pl3 126  DGP126     -0.0226
     22  N3        33.8620   13.3510    8.1390 N.2   126  DGP126     -0.3074
     23  C4        33.8470   13.0960    9.4640 C.2   126  DGP126      0.2299
@<TRIPOS>BOND
     1    21    20    1
     2    20    22    2
     3    20    19    2
     4    22    23    2
     5    19    17    2
     6    10     9    1
     7     8    12    1
     8     8     7    1
     9    23    13    1
    10    23    16    1
    11    12    13    1
    12    12    11    1
    13     7     6    1
    14     7     9    1
    15    17    16    1
    16    17    18    2
    17    13    14    1
    18     6     5    1
    19     9    11    1
    20    16    15    2
    21     5     1    1
    22     3     1    2
    23    14    15    1
    24     1     4    1
    25     1     2    1
