@<TRIPOS>MOLECULE
1rnj_DUP_A_1.pdb
 28 29 0 0 0
SMALL
GASTEIGER

@<TRIPOS>ATOM
      1  O4        26.5810   20.4180    2.4020 O.2   777  DUP777     -0.2085
      2  C4        25.6790   21.0070    3.0360 C.1   777  DUP777      0.2182
      3  C5        25.8660   22.2830    3.5770 C.2   777  DUP777      0.1242
      4  C6        24.8100   22.8820    4.2510 C.2   777  DUP777      0.0928
      5  N3        24.5120   20.3650    3.2500 N.2   777  DUP777     -0.2452
      6  C2        23.4850   20.9300    3.9200 C.1   777  DUP777      0.2844
      7  O2        22.4230   20.2790    4.0840 O.2   777  DUP777     -0.1918
      8  N1        23.6260   22.2200    4.4410 N.am  777  DUP777     -0.1790
      9  C1'       22.5180   22.8350    5.1900 C.3   777  DUP777      0.2090
     10  C2'       22.7990   22.8670    6.6820 C.3   777  DUP777      0.0874
     11  C3'       23.3200   24.2530    6.9390 C.3   777  DUP777      0.1857
     12  O3'       23.1040   24.6720    8.2910 O.3   777  DUP777     -0.2203
     13  O4'       22.3910   24.2010    4.7630 O.3   777  DUP777     -0.3339
     14  C4'       22.5410   25.0610    5.9120 C.3   777  DUP777      0.1774
     15  C5'       23.1620   26.3890    5.4980 C.3   777  DUP777      0.1848
     16  O5'       24.5080   26.2190    5.0720 O.3   777  DUP777     -0.2775
     17  PA        25.2620   27.4830    4.4800 P.3   777  DUP777      0.4623
     18  O1A       25.1810   28.6710    5.4400 O.3   777  DUP777     -0.1255
     19  O2A       26.6350   26.9970    4.0800 O.2   777  DUP777     -0.2354
     20  N3A       24.4700   27.8080    3.0400 N.3   777  DUP777     -0.0179
     21  PB        23.7900   29.2650    2.5700 P.3   777  DUP777      0.4700
     22  O1B       24.5360   30.3820    3.2640 O.3   777  DUP777     -0.1252
     23  O2B       23.7490   29.2040    1.1010 O.2   777  DUP777     -0.2350
     24  O3B       22.2820   29.1760    3.1170 O.3   777  DUP777     -0.1901
     25  PG        21.6350   30.1350    4.2530 P.3   777  DUP777      0.5397
     26  O2G       22.5770   30.3280    5.3730 O.3   777  DUP777     -0.1143
     27  O1G       21.2480   31.4230    3.5720 O.2   777  DUP777     -0.2220
     28  O3G       20.4180   29.4500    4.8260 O.3   777  DUP777     -0.1143
@<TRIPOS>BOND
     1    23    21    2
     2     1     2    2
     3    21    20    1
     4    21    24    1
     5    21    22    1
     6     2     5    2
     7     2     3    1
     8    20    17    1
     9    24    25    1
    10     5     6    2
    11    27    25    2
    12     3     4    2
    13     6     7    2
    14     6     8   am
    15    19    17    2
    16     4     8    1
    17    25    28    1
    18    25    26    1
    19     8     9    1
    20    17    16    1
    21    17    18    1
    22    13     9    1
    23    13    14    1
    24    16    15    1
    25     9    10    1
    26    15    14    1
    27    14    11    1
    28    10    11    1
    29    11    12    1
