@<TRIPOS>MOLECULE
1rnm_C5P_E_1.pdb
 21 22 0 0 0
SMALL
GASTEIGER

@<TRIPOS>ATOM
      1  O3P       10.2400   15.6770   29.9640 O.2   200  C5P200     -0.2224
      2  P         11.5520   15.5640   30.6960 P.3   200  C5P200      0.5327
      3  O1P       11.9070   16.7120   31.6240 O.3   200  C5P200     -0.1145
      4  O2P       11.9620   14.1830   31.1670 O.3   200  C5P200     -0.1145
      5  O5'       12.5920   15.7060   29.4410 O.3   200  C5P200     -0.2675
      6  C5'       12.6450   14.7280   28.3950 C.3   200  C5P200      0.1859
      7  C4'       13.8620   14.9610   27.6230 C.3   200  C5P200      0.1801
      8  O4'       14.0130   16.3140   27.4070 O.3   200  C5P200     -0.3320
      9  C3'       15.0040   14.5750   28.4140 C.3   200  C5P200      0.2158
     10  O3'       15.1580   13.2500   27.9370 O.3   200  C5P200     -0.2175
     11  C2'       16.1130   15.5180   28.0870 C.3   200  C5P200      0.2319
     12  O2'       16.8880   15.0520   27.0150 O.3   200  C5P200     -0.2157
     13  C1'       15.3650   16.6210   27.4730 C.3   200  C5P200      0.2400
     14  N1        15.4640   17.8940   28.1530 N.am  200  C5P200     -0.1778
     15  C2        16.4650   18.7180   27.7080 C.1   200  C5P200      0.2756
     16  N3        16.4940   19.9400   28.2440 N.2   200  C5P200     -0.3024
     17  C4        15.6020   20.3610   29.1860 C.2   200  C5P200      0.2346
     18  C5        14.5780   19.5080   29.6630 C.2   200  C5P200      0.0687
     19  C6        14.5480   18.2860   29.1140 C.2   200  C5P200      0.0836
     20  O2        17.3410   18.3600   26.9170 O.2   200  C5P200     -0.1925
     21  N4        15.7100   21.5830   29.6960 N.pl3 200  C5P200     -0.0921
@<TRIPOS>BOND
     1    20    15    2
     2    12    11    1
     3     8    13    1
     4     8     7    1
     5    13    11    1
     6    13    14    1
     7     7     6    1
     8     7     9    1
     9    15    14   am
    10    15    16    2
    11    10     9    1
    12    11     9    1
    13    14    19    1
    14    16    17    2
    15     6     5    1
    16    19    18    2
    17    17    18    1
    18    17    21    1
    19     5     2    1
    20     1     2    2
    21     2     4    1
    22     2     3    1
