@<TRIPOS>MOLECULE
1rnn_C5P_E_1.pdb
 21 22 0 0 0
SMALL
GASTEIGER

@<TRIPOS>ATOM
      1  O3P       10.6340   15.7120   30.4890 O.2   200  C5P200     -0.2224
      2  P         11.8330   14.8440   30.6390 P.3   200  C5P200      0.5327
      3  O1P       12.9040   15.3230   31.5790 O.3   200  C5P200     -0.1145
      4  O2P       11.6310   13.3660   30.7300 O.3   200  C5P200     -0.1145
      5  O5'       12.4840   15.1140   29.1830 O.3   200  C5P200     -0.2675
      6  C5'       12.7960   14.0430   28.2890 C.3   200  C5P200      0.1859
      7  C4'       14.0820   14.3300   27.6230 C.3   200  C5P200      0.1801
      8  O4'       14.0040   15.6610   27.1660 O.3   200  C5P200     -0.3320
      9  C3'       15.2770   14.2800   28.5630 C.3   200  C5P200      0.2158
     10  O3'       15.7590   12.9260   28.6870 O.3   200  C5P200     -0.2175
     11  C2'       16.2770   15.1090   27.8520 C.3   200  C5P200      0.2319
     12  O2'       16.8920   14.3470   26.7940 O.3   200  C5P200     -0.2157
     13  C1'       15.3320   16.1240   27.2250 C.3   200  C5P200      0.2400
     14  N1        15.3290   17.4150   27.9300 N.am  200  C5P200     -0.1778
     15  C2        16.3380   18.2830   27.5450 C.1   200  C5P200      0.2756
     16  N3        16.3420   19.4960   28.0800 N.2   200  C5P200     -0.3024
     17  C4        15.4040   19.8790   28.9610 C.2   200  C5P200      0.2346
     18  C5        14.3530   18.9830   29.3660 C.2   200  C5P200      0.0687
     19  C6        14.3560   17.7590   28.8240 C.2   200  C5P200      0.0836
     20  O2        17.2470   17.9730   26.7550 O.2   200  C5P200     -0.1925
     21  N4        15.5120   21.1260   29.4640 N.pl3 200  C5P200     -0.0921
@<TRIPOS>BOND
     1    20    15    2
     2    12    11    1
     3     8    13    1
     4     8     7    1
     5    13    11    1
     6    13    14    1
     7    15    14   am
     8    15    16    2
     9     7     6    1
    10     7     9    1
    11    11     9    1
    12    14    19    1
    13    16    17    2
    14     6     5    1
    15     9    10    1
    16    19    18    2
    17    17    18    1
    18    17    21    1
    19     5     2    1
    20     1     2    2
    21     2     4    1
    22     2     3    1
