@<TRIPOS>MOLECULE
1rnt_2GP_A_1.pdb
 24 26 0 0 0
SMALL
GASTEIGER

@<TRIPOS>ATOM
      1  P         19.6640   35.4300   19.2180 P.3   105  2GP105      0.5327
      2  O1P       20.7560   35.1860   18.0640 O.2   105  2GP105     -0.2224
      3  O2P       20.1580   36.6050   20.0270 O.3   105  2GP105     -0.1145
      4  O3P       18.4070   35.4500   18.5110 O.3   105  2GP105     -0.1145
      5  O5'       17.7700   34.7750   23.9900 O.3   105  2GP105     -0.2176
      6  C5'       18.7590   33.9350   24.5860 C.3   105  2GP105      0.2142
      7  C4'       19.4260   33.0730   23.5410 C.3   105  2GP105      0.1827
      8  O4'       18.3890   32.3120   22.8240 O.3   105  2GP105     -0.3326
      9  C3'       20.2770   33.7640   22.4530 C.3   105  2GP105      0.2132
     10  O3'       21.2650   32.8320   22.0490 O.3   105  2GP105     -0.2176
     11  C2'       19.2330   33.9200   21.3340 C.3   105  2GP105      0.2054
     12  O2'       19.9030   34.1540   20.1060 O.3   105  2GP105     -0.2657
     13  C1'       18.5040   32.6080   21.4160 C.3   105  2GP105      0.2266
     14  N9        17.1880   32.4230   20.8480 N.pl3 105  2GP105     -0.2354
     15  C8        16.7810   31.3610   20.1310 C.3   105  2GP105      0.2246
     16  N7        15.4920   31.2710   20.0350 N.2   105  2GP105     -0.2322
     17  C5        14.9600   32.3310   20.7650 C.2   105  2GP105      0.2182
     18  C6        13.6370   32.7550   21.0280 C.1   105  2GP105      0.2372
     19  O6        12.5270   32.2980   20.6690 O.2   105  2GP105     -0.2069
     20  N1        13.5740   33.8900   21.8150 N.2   105  2GP105     -0.2485
     21  C2        14.7280   34.5260   22.2670 C.1   105  2GP105      0.2531
     22  N2        14.4850   35.5960   23.0320 N.pl3 105  2GP105     -0.0226
     23  N3        15.9480   34.1530   22.0390 N.2   105  2GP105     -0.3074
     24  C4        16.0190   33.0400   21.2750 C.2   105  2GP105      0.2300
@<TRIPOS>BOND
     1     2     1    2
     2     4     1    1
     3     1     3    1
     4     1    12    1
     5    16    15    1
     6    16    17    2
     7    12    11    1
     8    15    14    1
     9    19    18    2
    10    17    18    1
    11    17    24    1
    12    14    24    1
    13    14    13    1
    14    18    20    2
    15    24    23    2
    16    11    13    1
    17    11     9    1
    18    13     8    1
    19    20    21    2
    20    23    21    2
    21    10     9    1
    22    21    22    1
    23     9     7    1
    24     8     7    1
    25     7     6    1
    26     5     6    1
