@<TRIPOS>MOLECULE
1ro6_ROL_A_1.pdb
 41 43 0 0 0
SMALL
GASTEIGER

@<TRIPOS>ATOM
      1  C5        32.3880   75.3670   22.0660 C.ar  601  ROL601     -0.0387
      2  C6        32.0700   75.9080   20.8170 C.ar  601  ROL601     -0.0128
      3  C7        31.7440   77.2840   20.6410 C.ar  601  ROL601      0.1626
      4  C8        31.7800   78.1470   21.7500 C.ar  601  ROL601      0.1615
      5  C9        32.0800   77.6010   23.0140 C.ar  601  ROL601     -0.0160
      6  C10       32.3680   76.2310   23.1800 C.ar  601  ROL601     -0.0546
      7  C3        32.7140   73.8820   22.1460 C.3   601  ROL601      0.0080
      8  C2        34.0240   73.4890   22.8680 C.3   601  ROL601      0.0322
      9  C1        33.5700   72.4390   23.8950 C.2   601  ROL601      0.2137
     10  O1        34.2760   71.9940   24.7980 O.2   601  ROL601     -0.2758
     11  N1        32.2890   72.1030   23.6680 N.am  601  ROL601     -0.3147
     12  C4        31.6120   73.0950   22.8460 C.3   601  ROL601      0.0188
     13  O3        31.3730   77.8860   19.4320 O.3   601  ROL601     -0.4852
     14  C11       31.1640   77.0760   18.2680 C.3   601  ROL601      0.1004
     15  C15       32.5030   76.7930   17.5870 C.3   601  ROL601     -0.0158
     16  C14       32.8320   78.1180   16.9100 C.3   601  ROL601     -0.0496
     17  C13       31.4860   78.6660   16.4470 C.3   601  ROL601     -0.0496
     18  C12       30.4150   77.9020   17.2180 C.3   601  ROL601     -0.0158
     19  O2        31.5020   79.4880   21.4880 O.3   601  ROL601     -0.4915
     20  C16       31.6980   80.4640   22.5060 C.3   601  ROL601      0.0790
     21  H61       32.0700   75.2390   19.9710 H     601  ROL601      0.0658
     22  H91       32.0900   78.2470   23.8600 H     601  ROL601      0.0655
     23 H101       32.5860   75.8520   24.1650 H     601  ROL601      0.0622
     24  H31       32.7860   73.4930   21.1420 H     601  ROL601      0.0369
     25  H21       34.7170   73.0320   22.1810 H     601  ROL601      0.0365
     26  H22       34.5240   74.3060   23.3630 H     601  ROL601      0.0365
     27  H1        31.7970   71.4170   24.2050 H     601  ROL601      0.1487
     28  H41       31.0560   73.7050   23.5370 H     601  ROL601      0.0468
     29  H42       30.9380   72.5890   22.1730 H     601  ROL601      0.0468
     30 H111       30.5820   76.1900   18.4860 H     601  ROL601      0.0733
     31 H151       33.2890   76.4770   18.2540 H     601  ROL601      0.0301
     32 H152       32.3740   76.0200   16.8430 H     601  ROL601      0.0301
     33 H141       33.5340   78.0020   16.0970 H     601  ROL601      0.0266
     34 H142       33.2660   78.7970   17.6280 H     601  ROL601      0.0266
     35 H131       31.3580   78.5120   15.3870 H     601  ROL601      0.0266
     36 H132       31.4290   79.7280   16.6370 H     601  ROL601      0.0266
     37 H121       29.8890   77.2420   16.5430 H     601  ROL601      0.0301
     38 H122       29.6950   78.5710   17.6610 H     601  ROL601      0.0301
     39 H161       31.5130   81.4510   22.1080 H     601  ROL601      0.0660
     40 H162       31.0180   80.2990   23.3300 H     601  ROL601      0.0660
     41 H163       32.7150   80.4430   22.8710 H     601  ROL601      0.0660
@<TRIPOS>BOND
     1    35    17    1
     2    33    16    1
     3    17    36    1
     4    17    16    1
     5    17    18    1
     6    37    18    1
     7    32    15    1
     8    16    15    1
     9    16    34    1
    10    18    38    1
    11    18    14    1
    12    15    31    1
    13    15    14    1
    14    14    30    1
    15    14    13    1
    16    13     3    1
    17    21     2    1
    18     3     2   ar
    19     3     4   ar
    20     2     1   ar
    21    24     7    1
    22    19     4    1
    23    19    20    1
    24     4     5   ar
    25     1     7    1
    26     1     6   ar
    27    39    20    1
    28     7    12    1
    29     7     8    1
    30    29    12    1
    31    25     8    1
    32    20    41    1
    33    20    40    1
    34    12    28    1
    35    12    11    1
    36     8    26    1
    37     8     9    1
    38     5     6   ar
    39     5    22    1
    40     6    23    1
    41    11     9   am
    42    11    27    1
    43     9    10    2
