@<TRIPOS>MOLECULE
1ro7_CSF_C_1.pdb
 42 44 0 0 0
SMALL
GASTEIGER

@<TRIPOS>ATOM
      1  C5A       22.0770   -5.5180   11.4770 C.3   1001  CSF1001     0.1582
      2  C4A       21.9970   -4.0220   11.1880 C.3   1001  CSF1001     0.2121
      3  C2A       20.7490   -3.7580   13.4930 C.3   1001  CSF1001     0.3216
      4  O6A       21.4410   -4.9830   13.8350 O.3   1001  CSF1001    -0.3217
      5  C6A       22.4110   -5.6590   12.9880 C.3   1001  CSF1001     0.1735
      6  C3A       20.8810   -3.2790   12.0160 C.3   1001  CSF1001     0.2551
      7  O4A       21.6900   -3.9200    9.7810 O.3   1001  CSF1001    -0.2181
      8  N5A       23.0680   -6.2430   10.7660 N.am  1001  CSF1001    -0.2019
      9  C7A       22.3910   -7.0410   13.6690 C.3   1001  CSF1001     0.2135
     10  C8A       22.6710   -7.1910   15.1290 C.3   1001  CSF1001     0.2173
     11  C9A       22.8830   -8.6310   15.6290 C.3   1001  CSF1001     0.2175
     12  O9A       22.9140   -8.6710   17.0250 O.3   1001  CSF1001    -0.2175
     13  O8A       23.8720   -6.5210   15.5430 O.3   1001  CSF1001    -0.2175
     14  O7A       21.0900   -7.6480   13.3690 O.3   1001  CSF1001    -0.2176
     15  C1A       19.7750   -3.1080   14.3550 C.2   1001  CSF1001     0.4183
     16  OBA       19.3490   -1.8470   14.1000 O.co2 1001  CSF1001    -0.2401
     17  OAA       19.3480   -3.7510   15.2650 O.co2 1001  CSF1001    -0.2401
     18  O1A       21.8640   -2.8540   13.9650 O.3   1001  CSF1001    -0.2813
     19  O2A       24.4260   -2.9000   13.2690 O.2   1001  CSF1001    -0.5171
     20  N1        24.5280    2.3840   13.5730 N.am  1001  CSF1001    -0.1778
     21  C2        24.4510    3.4810   12.6140 C.1   1001  CSF1001     0.2756
     22  N3        25.5060    3.5440   11.5960 N.2   1001  CSF1001    -0.3024
     23  C4        26.5470    2.5950   11.5370 C.2   1001  CSF1001     0.2346
     24  C5        26.6330    1.4460   12.5320 C.2   1001  CSF1001     0.0687
     25  C6        25.6160    1.4120   13.4910 C.2   1001  CSF1001     0.0836
     26  C3'       21.7910    0.5380   14.6540 C.3   1001  CSF1001     0.2158
     27  C2'       22.0020    1.9640   14.2310 C.3   1001  CSF1001     0.2319
     28  C1'       23.4190    2.3110   14.6620 C.3   1001  CSF1001     0.2400
     29  O4'       23.7820    1.3490   15.6830 O.3   1001  CSF1001    -0.3320
     30  C4'       22.6850    0.4400   15.9070 C.3   1001  CSF1001     0.1799
     31  PA        23.4590   -2.6900   14.3770 P.3   1001  CSF1001     0.2163
     32  O5'       24.0280   -1.3670   15.0100 O.3   1001  CSF1001    -0.3113
     33  C5'       23.2440   -0.8980   16.1270 C.3   1001  CSF1001     0.1813
     34  O3'       20.4400    0.2870   15.0540 O.3   1001  CSF1001    -0.2175
     35  O2'       21.1320    2.8850   14.9200 O.3   1001  CSF1001    -0.2157
     36  N4        27.4470    2.7140   10.6070 N.pl3 1001  CSF1001    -0.0921
     37  O2        23.5180    4.3690   12.6300 O.2   1001  CSF1001    -0.1925
     38  O3A       23.8200   -3.6330   15.3510 O.3   1001  CSF1001    -0.4372
     39  C10       23.0150   -7.5000   10.2800 C.2   1001  CSF1001     0.2420
     40  O10       22.0080   -8.2010   10.4260 O.2   1001  CSF1001    -0.2733
     41  C11       24.2340   -8.0200    9.5510 C.3   1001  CSF1001     0.0964
     42  F3A       19.6540   -3.7120   11.5910 F     1001  CSF1001    -0.2285
@<TRIPOS>BOND
     1    41    39    1
     2     7     2    1
     3    39    40    2
     4    39     8   am
     5    36    23    1
     6     8     1    1
     7     2     1    1
     8     2     6    1
     9     1     5    1
    10    23    22    2
    11    23    24    1
    12    42     6    1
    13    22    21    2
    14     6     3    1
    15    24    25    2
    16    21    37    2
    17    21    20   am
    18     5     9    1
    19     5     4    1
    20    19    31    2
    21    14     9    1
    22    25    20    1
    23     3     4    1
    24     3    18    1
    25     3    15    1
    26    20    28    1
    27     9    10    1
    28    18    31    1
    29    16    15   ar
    30    27    26    1
    31    27    28    1
    32    27    35    1
    33    15    17   ar
    34    31    32    1
    35    31    38    1
    36    26    34    1
    37    26    30    1
    38    28    29    1
    39    32    33    1
    40    10    13    1
    41    10    11    1
    42    11    12    1
    43    29    30    1
    44    30    33    1
