@<TRIPOS>MOLECULE
1ro8_C5P_A_1.pdb
 21 22 0 0 0
SMALL
GASTEIGER

@<TRIPOS>ATOM
      1  O3P       28.6210   18.8010  -10.6050 O.2   2001  C5P2001    -0.2224
      2  P         28.0100   17.6000   -9.8150 P.3   2001  C5P2001     0.5327
      3  O1P       26.4800   17.6900   -9.5970 O.3   2001  C5P2001    -0.1145
      4  O2P       28.3590   16.2860  -10.5030 O.3   2001  C5P2001    -0.1145
      5  O5'       28.4970   17.2780   -8.4680 O.3   2001  C5P2001    -0.2675
      6  C5'       28.7940   18.4540   -7.7070 C.3   2001  C5P2001     0.1859
      7  C4'       27.9350   19.1590   -6.7620 C.3   2001  C5P2001     0.1801
      8  O4'       28.8390   20.1040   -6.2290 O.3   2001  C5P2001    -0.3320
      9  C3'       26.7770   19.9380   -7.3550 C.3   2001  C5P2001     0.2158
     10  O3'       25.5830   19.1580   -7.2460 O.3   2001  C5P2001    -0.2175
     11  C2'       26.7780   21.1620   -6.4460 C.3   2001  C5P2001     0.2319
     12  O2'       26.1440   21.0390   -5.1780 O.3   2001  C5P2001    -0.2157
     13  C1'       28.2530   21.4000   -6.3790 C.3   2001  C5P2001     0.2400
     14  N1        29.3280   22.1200   -7.1230 N.am  2001  C5P2001    -0.1778
     15  C2        29.4380   23.5670   -6.9870 C.1   2001  C5P2001     0.2756
     16  N3        30.3460   24.2750   -7.7430 N.2   2001  C5P2001    -0.3024
     17  C4        31.1720   23.6790   -8.7290 C.2   2001  C5P2001     0.2346
     18  C5        31.0600   22.3180   -8.9360 C.2   2001  C5P2001     0.0687
     19  C6        30.3190   21.5310   -8.1390 C.2   2001  C5P2001     0.0836
     20  O2        28.6630   24.2270   -6.1530 O.2   2001  C5P2001    -0.1925
     21  N4        32.0380   24.4150   -9.4380 N.pl3 2001  C5P2001    -0.0921
@<TRIPOS>BOND
     1     1     2    2
     2     4     2    1
     3     2     3    1
     4     2     5    1
     5    21    17    1
     6    18    17    1
     7    18    19    2
     8    17    16    2
     9     5     6    1
    10    19    14    1
    11    16    15    2
    12     6     7    1
    13     9    10    1
    14     9     7    1
    15     9    11    1
    16    14    15   am
    17    14    13    1
    18    15    20    2
    19     7     8    1
    20    11    13    1
    21    11    12    1
    22    13     8    1
