@<TRIPOS>MOLECULE
1ro9_8BR_A_1.pdb
 24 26 0 0 0
SMALL
GASTEIGER

@<TRIPOS>ATOM
      1  P         34.1430   71.3390   24.2510 P.3   531  8BR531      0.5327
      2  O1P       33.2870   72.2750   25.0550 O.3   531  8BR531     -0.1145
      3  O2P       35.3750   72.0050   23.8140 O.2   531  8BR531     -0.2224
      4  O3P       34.4810   70.2270   25.0700 O.3   531  8BR531     -0.1145
      5  O5'       33.4120   70.8350   22.9530 O.3   531  8BR531     -0.2675
      6  C5'       32.4380   71.6880   22.3130 C.3   531  8BR531      0.1860
      7  C4'       32.8220   71.9450   20.8520 C.3   531  8BR531      0.1823
      8  O4'       31.9210   72.9260   20.3430 O.3   531  8BR531     -0.3132
      9  C3'       34.1720   72.6280   20.7600 C.3   531  8BR531      0.2185
     10  O3'       35.1830   71.6310   20.7870 O.3   531  8BR531     -0.2174
     11  C2'       34.0780   73.3530   19.4360 C.3   531  8BR531      0.2574
     12  O2'       34.3410   72.4350   18.3800 O.3   531  8BR531     -0.2130
     13  C1'       32.6070   73.7870   19.4210 C.3   531  8BR531      0.3238
     14  N9        32.3610   75.2310   19.7670 N.pl3 531  8BR531     -0.1123
     15  C8        32.1420   76.3020   18.9390 C.2   531  8BR531      0.3130
     16 BR8        32.0970   76.2180   17.0430 Br    531  8BR531      0.0337
     17  N7        31.9520   77.4700   19.5980 N.2   531  8BR531     -0.3444
     18  C5        32.0460   77.1760   20.9490 C.2   531  8BR531      0.3071
     19  C6        31.9490   77.9020   22.1480 C.2   531  8BR531      0.4517
     20  N6        31.7060   79.2280   22.1470 N.pl3 531  8BR531      0.2193
     21  N1        32.0950   77.2880   23.3810 N.2   531  8BR531      0.0030
     22  C2        32.3430   75.9360   23.4190 C.3   531  8BR531      0.5255
     23  N3        32.4530   75.1520   22.3020 N.2   531  8BR531     -0.0039
     24  C4        32.3040   75.7690   21.0710 C.2   531  8BR531      0.3694
@<TRIPOS>BOND
     1    16    15    1
     2    12    11    1
     3    15    17    2
     4    15    14    1
     5    13    11    1
     6    13    14    1
     7    13     8    1
     8    11     9    1
     9    17    18    2
    10    14    24    1
    11     8     7    1
    12     9    10    1
    13     9     7    1
    14     7     6    1
    15    18    24    1
    16    18    19    1
    17    24    23    2
    18    20    19    1
    19    19    21    2
    20    23    22    1
    21     6     5    1
    22     5     1    1
    23    21    22    1
    24     3     1    2
    25     1     2    1
    26     1     4    1
