@<TRIPOS>MOLECULE
1rob_C2P_A_1.pdb
 21 22 0 0 0
SMALL
GASTEIGER

@<TRIPOS>ATOM
      1  N1        32.4970   13.6750    9.2330 N.am  126  C2P126     -0.1779
      2  C2        32.0800   13.9480   10.4840 C.1   126  C2P126      0.2756
      3  N3        32.9740   13.7080   11.4460 N.2   126  C2P126     -0.3024
      4  C4        34.1690   13.1480   11.3050 C.2   126  C2P126      0.2346
      5  C5        34.5270   12.7960    9.9960 C.2   126  C2P126      0.0687
      6  C6        33.6660   13.1000    9.0270 C.2   126  C2P126      0.0836
      7  O2        30.9960   14.4370   10.5820 O.2   126  C2P126     -0.1925
      8  N4        35.0380   12.8870   12.2820 N.pl3 126  C2P126     -0.0921
      9  C1'       31.4660   13.8380    8.2720 C.3   126  C2P126      0.2373
     10  C2'       31.6240   15.0230    7.2860 C.3   126  C2P126      0.2063
     11  O2'       30.4360   15.5520    6.5890 O.3   126  C2P126     -0.2656
     12  C3'       32.5960   14.3630    6.2210 C.3   126  C2P126      0.2133
     13  C4'       31.7990   13.0360    6.0580 C.3   126  C2P126      0.1828
     14  O4'       31.5680   12.6560    7.4420 O.3   126  C2P126     -0.3319
     15  O3'       32.5210   15.0100    4.9370 O.3   126  C2P126     -0.2176
     16  C5'       32.3540   12.1680    4.9290 C.3   126  C2P126      0.2142
     17  O5'       33.5100   11.6060    5.5240 O.3   126  C2P126     -0.2176
     18  P         30.0590   16.9600    6.1320 P.3   126  C2P126      0.5327
     19  O1P       30.2890   17.9340    7.2820 O.3   126  C2P126     -0.1145
     20  O2P       28.7220   16.8800    5.5630 O.3   126  C2P126     -0.1145
     21  O3P       31.1010   17.3240    5.0660 O.2   126  C2P126     -0.2224
@<TRIPOS>BOND
     1    16    17    1
     2    16    13    1
     3    15    12    1
     4    21    18    2
     5    20    18    1
     6    13    12    1
     7    13    14    1
     8    18    11    1
     9    18    19    1
    10    12    10    1
    11    11    10    1
    12    10     9    1
    13    14     9    1
    14     9     1    1
    15     6     1    1
    16     6     5    2
    17     1     2   am
    18     5     4    1
    19     2     7    2
    20     2     3    2
    21     4     3    2
    22     4     8    1
