@<TRIPOS>MOLECULE
1rom_HEM_A_1.pdb
 43 50 0 0 0
SMALL
GASTEIGER

@<TRIPOS>ATOM
      1 FE         51.9670   10.9770   20.6620 Fe    501  HEM501      0.0000
      2  CHA       49.4460   10.7970   22.9360 C.2   501  HEM501      0.0000
      3  CHB       49.9730    9.3350   18.3170 C.2   501  HEM501      0.0000
      4  CHC       54.4930   10.9640   18.4030 C.2   501  HEM501      0.0000
      5  CHD       54.0740   12.0050   23.0940 C.2   501  HEM501      0.0000
      6  NA        50.0980   10.3020   20.6050 N.ar  501  HEM501      0.0000
      7  C1A       49.1700   10.3290   21.6380 C.ar  501  HEM501      0.0000
      8  C2A       47.9420    9.6510   21.2040 C.ar  501  HEM501      0.0000
      9  C3A       48.0590    9.2290   19.9270 C.ar  501  HEM501      0.0000
     10  C4A       49.4180    9.6320   19.5450 C.ar  501  HEM501      0.0000
     11  CMA       46.9920    8.4330   19.1600 C.3   501  HEM501      0.0000
     12  CAA       46.7300    9.3390   22.0050 C.3   501  HEM501      0.0000
     13  CBA       46.1150   10.6550   22.3520 C.3   501  HEM501      0.0000
     14  CGA       44.7210   10.5030   22.8880 C.2   501  HEM501      0.0000
     15  O1A       43.7930   10.9980   22.2110 O.co2 501  HEM501      0.0000
     16  O2A       44.5550    9.8840   23.9650 O.co2 501  HEM501      0.0000
     17  NB        52.1720   10.3240   18.7550 N.2   501  HEM501      0.0000
     18  C1B       51.2390    9.6820   17.9260 C.2   501  HEM501      0.0000
     19  C2B       51.7310    9.4650   16.5870 C.2   501  HEM501      0.0000
     20  C3B       53.0170    9.9090   16.6290 C.2   501  HEM501      0.0000
     21  C4B       53.2720   10.4370   17.9610 C.2   501  HEM501      0.0000
     22  CMB       50.8900    9.0010   15.3830 C.3   501  HEM501      0.0000
     23  CAB       53.9980    9.8610   15.6450 C.3   501  HEM501      0.0000
     24  CBB       53.8370   10.2910   14.3320 C.3   501  HEM501      0.0000
     25  NC        53.8680   11.4380   20.7340 N.ar  501  HEM501      0.0000
     26  C1C       54.7760   11.4460   19.6790 C.ar  501  HEM501      0.0000
     27  C2C       56.0790   11.9200   20.0810 C.ar  501  HEM501      0.0000
     28  C3C       55.9790   12.1490   21.4210 C.ar  501  HEM501      0.0000
     29  C4C       54.5980   11.8560   21.8120 C.ar  501  HEM501      0.0000
     30  CMC       57.2640   12.1320   19.1470 C.3   501  HEM501      0.0000
     31  CAC       56.9720   12.5980   22.2760 C.3   501  HEM501      0.0000
     32  CBC       57.6000   13.8270   22.1360 C.3   501  HEM501      0.0000
     33  ND        51.8030   11.3530   22.6200 N.2   501  HEM501      0.0000
     34  C1D       52.7790   11.7620   23.4810 C.2   501  HEM501      0.0000
     35  C2D       52.2810   11.8890   24.8460 C.2   501  HEM501      0.0000
     36  C3D       50.9660   11.5830   24.8100 C.2   501  HEM501      0.0000
     37  C4D       50.6790   11.2440   23.4140 C.2   501  HEM501      0.0000
     38  CMD       53.1240   12.3100   26.0460 C.3   501  HEM501      0.0000
     39  CAD       49.9260   11.7050   25.9240 C.3   501  HEM501      0.0000
     40  CBD       49.3180   13.1100   25.9490 C.3   501  HEM501      0.0000
     41  CGD       48.2240   13.2650   26.9740 C.2   501  HEM501      0.0000
     42  O1D       47.9080   14.4110   27.3400 O.co2 501  HEM501      0.0000
     43  O2D       47.6590   12.2460   27.4050 O.co2 501  HEM501      0.0000
@<TRIPOS>BOND
     1    24    23    1
     2    22    19    1
     3    23    20    1
     4    19    20    2
     5    19    18    1
     6    20    21    1
     7    18     3    1
     8    18    17    2
     9    21     4    2
    10    21    17    1
    11     3    10    2
    12     4    26    1
    13    17     1    1
    14    30    27    1
    15    11     9    1
    16    10     9   ar
    17    10     6   ar
    18    26    27   ar
    19    26    25   ar
    20     9     8   ar
    21    27    28   ar
    22     6     1    1
    23     6     7   ar
    24     1    25    1
    25     1    33    1
    26    25    29   ar
    27     8     7   ar
    28     8    12    1
    29    28    29   ar
    30    28    31    1
    31     7     2    2
    32    29     5    1
    33    12    13    1
    34    32    31    1
    35    15    14   ar
    36    13    14    1
    37    33    37    2
    38    33    34    1
    39    14    16   ar
    40     2    37    1
    41     5    34    2
    42    37    36    1
    43    34    35    1
    44    36    35    2
    45    36    39    1
    46    35    38    1
    47    39    40    1
    48    40    41    1
    49    41    42   ar
    50    41    43   ar
