@<TRIPOS>MOLECULE
1ror_AMP_A_1.pdb
 23 25 0 0 0
SMALL
GASTEIGER

@<TRIPOS>ATOM
      1  P         35.2160   70.5840   25.2940 P.3   603  AMP603      0.5327
      2  O1P       34.7500   69.4660   26.1790 O.3   603  AMP603     -0.1145
      3  O2P       35.8040   71.6510   26.1380 O.3   603  AMP603     -0.1145
      4  O3P       36.2160   70.0160   24.4120 O.2   603  AMP603     -0.2224
      5  O5'       34.0790   71.2390   24.4270 O.3   603  AMP603     -0.2675
      6  C5'       33.5190   70.5160   23.3240 C.3   603  AMP603      0.1860
      7  C4'       33.6980   71.3230   22.0120 C.3   603  AMP603      0.1823
      8  O4'       32.8110   72.4220   21.9850 O.3   603  AMP603     -0.3135
      9  C3'       35.0670   71.9610   21.9430 C.3   603  AMP603      0.2184
     10  O3'       36.0180   71.0040   21.4700 O.3   603  AMP603     -0.2174
     11  C2'       34.8890   73.1290   21.0120 C.3   603  AMP603      0.2570
     12  O2'       35.2280   72.7890   19.6680 O.3   603  AMP603     -0.2130
     13  C1'       33.3680   73.4330   21.1430 C.3   603  AMP603      0.3186
     14  N9        33.0250   74.7580   21.7160 N.pl3 603  AMP603     -0.1439
     15  C8        32.9350   75.1680   23.0260 C.3   603  AMP603      0.3377
     16  N7        32.5910   76.4680   23.1820 N.2   603  AMP603     -0.2095
     17  C5        32.4440   76.9570   21.8980 C.2   603  AMP603      0.2526
     18  C6        32.1040   78.1880   21.3280 C.2   603  AMP603      0.4393
     19  N6        31.8330   79.2500   22.1000 N.pl3 603  AMP603      0.2180
     20  N1        32.0360   78.3670   19.9330 N.2   603  AMP603      0.0021
     21  C2        32.3090   77.2920   19.0910 C.3   603  AMP603      0.5254
     22  N3        32.6490   76.0440   19.5660 N.2   603  AMP603     -0.0055
     23  C4        32.7140   75.8790   20.9620 C.2   603  AMP603      0.3518
@<TRIPOS>BOND
     1    21    22    1
     2    21    20    1
     3    22    23    2
     4    12    11    1
     5    20    18    2
     6    23    14    1
     7    23    17    1
     8    11    13    1
     9    11     9    1
    10    13    14    1
    11    13     8    1
    12    18    17    1
    13    18    19    1
    14    10     9    1
    15    14    15    1
    16    17    16    2
    17     9     7    1
    18     8     7    1
    19     7     6    1
    20    15    16    1
    21     6     5    1
    22     4     1    2
    23     5     1    1
    24     1     3    1
    25     1     2    1
