@<TRIPOS>MOLECULE
1ros_DEO_A_1.pdb
 35 38 0 0 0
SMALL
GASTEIGER

@<TRIPOS>ATOM
      1  N1        56.2140   85.1380   10.5060 N.am    1  DEO1       -0.2229
      2  C1        56.0110   86.3580    9.8880 C.2     1  DEO1        0.2551
      3  C2        54.9390   87.0010   10.6150 C.ar    1  DEO1        0.0584
      4  C3        54.5480   86.1570   11.6410 C.ar    1  DEO1        0.0584
      5  C4        53.5050   86.5050   12.5340 C.ar    1  DEO1        0.0047
      6  C5        52.8880   87.7740   12.3650 C.ar    1  DEO1        0.0001
      7  C6        53.3030   88.6460   11.3200 C.ar    1  DEO1        0.0001
      8  C7        54.3490   88.2680   10.4290 C.ar    1  DEO1        0.0047
      9  C8        55.3550   84.9500   11.5660 C.2     1  DEO1        0.2551
     10  O1        55.3070   83.9810   12.3010 O.2     1  DEO1       -0.2695
     11  O2        56.6160   86.7970    8.9170 O.2     1  DEO1       -0.2695
     12  C9        57.2320   84.1570   10.0920 C.3     1  DEO1        0.1021
     13  C10       56.7110   82.7980    9.5690 C.3     1  DEO1        0.0337
     14  C11       56.0030   82.7640    8.1910 C.3     1  DEO1        0.1128
     15  C12       55.7660   81.2980    7.7400 C.3     1  DEO1        0.0804
     16  C13       55.5530   81.1130    6.2190 C.2     1  DEO1        0.1736
     17  O3        56.5460   81.1010    5.4980 O.2     1  DEO1       -0.2913
     18  C14       54.1630   80.9500    5.6990 C.ar    1  DEO1        0.0347
     19  C15       53.0620   80.5610    6.5110 C.ar    1  DEO1        0.0028
     20  C16       51.7730   80.4130    5.9630 C.ar    1  DEO1        0.0001
     21  C17       51.5020   80.6430    4.5910 C.ar    1  DEO1        0.0000
     22  C18       52.6090   81.0360    3.7860 C.ar    1  DEO1        0.0001
     23  C19       53.9110   81.1890    4.3200 C.ar    1  DEO1        0.0028
     24  C20       50.1140   80.4530    4.0140 C.ar    1  DEO1        0.0002
     25  C21       49.9150   80.3160    2.6190 C.ar    1  DEO1        0.0031
     26  C22       48.6490   80.1110    2.0540 C.ar    1  DEO1        0.0369
     27  C23       47.4860   80.0270    2.8690 C.ar    1  DEO1        0.1386
     28  C24       47.6590   80.1690    4.2680 C.ar    1  DEO1        0.0369
     29  C25       48.9490   80.3770    4.8290 C.ar    1  DEO1        0.0031
     30  O4        46.1750   79.8100    2.4140 O.3     1  DEO1       -0.4755
     31  C26       45.9620   79.6540    1.0130 C.3     1  DEO1        0.2055
     32  C27       44.4740   79.4240    0.7580 C.3     1  DEO1        0.0512
     33  C28       54.6400   83.5030    8.2170 C.2     1  DEO1        0.3648
     34  O5        53.7770   83.2820    9.0340 O.co2   1  DEO1       -0.2457
     35  O6        54.5160   84.4310    7.2540 O.co2   1  DEO1       -0.2457
@<TRIPOS>BOND
     1    32    31    1
     2    31    30    1
     3    26    25   ar
     4    26    27   ar
     5    30    27    1
     6    25    24   ar
     7    27    28   ar
     8    22    23   ar
     9    22    21   ar
    10    24    21    1
    11    24    29   ar
    12    28    29   ar
    13    23    18   ar
    14    21    20   ar
    15    17    16    2
    16    18    16    1
    17    18    19   ar
    18    20    19   ar
    19    16    15    1
    20    35    33   ar
    21    15    14    1
    22    14    33    1
    23    14    13    1
    24    33    34   ar
    25    11     2    2
    26    13    12    1
    27     2     1   am
    28     2     3    1
    29    12     1    1
    30     8     3   ar
    31     8     7   ar
    32     1     9   am
    33     3     4   ar
    34     7     6   ar
    35     9     4    1
    36     9    10    2
    37     4     5   ar
    38     6     5   ar
