@<TRIPOS>MOLECULE
1roz_NAD_A_1.pdb
 44 48 0 0 0
SMALL
GASTEIGER

@<TRIPOS>ATOM
      1  PA        36.8700    9.5910   16.2420 P.3   701  NAD701      0.2189
      2  O1A       35.6150   10.0640   16.8430 O.3   701  NAD701     -0.4371
      3  O2A       36.8390    8.4190   15.3660 O.2   701  NAD701     -0.5170
      4  O5B       37.9270    9.3130   17.4020 O.3   701  NAD701     -0.3112
      5  C5B       39.2490    8.9010   17.0580 C.3   701  NAD701      0.1813
      6  C4B       39.9650    8.4490   18.3030 C.3   701  NAD701      0.1821
      7  O4B       40.3350    9.5900   19.1000 O.3   701  NAD701     -0.3135
      8  C3B       39.1370    7.5800   19.2420 C.3   701  NAD701      0.2184
      9  O3B       39.0850    6.2070   18.8230 O.3   701  NAD701     -0.2174
     10  C2B       39.8450    7.7820   20.5560 C.3   701  NAD701      0.2570
     11  O2B       40.9820    6.9110   20.6850 O.3   701  NAD701     -0.2130
     12  C1B       40.2520    9.2490   20.4960 C.3   701  NAD701      0.3186
     13  N9A       39.2760   10.1290   21.1200 N.pl3 701  NAD701     -0.1439
     14  C8A       37.9990   10.4300   20.6760 C.3   701  NAD701      0.3377
     15  N7A       37.3010   11.1220   21.5500 N.2   701  NAD701     -0.2095
     16  C5A       38.1860   11.3570   22.6000 C.2   701  NAD701      0.2526
     17  C6A       38.0450   12.0210   23.8510 C.2   701  NAD701      0.4393
     18  N6A       36.8930   12.5420   24.2970 N.pl3 701  NAD701      0.2180
     19  N1A       39.1500   12.1030   24.6560 N.2   701  NAD701      0.0021
     20  C2A       40.3170   11.5820   24.2310 C.3   701  NAD701      0.5254
     21  N3A       40.5580   10.8950   23.1060 N.2   701  NAD701     -0.0055
     22  C4A       39.4340   10.8050   22.3240 C.2   701  NAD701      0.3518
     23  O3        37.5620   10.7900   15.4640 O.3   701  NAD701     -0.2703
     24  PN        37.2890   11.5150   14.0960 P.3   701  NAD701      0.2189
     25  O1N       38.4350   11.2300   13.2160 O.2   701  NAD701     -0.5170
     26  O2N       37.0250   12.9300   14.4420 O.3   701  NAD701     -0.4371
     27  O5D       35.9430   10.8520   13.5080 O.3   701  NAD701     -0.3112
     28  C5D       35.8900   10.0750   12.2940 C.3   701  NAD701      0.1813
     29  C4D       35.0100   10.7920   11.2890 C.3   701  NAD701      0.1799
     30  O4D       33.6680   11.0200   11.8050 O.3   701  NAD701     -0.3327
     31  C3D       35.5490   12.1640   10.9470 C.3   701  NAD701      0.2158
     32  O3D       36.2410   12.1250    9.6950 O.3   701  NAD701     -0.2175
     33  C2D       34.3720   13.1290   10.9030 C.3   701  NAD701      0.2309
     34  O2D       34.2080   13.8890    9.7260 O.3   701  NAD701     -0.2158
     35  C1D       33.1880   12.2430   11.1940 C.3   701  NAD701      0.2263
     36  N1N       32.1450   12.9080   11.9880 N.pl3 701  NAD701     -0.2787
     37  C2N       32.1750   13.0650   13.3930 C.3   701  NAD701      0.1244
     38  C3N       30.9940   13.2540   14.0550 C.2   701  NAD701      0.0544
     39  C7N       30.9800   13.1830   15.5250 C.2   701  NAD701      0.2818
     40  O7N       30.8230   11.9840   16.1520 O.2   701  NAD701     -0.2670
     41  N7N       31.0560   14.3550   16.1380 N.am  701  NAD701     -0.0839
     42  C4N       30.0050   13.9470   13.3770 C.2   701  NAD701      0.0033
     43  C5N       29.9980   14.0540   12.0140 C.2   701  NAD701      0.0157
     44  C6N       31.0380   13.4800   11.3160 C.2   701  NAD701      0.0633
@<TRIPOS>BOND
     1    32    31    1
     2    34    33    1
     3    33    31    1
     4    33    35    1
     5    31    29    1
     6    35    30    1
     7    35    36    1
     8    29    30    1
     9    29    28    1
    10    44    36    1
    11    44    43    2
    12    36    37    1
    13    43    42    1
    14    28    27    1
    15    25    24    2
    16    42    38    2
    17    37    38    1
    18    27    24    1
    19    38    39    1
    20    24    26    1
    21    24    23    1
    22     3     1    2
    23    23     1    1
    24    39    41   am
    25    39    40    2
    26     1     2    1
    27     1     4    1
    28     5     4    1
    29     5     6    1
    30     6     7    1
    31     6     8    1
    32     9     8    1
    33     7    12    1
    34     8    10    1
    35    12    10    1
    36    12    13    1
    37    10    11    1
    38    14    13    1
    39    14    15    1
    40    13    22    1
    41    15    16    2
    42    22    16    1
    43    22    21    2
    44    16    17    1
    45    21    20    1
    46    17    18    1
    47    17    19    2
    48    20    19    1
