@<TRIPOS>MOLECULE
1rp0_AHZ_A_1.pdb
 38 41 0 0 0
SMALL
GASTEIGER

@<TRIPOS>ATOM
      1  O2'       56.2990   25.0380   38.2040 O.3   600  AHZ600     -0.2130
      2  C2'       55.7780   23.7680   37.7820 C.3   600  AHZ600      0.2570
      3  C3'       54.5050   23.8630   36.9160 C.3   600  AHZ600      0.2184
      4  O3'       53.6870   25.0130   37.1430 O.3   600  AHZ600     -0.2174
      5  C1'       55.2170   22.9920   38.9580 C.3   600  AHZ600      0.3186
      6  N9        56.2000   22.2600   39.7560 N.pl3 600  AHZ600     -0.1439
      7  C8        57.0680   21.3510   39.2870 C.3   600  AHZ600      0.3377
      8  N7        57.7940   20.7910   40.2760 N.2   600  AHZ600     -0.2095
      9  C5        57.3660   21.3540   41.4220 C.2   600  AHZ600      0.2526
     10  C6        57.6920   21.2500   42.8520 C.2   600  AHZ600      0.4393
     11  N1        57.0030   22.0030   43.7110 N.2   600  AHZ600      0.0021
     12  C2        56.0400   22.8470   43.3100 C.3   600  AHZ600      0.5254
     13  N6        58.6360   20.4250   43.2510 N.pl3 600  AHZ600      0.2180
     14  C4        56.3310   22.2920   41.0860 C.2   600  AHZ600      0.3518
     15  N3        55.6360   23.0830   42.0530 N.2   600  AHZ600     -0.0055
     16  O4'       54.4330   21.9520   38.3510 O.3   600  AHZ600     -0.3135
     17  C4'       53.7680   22.5550   37.2140 C.3   600  AHZ600      0.1821
     18  C5'       53.8740   21.5850   36.0490 C.3   600  AHZ600      0.1813
     19  O5'       53.0970   22.1340   34.9820 O.3   600  AHZ600     -0.3112
     20  PA        53.3210   21.6600   33.4590 P.3   600  AHZ600      0.2189
     21  O2A       52.3240   22.4580   32.6710 O.2   600  AHZ600     -0.5170
     22  O1A       54.7800   21.6490   33.1480 O.3   600  AHZ600     -0.4371
     23  O3A       52.8950   20.0840   33.4510 O.3   600  AHZ600     -0.2703
     24  PB        51.4490   19.4060   33.1620 P.3   600  AHZ600      0.2188
     25  O1B       50.3140   19.9810   33.9510 O.3   600  AHZ600     -0.4371
     26  O2B       51.8440   17.9490   33.3620 O.2   600  AHZ600     -0.5170
     27  O3B       51.2580   19.7590   31.5940 O.3   600  AHZ600     -0.3139
     28  C7T       52.2480   19.3970   30.6040 C.3   600  AHZ600      0.1505
     29  C6T       52.0090   20.1610   29.2780 C.3   600  AHZ600      0.0505
     30  C5T       53.2100   19.8650   28.3900 C.3   600  AHZ600      0.1049
     31  S1T       53.3120   18.7270   27.1590 S.3   600  AHZ600     -0.0698
     32  C2T       54.9070   19.1060   26.9230 C.2   600  AHZ600      0.2359
     33  C1R       55.8620   18.5660   25.9520 C.2   600  AHZ600      0.4227
     34  O1R       56.9340   19.2390   25.9330 O.co2 600  AHZ600     -0.2371
     35  O2R       55.5660   17.5280   25.2990 O.co2 600  AHZ600     -0.2371
     36  N3T       55.3370   20.0170   27.6830 N.2   600  AHZ600     -0.3967
     37  C4T       54.4040   20.4510   28.5400 C.2   600  AHZ600      0.0981
     38  C1M       54.7110   21.5500   29.5360 C.3   600  AHZ600      0.0624
@<TRIPOS>BOND
     1    35    33   ar
     2    34    33   ar
     3    33    32    1
     4    32    31    1
     5    32    36    2
     6    31    30    1
     7    36    37    2
     8    30    37    1
     9    30    29    1
    10    37    38    1
    11    29    28    1
    12    28    27    1
    13    27    24    1
    14    21    20    2
    15    22    20    1
    16    24    26    2
    17    24    23    1
    18    24    25    1
    19    23    20    1
    20    20    19    1
    21    19    18    1
    22    18    17    1
    23     3     4    1
    24     3    17    1
    25     3     2    1
    26    17    16    1
    27     2     1    1
    28     2     5    1
    29    16     5    1
    30     5     6    1
    31     7     6    1
    32     7     8    1
    33     6    14    1
    34     8     9    2
    35    14     9    1
    36    14    15    2
    37     9    10    1
    38    15    12    1
    39    10    13    1
    40    10    11    2
    41    12    11    1
