@<TRIPOS>MOLECULE
1rp7_TZD_A_1.pdb
 27 28 0 0 0
SMALL
GASTEIGER

@<TRIPOS>ATOM
      1  N1'       24.5960  -59.6220    1.0780 N.2   889  TZD889     -0.1861
      2  C2'       24.1780  -58.7200    0.1240 C.1   889  TZD889      0.0663
      3  C2A       24.3080  -57.2750    0.4520 C.3   889  TZD889      0.1291
      4  N3'       23.6740  -59.0950   -1.0500 N.2   889  TZD889     -0.3368
      5  C4'       23.5580  -60.4590   -1.3360 C.2   889  TZD889      0.2294
      6  N4'       23.0770  -60.7660   -2.5250 N.pl3 889  TZD889     -0.0924
      7  C5'       23.9920  -61.4650   -0.3390 C.2   889  TZD889      0.0683
      8  C6'       24.4990  -60.9830    0.8420 C.2   889  TZD889      0.1117
      9  C35       23.9530  -62.9610   -0.5600 C.3   889  TZD889      0.1415
     10  N3        22.5570  -63.5460   -0.6440 N.ar  889  TZD889     -0.2894
     11  C2        21.9410  -63.8100   -1.8220 C.ar  889  TZD889      0.2920
     12  OC2       22.3730  -63.5710   -2.9610 O.2   889  TZD889     -0.2594
     13  S1        20.3830  -64.5630   -1.5240 S.2   889  TZD889     -0.0306
     14  C5        20.6060  -64.4830    0.1940 C.ar  889  TZD889      0.0259
     15  C4        21.8200  -63.9220    0.5170 C.ar  889  TZD889      0.0432
     16  C4A       22.3830  -63.7130    1.8970 C.3   889  TZD889      0.0503
     17  C5A       19.5220  -64.9140    1.1280 C.3   889  TZD889      0.0667
     18  C5B       18.2010  -64.2710    0.7870 C.3   889  TZD889      0.1544
     19  O5G       17.3430  -64.3850    1.9470 O.3   889  TZD889     -0.3134
     20  P1        15.9720  -63.5670    2.0480 P.3   889  TZD889      0.2230
     21  O11       15.1640  -64.0520    0.7640 O.3   889  TZD889     -0.2261
     22  O12       15.2680  -64.0150    3.2660 O.3   889  TZD889     -0.4370
     23  O13       16.2650  -62.1220    1.8830 O.2   889  TZD889     -0.5169
     24  P2        14.6210  -65.4550    0.2170 P.3   889  TZD889      0.5373
     25  O21       13.1970  -65.1610   -0.3480 O.3   889  TZD889     -0.1143
     26  O22       15.5160  -65.8680   -0.8980 O.2   889  TZD889     -0.2221
     27  O23       14.5210  -66.3670    1.3810 O.3   889  TZD889     -0.1143
@<TRIPOS>BOND
     1    12    11    2
     2     6     5    1
     3    11    13   ar
     4    11    10   ar
     5    13    14   ar
     6     5     4    2
     7     5     7    1
     8     4     2    2
     9    26    24    2
    10    10     9    1
    11    10    15   ar
    12     9     7    1
    13    25    24    1
    14     7     8    2
    15     2     3    1
    16     2     1    2
    17    14    15   ar
    18    14    17    1
    19    24    21    1
    20    24    27    1
    21    15    16    1
    22    21    20    1
    23    18    17    1
    24    18    19    1
    25     8     1    1
    26    23    20    2
    27    19    20    1
    28    20    22    1
