@<TRIPOS>MOLECULE
1rp8_BGC_A_1.pdb
 11 11 0 0 0
SMALL
GASTEIGER

@<TRIPOS>ATOM
      1  C2        29.6460   30.2370   38.0520 C.3   2002  BGC2002     0.2141
      2  C3        28.8130   31.4860   37.9710 C.3   2002  BGC2002     0.2173
      3  C4        29.1830   32.4980   39.0720 C.3   2002  BGC2002     0.2142
      4  C5        30.6920   32.5810   39.4500 C.3   2002  BGC2002     0.1810
      5  C6        30.8760   32.9330   40.9190 C.3   2002  BGC2002     0.2141
      6  C1        31.0700   30.7540   37.9940 C.3   2002  BGC2002     0.1777
      7  O2        29.3510   29.3730   36.9610 O.3   2002  BGC2002    -0.2176
      8  O3        27.4400   31.1560   38.0590 O.3   2002  BGC2002    -0.2175
      9  O4        28.7880   33.7940   38.6080 O.3   2002  BGC2002    -0.2176
     10  O5        31.3760   31.3310   39.2380 O.3   2002  BGC2002    -0.3481
     11  O6        31.0760   34.3260   41.1000 O.3   2002  BGC2002    -0.2176
@<TRIPOS>BOND
     1     7     1    1
     2     2     1    1
     3     2     8    1
     4     2     3    1
     5     6     1    1
     6     6    10    1
     7     9     3    1
     8     3     4    1
     9    10     4    1
    10     4     5    1
    11     5    11    1
