@<TRIPOS>MOLECULE
1rp8_GLC_A_10.pdb
 11 11 0 0 0
SMALL
GASTEIGER

@<TRIPOS>ATOM
      1  C1        27.7070    2.6360   11.1470 C.3   4002  GLC4002     0.1777
      2  C2        26.4980    2.4950   12.0810 C.3   4002  GLC4002     0.2141
      3  C3        25.3420    1.8360   11.3590 C.3   4002  GLC4002     0.2173
      4  C4        25.0290    2.6140   10.0850 C.3   4002  GLC4002     0.2142
      5  C5        26.2860    2.7370    9.2380 C.3   4002  GLC4002     0.1810
      6  C6        26.0830    3.5710    7.9990 C.3   4002  GLC4002     0.2141
      7  O2        26.8450    1.7260   13.2200 O.3   4002  GLC4002    -0.2176
      8  O3        24.1990    1.8000   12.2060 O.3   4002  GLC4002    -0.2175
      9  O4        24.0350    1.8990    9.3410 O.3   4002  GLC4002    -0.2176
     10  O5        27.3360    3.3600    9.9900 O.3   4002  GLC4002    -0.3481
     11  O6        27.2980    3.6800    7.2730 O.3   4002  GLC4002    -0.2176
@<TRIPOS>BOND
     1    11     6    1
     2     6     5    1
     3     5    10    1
     4     5     4    1
     5     9     4    1
     6    10     1    1
     7     4     3    1
     8     1     2    1
     9     3     2    1
    10     3     8    1
    11     2     7    1
