@<TRIPOS>MOLECULE
1rp9_GLC_A_1.pdb
 12 12 0 0 0
SMALL
GASTEIGER

@<TRIPOS>ATOM
      1  C1        35.6490   -3.4770    7.8470 C.3   4002  GLC4002     0.3024
      2  C2        34.6960   -2.6840    6.9600 C.3   4002  GLC4002     0.2434
      3  C3        33.6600   -1.9650    7.8280 C.3   4002  GLC4002     0.2199
      4  C4        33.1600   -2.7680    9.0750 C.3   4002  GLC4002     0.2144
      5  C5        34.0950   -3.8740    9.6050 C.3   4002  GLC4002     0.1836
      6  C6        33.3030   -4.9890   10.2610 C.3   4002  GLC4002     0.2142
      7  O1        36.6020   -4.1300    7.0780 O.3   4002  GLC4002    -0.1869
      8  O2        35.4140   -1.7300    6.1880 O.3   4002  GLC4002    -0.2148
      9  O3        32.5370   -1.6370    7.0210 O.3   4002  GLC4002    -0.2174
     10  O4        32.9790   -1.8560   10.1500 O.3   4002  GLC4002    -0.2176
     11  O5        34.8890   -4.4630    8.5570 O.3   4002  GLC4002    -0.3236
     12  O6        32.3320   -4.4640   11.1530 O.3   4002  GLC4002    -0.2176
@<TRIPOS>BOND
     1     8     2    1
     2     2     3    1
     3     2     1    1
     4     9     3    1
     5     7     1    1
     6     3     4    1
     7     1    11    1
     8    11     5    1
     9     4     5    1
    10     4    10    1
    11     5     6    1
    12     6    12    1
