@<TRIPOS>MOLECULE
1rp9_BGC_A_1.pdb
 11 11 0 0 0
SMALL
GASTEIGER

@<TRIPOS>ATOM
      1  C2        31.5650   -0.4500   11.4850 C.3   4001  BGC4001     0.2141
      2  C3        30.1020   -0.0630   11.5110 C.3   4001  BGC4001     0.2173
      3  C4        29.7440    0.8170   10.2890 C.3   4001  BGC4001     0.2142
      4  C5        30.2350    0.1580    8.9760 C.3   4001  BGC4001     0.1810
      5  C6        30.1630    1.0220    7.7260 C.3   4001  BGC4001     0.2141
      6  C1        31.7570   -1.2090   10.1800 C.3   4001  BGC4001     0.1777
      7  O2        31.9090   -1.2510   12.6110 O.3   4001  BGC4001    -0.2176
      8  O3        29.8000    0.6170   12.7110 O.3   4001  BGC4001    -0.2175
      9  O4        28.3050    0.9550   10.2310 O.3   4001  BGC4001    -0.2176
     10  O5        31.5950   -0.2840    9.1160 O.3   4001  BGC4001    -0.3481
     11  O6        30.4510    0.2540    6.5610 O.3   4001  BGC4001    -0.2176
@<TRIPOS>BOND
     1    11     5    1
     2     5     4    1
     3     4    10    1
     4     4     3    1
     5    10     6    1
     6     6     1    1
     7     9     3    1
     8     3     2    1
     9     1     2    1
    10     1     7    1
    11     2     8    1
