@<TRIPOS>MOLECULE
1rp9_DAF_A_1.pdb
 21 22 0 0 0
SMALL
GASTEIGER

@<TRIPOS>ATOM
      1  C1        27.7580    2.2310   10.4300 C.3   4000  DAF4000     0.1775
      2  C2        26.5080    2.1140   11.3320 C.3   4000  DAF4000     0.2129
      3  C3        25.3800    1.3800   10.5830 C.3   4000  DAF4000     0.2028
      4  C4        25.0740    2.0990    9.2580 C.3   4000  DAF4000     0.1327
      5  C5        26.3760    2.1630    8.4340 C.3   4000  DAF4000     0.1339
      6  C6        26.1520    2.8870    7.1170 C.3   4000  DAF4000     0.0336
      7  O2        26.8240    1.4090   12.5340 O.3   4000  DAF4000    -0.2177
      8  O3        24.2180    1.3590   11.3970 O.3   4000  DAF4000    -0.2187
      9  O5        27.4000    2.8490    9.1890 O.3   4000  DAF4000    -0.3519
     10  N4        23.9840    1.5390    8.4680 N.3   4000  DAF4000    -0.2131
     11  C1H       22.6720    2.1570    8.6040 C.3   4000  DAF4000     0.1060
     12  C2H       21.4630    1.2270    8.3550 C.3   4000  DAF4000     0.2005
     13  C3H       21.3570    0.8250    6.8630 C.3   4000  DAF4000     0.2136
     14  C4H       20.9010    2.0000    6.0080 C.3   4000  DAF4000     0.1872
     15  C5H       21.9810    3.0520    6.2430 C.3   4000  DAF4000     0.0675
     16  C6H       22.4460    3.3420    7.6530 C.3   4000  DAF4000     0.0253
     17  C7H       22.6590    3.8830    5.1870 C.3   4000  DAF4000     0.1847
     18  O2H       21.6090    0.0610    9.1520 O.3   4000  DAF4000    -0.2188
     19  O3H       20.4510   -0.2580    6.6880 O.3   4000  DAF4000    -0.2176
     20  O4H       20.7100    1.5580    4.6630 O.3   4000  DAF4000    -0.2202
     21  O7H       21.9370    5.1000    5.2510 O.3   4000  DAF4000    -0.2203
@<TRIPOS>BOND
     1    20    14    1
     2    17    21    1
     3    17    15    1
     4    14    15    1
     5    14    13    1
     6    15    16    1
     7    19    13    1
     8    13    12    1
     9     6     5    1
    10    16    11    1
    11    12    11    1
    12    12    18    1
    13     5     9    1
    14     5     4    1
    15    10    11    1
    16    10     4    1
    17     9     1    1
    18     4     3    1
    19     1     2    1
    20     3     2    1
    21     3     8    1
    22     2     7    1
