@<TRIPOS>MOLECULE
1rpf_C3P_A_1.pdb
 21 22 0 0 0
SMALL
GASTEIGER

@<TRIPOS>ATOM
      1  P        -13.0070   47.5780    6.6780 P.3   125  C3P125      0.5327
      2  O1P      -12.4950   47.7550    8.0660 O.3   125  C3P125     -0.1145
      3  O2P      -11.9090   46.9660    5.8450 O.2   125  C3P125     -0.2224
      4  O3P      -14.2920   46.8430    6.5130 O.3   125  C3P125     -0.1145
      5  O5'      -14.6720   52.9510    6.5550 O.3   125  C3P125     -0.2176
      6  C5'      -13.6240   52.1230    7.0340 C.3   125  C3P125      0.2141
      7  C4'      -12.9400   51.4380    5.8230 C.3   125  C3P125      0.1802
      8  O4'      -11.8810   52.1230    5.0710 O.3   125  C3P125     -0.3320
      9  C3'      -12.3850   50.0760    6.1140 C.3   125  C3P125      0.1903
     10  O3'      -13.3000   49.0350    6.0620 O.3   125  C3P125     -0.2674
     11  C2'      -11.1980   49.9110    5.1690 C.3   125  C3P125      0.2293
     12  O2'      -11.3470   48.7790    4.2860 O.3   125  C3P125     -0.2158
     13  C1'      -10.7330   51.3090    4.9110 C.3   125  C3P125      0.2399
     14  N1        -9.6850   51.8400    5.7350 N.am  125  C3P125     -0.1778
     15  C2        -8.4410   51.3980    5.5230 C.1   125  C3P125      0.2756
     16  N3        -7.4350   51.9610    6.2110 N.2   125  C3P125     -0.3024
     17  C4        -7.6660   52.8980    7.1280 C.2   125  C3P125      0.2346
     18  C5        -8.9710   53.3300    7.3650 C.2   125  C3P125      0.0687
     19  C6        -9.9420   52.8240    6.6430 C.2   125  C3P125      0.0836
     20  O2        -8.2870   50.5250    4.7000 O.2   125  C3P125     -0.1925
     21  N4        -6.7240   53.4960    7.8430 N.pl3 125  C3P125     -0.0921
@<TRIPOS>BOND
     1    12    11    1
     2    20    15    2
     3    13     8    1
     4    13    11    1
     5    13    14    1
     6     8     7    1
     7    11     9    1
     8    15    14   am
     9    15    16    2
    10    14    19    1
    11     7     9    1
    12     7     6    1
    13     3     1    2
    14    10     9    1
    15    10     1    1
    16    16    17    2
    17     4     1    1
    18     5     6    1
    19    19    18    2
    20     1     2    1
    21    17    18    1
    22    17    21    1
