@<TRIPOS>MOLECULE
1rpg_CPA_A_1.pdb
 37 41 0 0 0
SMALL
GASTEIGER

@<TRIPOS>ATOM
      1  P         29.6720   17.2290    5.7320 P.3   126  CPA126      0.2141
      2  O1P       30.0110   17.9500    6.9710 O.3   126  CPA126     -0.4373
      3  O2P       28.3750   17.4140    5.0560 O.2   126  CPA126     -0.5172
      4  O5D       33.5530   14.1870    5.0730 O.3   126  CPA126     -0.2176
      5  C5X       32.4620   13.2990    4.9230 C.3   126  CPA126      0.2140
      6  C4X       31.3500   13.6620    5.8660 C.3   126  CPA126      0.1774
      7  O4D       31.4400   12.9030    7.0830 O.3   126  CPA126     -0.3339
      8  C3X       31.2250   15.1140    6.2470 C.3   126  CPA126      0.1557
      9  O3D       29.9660   15.6920    5.8960 O.3   126  CPA126     -0.3139
     10  C2X       31.4990   15.1510    7.7270 C.3   126  CPA126      0.0845
     11  C1X       31.2870   13.7310    8.2200 C.3   126  CPA126      0.2089
     12  N1C       32.2940   13.3620    9.2460 N.am  126  CPA126     -0.1802
     13  CC2       31.9370   13.6720   10.5370 C.1   126  CPA126      0.2756
     14  N3C       32.8130   13.3680   11.5050 N.2   126  CPA126     -0.3024
     15  CC4       33.9770   12.8020   11.2790 C.2   126  CPA126      0.2346
     16  CC5       34.3720   12.4700    9.9330 C.2   126  CPA126      0.0687
     17  CC6       33.5090   12.7660    8.9540 C.2   126  CPA126      0.0835
     18  O2C       30.8500   14.2100   10.6910 O.2   126  CPA126     -0.1925
     19  N4C       34.7890   12.5350   12.3030 N.pl3 126  CPA126     -0.0921
     20  O5B       30.7750   17.6820    4.6160 O.3   126  CPA126     -0.3114
     21  C5B       30.5710   17.3710    3.2490 C.3   126  CPA126      0.1812
     22  C4B       30.2760   18.5990    2.4290 C.3   126  CPA126      0.1795
     23  O4B       31.3020   19.6030    2.6270 O.3   126  CPA126     -0.3155
     24  C3B       30.1990   18.3750    0.9250 C.3   126  CPA126      0.1883
     25  O3B       29.1400   19.1600    0.3670 O.3   126  CPA126     -0.2202
     26  C2B       31.5700   18.8310    0.4410 C.3   126  CPA126      0.1151
     27  C1B       31.8290   20.0060    1.3740 C.3   126  CPA126      0.2873
     28  N9A       33.2630   20.2830    1.5730 N.pl3 126  CPA126     -0.1460
     29  C8A       34.3210   19.4350    1.7230 C.3   126  CPA126      0.3377
     30  N7A       35.4620   20.0830    1.8900 N.2   126  CPA126     -0.2095
     31  C5A       35.1070   21.4340    1.8420 C.2   126  CPA126      0.2526
     32  C6A       35.9120   22.6060    1.9510 C.2   126  CPA126      0.4393
     33  N6A       37.2190   22.5980    2.1370 N.pl3 126  CPA126      0.2180
     34  N1A       35.2530   23.8090    1.8610 N.2   126  CPA126      0.0021
     35  C2A       33.9430   23.7680    1.6720 C.3   126  CPA126      0.5254
     36  N3A       33.1060   22.7380    1.5530 N.2   126  CPA126     -0.0055
     37  C4A       33.7380   21.5660    1.6460 C.2   126  CPA126      0.3518
@<TRIPOS>BOND
     1    25    24    1
     2    26    24    1
     3    26    27    1
     4    24    22    1
     5    27    28    1
     6    27    23    1
     7    36    37    2
     8    36    35    1
     9    28    37    1
    10    28    29    1
    11    37    31    1
    12    35    34    1
    13    29    30    1
    14    31    30    2
    15    31    32    1
    16    34    32    2
    17    32    33    1
    18    22    23    1
    19    22    21    1
    20    21    20    1
    21    20     1    1
    22     5     4    1
    23     5     6    1
    24     3     1    2
    25     1     9    1
    26     1     2    1
    27     6     8    1
    28     6     7    1
    29     9     8    1
    30     8    10    1
    31     7    11    1
    32    10    11    1
    33    11    12    1
    34    17    12    1
    35    17    16    2
    36    12    13   am
    37    16    15    1
    38    13    18    2
    39    13    14    2
    40    15    14    2
    41    15    19    1
