@<TRIPOS>MOLECULE
1rpi_GLC_A_1.pdb
 12 12 0 0 0
SMALL
GASTEIGER

@<TRIPOS>ATOM
      1  C1        37.8300   -4.9100  -31.1630 C.3   5001  GLC5001     0.3024
      2  C2        37.0670   -4.0260  -32.1330 C.3   5001  GLC5001     0.2434
      3  C3        35.5600   -4.1340  -31.9340 C.3   5001  GLC5001     0.2199
      4  C4        35.1300   -5.5970  -31.8600 C.3   5001  GLC5001     0.2144
      5  C5        35.9580   -6.3050  -30.7930 C.3   5001  GLC5001     0.1836
      6  C6        35.5630   -7.7500  -30.6040 C.3   5001  GLC5001     0.2142
      7  O1        39.1730   -4.9480  -31.5090 O.3   5001  GLC5001    -0.1869
      8  O2        37.5010   -2.6770  -32.0190 O.3   5001  GLC5001    -0.2148
      9  O3        34.9040   -3.5060  -33.0270 O.3   5001  GLC5001    -0.2174
     10  O4        33.7540   -5.7250  -31.5460 O.3   5001  GLC5001    -0.2176
     11  O5        37.3430   -6.2530  -31.1830 O.3   5001  GLC5001    -0.3236
     12  O6        36.0650   -8.2680  -29.3630 O.3   5001  GLC5001    -0.2176
@<TRIPOS>BOND
     1     9     3    1
     2     2     8    1
     3     2     3    1
     4     2     1    1
     5     3     4    1
     6     4    10    1
     7     4     5    1
     8     7     1    1
     9    11     1    1
    10    11     5    1
    11     5     6    1
    12     6    12    1
