@<TRIPOS>MOLECULE
1rpj_ALL_A_1.pdb
 12 12 0 0 0
SMALL
GASTEIGER

@<TRIPOS>ATOM
      1  C1'        4.8590    7.1330   10.4580 C.3   291  ALL291      0.3024
      2  C2'        5.1900    8.5360   11.0230 C.3   291  ALL291      0.2434
      3  C3'        4.7500    8.6290   12.4810 C.3   291  ALL291      0.2199
      4  C4'        3.2470    8.3340   12.5700 C.3   291  ALL291      0.2144
      5  C5'        2.9950    6.9600   11.9330 C.3   291  ALL291      0.1836
      6  C6'        1.5900    6.4550   12.0040 C.3   291  ALL291      0.2142
      7  O1'        5.2420    7.0060    9.1070 O.3   291  ALL291     -0.1869
      8  O2'        6.5850    8.7610   10.9250 O.3   291  ALL291     -0.2148
      9  O3'        5.4730    7.5950   13.2340 O.3   291  ALL291     -0.2174
     10  O4'        2.7870    8.2700   13.9250 O.3   291  ALL291     -0.2176
     11  O5'        3.4670    6.9210   10.5920 O.3   291  ALL291     -0.3236
     12  O6'        0.6840    7.3450   11.2990 O.3   291  ALL291     -0.2176
@<TRIPOS>BOND
     1     7     1    1
     2     1    11    1
     3     1     2    1
     4    11     5    1
     5     8     2    1
     6     2     3    1
     7    12     6    1
     8     5     6    1
     9     5     4    1
    10     3     4    1
    11     3     9    1
    12     4    10    1
