@<TRIPOS>MOLECULE
1rpk_DAF_A_1.pdb
 21 22 0 0 0
SMALL
GASTEIGER

@<TRIPOS>ATOM
      1  C1        10.2840   17.1420   25.4440 C.3   2000  DAF2000     0.1775
      2  C2        11.8090   17.3930   25.3440 C.3   2000  DAF2000     0.2129
      3  C3        12.4010   16.5970   24.1680 C.3   2000  DAF2000     0.2028
      4  C4        12.0450   15.1090   24.2840 C.3   2000  DAF2000     0.1331
      5  C5        10.5100   14.9610   24.3730 C.3   2000  DAF2000     0.1339
      6  C6        10.1000   13.4990   24.5530 C.3   2000  DAF2000     0.0336
      7  O2        12.0700   18.7930   25.1820 O.3   2000  DAF2000    -0.2177
      8  O3        13.8050   16.7410   24.1540 O.3   2000  DAF2000    -0.2187
      9  O5        10.0000   15.7340   25.4870 O.3   2000  DAF2000    -0.3519
     10  N4        12.6020   14.2900   23.2150 N.3   2000  DAF2000    -0.2087
     11  C1H       13.8810   13.6280   23.4600 C.3   2000  DAF2000     0.1273
     12  C2H       13.9380   12.2030   22.8860 C.3   2000  DAF2000     0.2049
     13  C3H       12.9510   11.2870   23.6430 C.3   2000  DAF2000     0.2179
     14  C4H       13.5040   10.9180   25.0250 C.3   2000  DAF2000     0.2053
     15  C5H       14.1910   12.1520   25.6410 C.2   2000  DAF2000     0.0180
     16  C6H       14.3420   13.4910   24.9370 C.2   2000  DAF2000    -0.0100
     17  C7H       14.8150   12.1210   27.0200 C.3   2000  DAF2000     0.2066
     18  O2H       13.6260   12.2310   21.4990 O.3   2000  DAF2000    -0.2184
     19  O3H       12.7110   10.1070   22.9000 O.3   2000  DAF2000    -0.2172
     20  O4H       12.4570   10.3850   25.8390 O.3   2000  DAF2000    -0.2157
     21  O7H       16.1770   11.8710   26.7420 O.3   2000  DAF2000    -0.2155
@<TRIPOS>BOND
     1    18    12    1
     2    12    11    1
     3    12    13    1
     4    19    13    1
     5    10    11    1
     6    10     4    1
     7    11    16    1
     8    13    14    1
     9     8     3    1
    10     3     4    1
    11     3     2    1
    12     4     5    1
    13     5     6    1
    14     5     9    1
    15    16    15    2
    16    14    15    1
    17    14    20    1
    18     7     2    1
    19     2     1    1
    20     1     9    1
    21    15    17    1
    22    21    17    1
