@<TRIPOS>MOLECULE
1rpk_GLC_A_1.pdb
 12 12 0 0 0
SMALL
GASTEIGER

@<TRIPOS>ATOM
      1  C1         6.0980   19.8830   23.8780 C.3   2001  GLC2001     0.3024
      2  C2         7.2000   20.6240   24.6380 C.3   2001  GLC2001     0.2434
      3  C3         8.5380   19.9030   24.4540 C.3   2001  GLC2001     0.2199
      4  C4         8.4200   18.4110   24.7780 C.3   2001  GLC2001     0.2144
      5  C5         7.2520   17.8010   24.0050 C.3   2001  GLC2001     0.1836
      6  C6         7.0170   16.3410   24.3220 C.3   2001  GLC2001     0.2142
      7  O1         4.8680   20.4810   24.1270 O.3   2001  GLC2001    -0.1869
      8  O2         7.3060   21.9450   24.1370 O.3   2001  GLC2001    -0.2148
      9  O3         9.5280   20.4810   25.2940 O.3   2001  GLC2001    -0.2174
     10  O4         9.6070   17.7860   24.4030 O.3   2001  GLC2001    -0.2176
     11  O5         6.0340   18.5190   24.3100 O.3   2001  GLC2001    -0.3236
     12  O6         6.9730   16.1170   25.7230 O.3   2001  GLC2001    -0.2176
@<TRIPOS>BOND
     1     1     7    1
     2     1    11    1
     3     1     2    1
     4     5    11    1
     5     5     6    1
     6     5     4    1
     7     8     2    1
     8     6    12    1
     9    10     4    1
    10     3     2    1
    11     3     4    1
    12     3     9    1
