@<TRIPOS>MOLECULE
1rpn_NDP_A_1.pdb
 48 52 0 0 0
SMALL
GASTEIGER

@<TRIPOS>ATOM
      1  PA       103.4190   41.8280   37.8770 P.3   1501  NDP1501     0.2189
      2  O1A      102.1310   41.5580   37.1840 O.2   1501  NDP1501    -0.5170
      3  O2A      103.4630   41.7540   39.3540 O.3   1501  NDP1501    -0.4371
      4  O5B      103.8920   43.3120   37.5580 O.3   1501  NDP1501    -0.3112
      5  C5B      104.2120   43.7420   36.2420 C.3   1501  NDP1501     0.1813
      6  C4B      103.1710   44.7190   35.7910 C.3   1501  NDP1501     0.1820
      7  O4B      103.5730   45.5630   34.6770 O.3   1501  NDP1501    -0.3136
      8  C3B      102.7470   45.7710   36.7890 C.3   1501  NDP1501     0.2157
      9  O3B      103.8450   46.6250   37.1170 O.3   1501  NDP1501    -0.2175
     10  C2B      101.8120   46.5150   35.8740 C.3   1501  NDP1501     0.2314
     11  O2B      101.2420   47.6630   36.4460 O.3   1501  NDP1501    -0.2630
     12  C1B      102.7470   46.7340   34.6830 C.3   1501  NDP1501     0.3158
     13  N9A      102.0080   46.7770   33.4260 N.pl3 1501  NDP1501    -0.1439
     14  C8A      100.9980   45.9420   33.0170 C.3   1501  NDP1501     0.3377
     15  N7A      100.4400   46.3020   31.8890 N.2   1501  NDP1501    -0.2095
     16  C5A      101.1300   47.4500   31.5290 C.2   1501  NDP1501     0.2526
     17  C6A      101.0240   48.3090   30.4240 C.2   1501  NDP1501     0.4393
     18  N6A      100.1430   48.1420   29.4380 N.pl3 1501  NDP1501     0.2180
     19  N1A      101.8680   49.3610   30.3660 N.2   1501  NDP1501     0.0021
     20  C2A      102.7540   49.5290   31.3560 C.3   1501  NDP1501     0.5254
     21  N3A      102.9490   48.7920   32.4430 N.2   1501  NDP1501    -0.0055
     22  C4A      102.0950   47.7560   32.4700 C.2   1501  NDP1501     0.3518
     23  O3       104.5650   40.8310   37.2990 O.3   1501  NDP1501    -0.2703
     24  PN       105.9000   40.1310   37.9090 P.3   1501  NDP1501     0.2189
     25  O1N      105.1660   39.0920   38.7410 O.3   1501  NDP1501    -0.4371
     26  O2N      106.4570   41.3610   38.5950 O.2   1501  NDP1501    -0.5170
     27  O5D      106.5080   39.6940   36.5950 O.3   1501  NDP1501    -0.3112
     28  C5D      107.3890   40.5470   35.8740 C.3   1501  NDP1501     0.1813
     29  C4D      107.4080   40.1270   34.4420 C.3   1501  NDP1501     0.1799
     30  O4D      108.0160   38.8280   34.2110 O.3   1501  NDP1501    -0.3327
     31  C3D      106.1080   40.0980   33.6530 C.3   1501  NDP1501     0.2158
     32  O3D      106.3780   40.3790   32.2850 O.3   1501  NDP1501    -0.2175
     33  C2D      105.6760   38.6470   33.8420 C.3   1501  NDP1501     0.2309
     34  O2D      104.8390   38.2080   32.7950 O.3   1501  NDP1501    -0.2158
     35  C1D      107.0230   37.9330   33.7450 C.3   1501  NDP1501     0.2263
     36  N1N      107.1910   36.6490   34.4420 N.pl3 1501  NDP1501    -0.2787
     37  C2N      106.6660   36.4010   35.6780 C.3   1501  NDP1501     0.1244
     38  C3N      106.7730   35.2240   36.2820 C.2   1501  NDP1501     0.0544
     39  C7N      106.5530   35.1200   37.6090 C.2   1501  NDP1501     0.2818
     40  O7N      106.4650   34.0540   38.2100 O.2   1501  NDP1501    -0.2670
     41  N7N      106.4540   36.2740   38.2680 N.am  1501  NDP1501    -0.0839
     42  C4N      107.3630   34.1990   35.6350 C.2   1501  NDP1501     0.0033
     43  C5N      108.0220   34.4320   34.4560 C.2   1501  NDP1501     0.0157
     44  C6N      107.9300   35.6490   33.8500 C.2   1501  NDP1501     0.0633
     45  P2B       99.8160   47.6380   36.8470 P.3   1501  NDP1501     0.5328
     46  O1X       99.3900   49.0350   37.2850 O.3   1501  NDP1501    -0.1145
     47  O2X       99.0300   47.0740   35.6630 O.2   1501  NDP1501    -0.2224
     48  O3X      100.0020   46.6610   37.9880 O.3   1501  NDP1501    -0.1145
@<TRIPOS>BOND
     1    18    17    1
     2    19    17    2
     3    19    20    1
     4    17    16    1
     5    20    21    1
     6    16    15    2
     7    16    22    1
     8    15    14    1
     9    32    31    1
    10    21    22    2
    11    22    13    1
    12    34    33    1
    13    14    13    1
    14    13    12    1
    15    31    33    1
    16    31    29    1
    17    35    33    1
    18    35    30    1
    19    35    36    1
    20    44    36    1
    21    44    43    2
    22    30    29    1
    23    29    28    1
    24    36    37    1
    25    43    42    1
    26     7    12    1
    27     7     6    1
    28    12    10    1
    29    42    38    2
    30    47    45    2
    31    37    38    1
    32     6     5    1
    33     6     8    1
    34    28    27    1
    35    10    11    1
    36    10     8    1
    37     5     4    1
    38    38    39    1
    39    11    45    1
    40    27    24    1
    41     8     9    1
    42    45    46    1
    43    45    48    1
    44     2     1    2
    45    23     1    1
    46    23    24    1
    47     4     1    1
    48    39    40    2
    49    39    41   am
    50     1     3    1
    51    24    26    2
    52    24    25    1
