@<TRIPOS>MOLECULE
1rpn_GDP_A_1.pdb
 28 30 0 0 0
SMALL
GASTEIGER

@<TRIPOS>ATOM
      1  PB       101.0700   30.3910   36.4120 P.3   1601  GDP1601     0.5373
      2  O1B       99.6830   29.9680   35.9690 O.3   1601  GDP1601    -0.1143
      3  O2B      102.0760   29.2850   36.6650 O.3   1601  GDP1601    -0.1143
      4  O3B      101.6080   31.6820   35.8250 O.2   1601  GDP1601    -0.2221
      5  O3A      100.7750   30.8800   37.9400 O.3   1601  GDP1601    -0.2261
      6  PA        99.5070   30.8370   38.9640 P.3   1601  GDP1601     0.2231
      7  O1A      100.0150   31.0710   40.3400 O.3   1601  GDP1601    -0.4370
      8  O2A       98.4450   31.7240   38.4300 O.2   1601  GDP1601    -0.5169
      9  O5'       98.9220   29.3580   38.9240 O.3   1601  GDP1601    -0.3111
     10  C5'       99.7520   28.2350   39.2040 C.3   1601  GDP1601     0.1813
     11  C4'       98.9830   26.9620   38.9910 C.3   1601  GDP1601     0.1799
     12  O4'       98.0520   26.6250   40.0620 O.3   1601  GDP1601    -0.3326
     13  C3'       98.2000   26.7060   37.7100 C.3   1601  GDP1601     0.2158
     14  O3'       98.3000   25.4050   37.1680 O.3   1601  GDP1601    -0.2175
     15  C2'       96.8180   27.1850   38.1360 C.3   1601  GDP1601     0.2310
     16  O2'       95.7820   26.7000   37.3070 O.3   1601  GDP1601    -0.2158
     17  C1'       96.7450   26.5350   39.5150 C.3   1601  GDP1601     0.2293
     18  N9        95.7970   27.1070   40.4640 N.pl3 1601  GDP1601    -0.2354
     19  C8        94.8800   26.4020   41.2040 C.3   1601  GDP1601     0.2246
     20  N7        93.9960   27.1620   41.7870 N.2   1601  GDP1601    -0.2322
     21  C5        94.3510   28.4500   41.4160 C.2   1601  GDP1601     0.2182
     22  C6        93.7670   29.6970   41.7560 C.1   1601  GDP1601     0.2372
     23  O6        92.7780   29.9150   42.4610 O.2   1601  GDP1601    -0.2069
     24  N1        94.4560   30.7580   41.1820 N.2   1601  GDP1601    -0.2485
     25  C2        95.5650   30.6390   40.3830 C.1   1601  GDP1601     0.2531
     26  N2        96.1010   31.7870   39.9430 N.pl3 1601  GDP1601    -0.0226
     27  N3        96.1120   29.4810   40.0470 N.2   1601  GDP1601    -0.3074
     28  C4        95.4600   28.4360   40.5990 C.2   1601  GDP1601     0.2300
@<TRIPOS>BOND
     1     4     1    2
     2     2     1    1
     3     1     3    1
     4     1     5    1
     5    14    13    1
     6    16    15    1
     7    13    15    1
     8    13    11    1
     9     5     6    1
    10    15    17    1
    11     8     6    2
    12     9     6    1
    13     9    10    1
    14     6     7    1
    15    11    10    1
    16    11    12    1
    17    17    12    1
    18    17    18    1
    19    26    25    1
    20    27    25    2
    21    27    28    2
    22    25    24    2
    23    18    28    1
    24    18    19    1
    25    28    21    1
    26    24    22    2
    27    19    20    1
    28    21    22    1
    29    21    20    2
    30    22    23    2
