@<TRIPOS>MOLECULE
1rps_HEM_A_1.pdb
 43 50 0 0 0
SMALL
GASTEIGER

@<TRIPOS>ATOM
      1 FE          8.7830   41.2420  -14.6800 Fe    142  HEM142      0.0000
      2  CHA        6.8660   43.4130  -16.3920 C.2   142  HEM142      0.0000
      3  CHB        6.2460   40.9040  -12.3280 C.2   142  HEM142      0.0000
      4  CHC       10.3160   38.4790  -13.3030 C.2   142  HEM142      0.0000
      5  CHD       11.1800   41.4060  -16.9830 C.2   142  HEM142      0.0000
      6  NA         6.8950   41.9540  -14.4360 N.2   142  HEM142      0.0000
      7  C1A        6.3620   42.9410  -15.2170 C.2   142  HEM142      0.0000
      8  C2A        5.1370   43.3940  -14.6340 C.2   142  HEM142      0.0000
      9  C3A        4.9380   42.7240  -13.5140 C.2   142  HEM142      0.0000
     10  C4A        6.0410   41.7850  -13.3600 C.2   142  HEM142      0.0000
     11  CMA        3.7350   42.9430  -12.5520 C.3   142  HEM142      0.0000
     12  CAA        4.2370   44.5060  -15.2030 C.3   142  HEM142      0.0000
     13  CBA        3.2760   43.8450  -16.1720 C.3   142  HEM142      0.0000
     14  CGA        2.1400   44.7700  -16.5160 C.2   142  HEM142      0.0000
     15  O1A        1.0740   44.6840  -15.8810 O.co2 142  HEM142      0.0000
     16  O2A        2.2800   45.5700  -17.4440 O.co2 142  HEM142      0.0000
     17  NB         8.3480   39.9370  -13.1440 N.ar  142  HEM142      0.0000
     18  C1B        7.2790   39.9980  -12.2680 C.ar  142  HEM142      0.0000
     19  C2B        7.4110   38.9360  -11.2800 C.ar  142  HEM142      0.0000
     20  C3B        8.5370   38.2800  -11.5610 C.ar  142  HEM142      0.0000
     21  C4B        9.1220   38.8770  -12.7440 C.ar  142  HEM142      0.0000
     22  CMB        6.4180   38.7170  -10.1170 C.3   142  HEM142      0.0000
     23  CAB        9.1700   37.0830  -10.8730 C.2   142  HEM142      0.0000
     24  CBB        9.1760   36.9360   -9.5510 C.2   142  HEM142      0.0000
     25  NC        10.4270   40.1340  -15.0560 N.2   142  HEM142      0.0000
     26  C1C       10.9320   39.0700  -14.3700 C.2   142  HEM142      0.0000
     27  C2C       12.2470   38.7910  -14.9030 C.2   142  HEM142      0.0000
     28  C3C       12.4090   39.5370  -15.9840 C.2   142  HEM142      0.0000
     29  C4C       11.3080   40.4340  -16.0550 C.2   142  HEM142      0.0000
     30  CMC       13.0590   37.5550  -14.5350 C.3   142  HEM142      0.0000
     31  CAC       13.5920   39.5590  -16.9550 C.2   142  HEM142      0.0000
     32  CBC       14.8160   39.6650  -16.3990 C.2   142  HEM142      0.0000
     33  ND         8.9670   42.2260  -16.3840 N.ar  142  HEM142      0.0000
     34  C1D       10.0880   42.1620  -17.1920 C.ar  142  HEM142      0.0000
     35  C2D        9.9770   43.0780  -18.2990 C.ar  142  HEM142      0.0000
     36  C3D        8.6260   43.7310  -18.1280 C.ar  142  HEM142      0.0000
     37  C4D        8.0750   43.1270  -16.9200 C.ar  142  HEM142      0.0000
     38  CMD       10.9830   43.3300  -19.4240 C.3   142  HEM142      0.0000
     39  CAD        8.0410   44.7990  -19.0790 C.3   142  HEM142      0.0000
     40  CBD        8.7470   46.1350  -18.8370 C.3   142  HEM142      0.0000
     41  CGD        8.0690   47.2250  -19.6350 C.2   142  HEM142      0.0000
     42  O1D        7.1730   47.8980  -19.1060 O.co2 142  HEM142      0.0000
     43  O2D        8.4190   47.4310  -20.8060 O.co2 142  HEM142      0.0000
@<TRIPOS>BOND
     1    43    41   ar
     2    41    42   ar
     3    41    40    1
     4    38    35    1
     5    39    40    1
     6    39    36    1
     7    35    36   ar
     8    35    34   ar
     9    36    37   ar
    10    16    14   ar
    11    34     5    2
    12    34    33   ar
    13     5    29    1
    14    31    32    2
    15    31    28    1
    16    37     2    2
    17    37    33   ar
    18    14    13    1
    19    14    15   ar
    20     2     7    1
    21    33     1    1
    22    13    12    1
    23    29    28    1
    24    29    25    2
    25    28    27    2
    26     7     8    1
    27     7     6    2
    28    12     8    1
    29    25     1    1
    30    25    26    1
    31    27    30    1
    32    27    26    1
    33     1     6    1
    34     1    17    1
    35     8     9    2
    36     6    10    1
    37    26     4    2
    38     9    10    1
    39     9    11    1
    40    10     3    2
    41     4    21    1
    42    17    21   ar
    43    17    18   ar
    44    21    20   ar
    45     3    18    1
    46    18    19   ar
    47    20    19   ar
    48    20    23    1
    49    19    22    1
    50    23    24    2
