@<TRIPOS>MOLECULE
1rpw_DID_B_1.pdb
 26 27 0 0 0
SMALL
GASTEIGER

@<TRIPOS>ATOM
      1  C4       -73.0100  -42.9170    8.4960 C.ar  193  DID193      0.0977
      2  C5       -71.6750  -43.1540    8.6010 C.ar  193  DID193      0.0111
      3  C6       -70.8430  -43.4330    7.3770 C.ar  193  DID193      0.0372
      4  C1       -71.4300  -43.4520    6.1400 C.ar  193  DID193      0.1386
      5  C2       -72.9000  -43.1860    6.0460 C.ar  193  DID193      0.0372
      6  C3       -73.6380  -42.9380    7.1490 C.ar  193  DID193      0.0111
      7  C9       -73.8470  -42.6410    9.7050 C.2   193  DID193      0.4766
      8  N1       -74.0610  -43.6470   10.6960 N.pl3 193  DID193      0.2047
      9  N2       -74.3880  -41.5150    9.8810 N.pl3 193  DID193      0.2047
     10  O1       -70.7140  -43.7190    4.9040 O.3   193  DID193     -0.4755
     11  C7       -69.2830  -43.9850    4.9930 C.3   193  DID193      0.2054
     12  C8       -68.6870  -44.2690    3.5580 C.3   193  DID193      0.0473
     13  C10      -67.1630  -44.5530    3.7030 C.3   193  DID193      0.0040
     14  C11      -66.3810  -44.8710    2.3680 C.3   193  DID193      0.0040
     15  C8'      -64.9140  -45.0890    2.8560 C.3   193  DID193      0.0473
     16  C7'      -63.7840  -45.4160    1.8210 C.3   193  DID193      0.2054
     17  O1'      -62.6260  -45.4970    2.7110 O.3   193  DID193     -0.4755
     18  C1'      -61.2980  -45.7330    2.2300 C.ar  193  DID193      0.1386
     19  C6'      -60.3310  -45.7840    3.1800 C.ar  193  DID193      0.0372
     20  C5'      -58.9090  -46.0080    2.8260 C.ar  193  DID193      0.0111
     21  C4'      -58.5480  -46.1710    1.5370 C.ar  193  DID193      0.0977
     22  C3'      -59.6030  -46.1200    0.4540 C.ar  193  DID193      0.0111
     23  C2'      -60.9150  -45.9130    0.7810 C.ar  193  DID193      0.0372
     24  C9'      -57.1190  -46.3910    1.2120 C.2   193  DID193      0.4766
     25  N1'      -56.7530  -46.5480    0.0030 N.pl3 193  DID193      0.2047
     26  N2'      -56.1600  -46.4310    2.2400 N.pl3 193  DID193      0.2047
@<TRIPOS>BOND
     1    25    24    2
     2    22    23   ar
     3    22    21   ar
     4    23    18   ar
     5    24    21    1
     6    24    26    1
     7    21    20   ar
     8    16    17    1
     9    16    15    1
    10    18    17    1
    11    18    19   ar
    12    14    15    1
    13    14    13    1
    14    20    19   ar
    15    12    13    1
    16    12    11    1
    17    10    11    1
    18    10     4    1
    19     5     4   ar
    20     5     6   ar
    21     4     3   ar
    22     6     1   ar
    23     3     2   ar
    24     1     2   ar
    25     1     7    1
    26     7     9    2
    27     7     8    1
