@<TRIPOS>MOLECULE
1rpz_ADP_A_1.pdb
 17 17 0 0 0
SMALL
GASTEIGER

@<TRIPOS>ATOM
      1  PB        29.5140   55.1860   51.1450 P.3   900  ADP900      0.5373
      2  O1B       28.2780   54.6990   51.8030 O.3   900  ADP900     -0.1143
      3  O2B       30.3750   53.9490   50.6270 O.3   900  ADP900     -0.1143
      4  O3B       29.1930   56.0960   50.0100 O.2   900  ADP900     -0.2221
      5  PA        32.0010   56.1920   52.2450 P.3   900  ADP900      0.2231
      6  O1A       32.5540   56.1400   50.8920 O.2   900  ADP900     -0.5169
      7  O2A       32.2810   57.5090   52.8120 O.3   900  ADP900     -0.4370
      8  O3A       30.4420   55.9210   52.1960 O.3   900  ADP900     -0.2261
      9  O5'       32.6990   55.0830   53.1850 O.3   900  ADP900     -0.3111
     10  C5'       32.0940   53.9920   53.9180 C.3   900  ADP900      0.1812
     11  C4'       33.2580   53.2030   54.6430 C.3   900  ADP900      0.1780
     12  O4'       34.1800   52.7590   53.6360 O.3   900  ADP900     -0.3482
     13  C3'       34.1170   54.0070   55.6590 C.3   900  ADP900      0.2140
     14  O3'       34.2910   53.3090   56.9120 O.3   900  ADP900     -0.2176
     15  C2'       35.4580   54.2800   54.9750 C.3   900  ADP900      0.2140
     16  O2'       36.5700   54.3410   55.8860 O.3   900  ADP900     -0.2176
     17  C1'       35.5390   53.1880   53.9100 C.3   900  ADP900      0.1777
@<TRIPOS>BOND
     1     4     1    2
     2     3     1    1
     3     6     5    2
     4     1     2    1
     5     1     8    1
     6     8     5    1
     7     5     7    1
     8     5     9    1
     9     9    10    1
    10    12    17    1
    11    12    11    1
    12    17    15    1
    13    10    11    1
    14    11    13    1
    15    15    13    1
    16    15    16    1
    17    13    14    1
