@<TRIPOS>MOLECULE
1rq2_CIT_A_1.pdb
 13 12 0 0 0
SMALL
GASTEIGER

@<TRIPOS>ATOM
      1  C1       -10.6580   41.9950    4.6430 C.2   380  CIT380      0.3680
      2  O1       -11.3460   41.0660    5.1250 O.co2 380  CIT380     -0.2455
      3  O2       -10.5770   43.0840    5.2650 O.co2 380  CIT380     -0.2455
      4  C2        -9.9550   41.7830    3.3270 C.3   380  CIT380      0.1560
      5  C3        -8.4460   41.5450    3.4900 C.3   380  CIT380      0.2402
      6  O7        -7.8450   42.6840    4.1630 O.3   380  CIT380     -0.2129
      7  C4        -8.2180   40.2660    4.3010 C.3   380  CIT380      0.1560
      8  C5        -6.7650   40.0060    4.5800 C.2   380  CIT380      0.3680
      9  O3        -6.4660   39.4410    5.6710 O.co2 380  CIT380     -0.2455
     10  O4        -5.8950   40.3140    3.7340 O.co2 380  CIT380     -0.2455
     11  C6        -7.8990   41.4360    2.0670 C.2   380  CIT380      0.3927
     12  O5        -8.0450   40.3900    1.4040 O.co2 380  CIT380     -0.2429
     13  O6        -7.3290   42.4020    1.5090 O.co2 380  CIT380     -0.2429
@<TRIPOS>BOND
     1    12    11   ar
     2    13    11   ar
     3    11     5    1
     4     4     5    1
     5     4     1    1
     6     5     6    1
     7     5     7    1
     8    10     8   ar
     9     7     8    1
    10     8     9   ar
    11     1     2   ar
    12     1     3   ar
