@<TRIPOS>MOLECULE
1rq3_HEM_A_1.pdb
 43 50 0 0 0
SMALL
GASTEIGER

@<TRIPOS>ATOM
      1 FE          8.1830   40.5150  -15.3520 Fe    142  HEM142      0.0000
      2  CHA        6.5390   43.2450  -16.6620 C.2   142  HEM142      0.0000
      3  CHB        6.1060   40.6950  -12.5980 C.2   142  HEM142      0.0000
      4  CHC       10.2410   38.4120  -13.5200 C.2   142  HEM142      0.0000
      5  CHD       10.8350   41.1180  -17.5270 C.2   142  HEM142      0.0000
      6  NA         6.5480   41.7770  -14.7370 N.2   142  HEM142      0.0000
      7  C1A        6.0460   42.7930  -15.4570 C.2   142  HEM142      0.0000
      8  C2A        4.9520   43.3370  -14.7000 C.2   142  HEM142      0.0000
      9  C3A        4.8330   42.6660  -13.5500 C.2   142  HEM142      0.0000
     10  C4A        5.8570   41.6440  -13.5640 C.2   142  HEM142      0.0000
     11  CMA        3.7730   42.9060  -12.4420 C.3   142  HEM142      0.0000
     12  CAA        4.1140   44.5390  -15.1590 C.3   142  HEM142      0.0000
     13  CBA        3.0600   44.0990  -16.1620 C.3   142  HEM142      0.0000
     14  CGA        1.9880   45.1660  -16.1590 C.2   142  HEM142      0.0000
     15  O1A        0.8430   44.8810  -15.6980 O.co2 142  HEM142      0.0000
     16  O2A        2.3020   46.3020  -16.5460 O.co2 142  HEM142      0.0000
     17  NB         8.1900   39.6990  -13.3950 N.ar  142  HEM142      0.0000
     18  C1B        7.1770   39.8280  -12.5080 C.ar  142  HEM142      0.0000
     19  C2B        7.3850   38.8290  -11.4630 C.ar  142  HEM142      0.0000
     20  C3B        8.5420   38.2290  -11.6900 C.ar  142  HEM142      0.0000
     21  C4B        9.0460   38.7400  -12.9340 C.ar  142  HEM142      0.0000
     22  CMB        6.4750   38.7020  -10.2460 C.3   142  HEM142      0.0000
     23  CAB        9.1980   37.1110  -10.8800 C.2   142  HEM142      0.0000
     24  CBB        9.4510   37.2520   -9.6100 C.2   142  HEM142      0.0000
     25  NC        10.1820   39.8950  -15.5100 N.2   142  HEM142      0.0000
     26  C1C       10.7810   38.9870  -14.6570 C.2   142  HEM142      0.0000
     27  C2C       12.0430   38.6350  -15.2590 C.2   142  HEM142      0.0000
     28  C3C       12.2290   39.4580  -16.2930 C.2   142  HEM142      0.0000
     29  C4C       11.0380   40.2140  -16.5060 C.2   142  HEM142      0.0000
     30  CMC       13.0810   37.7000  -14.6550 C.3   142  HEM142      0.0000
     31  CAC       13.4100   39.4870  -17.2130 C.2   142  HEM142      0.0000
     32  CBC       14.6130   39.6150  -16.6460 C.2   142  HEM142      0.0000
     33  ND         8.6450   41.9640  -16.8070 N.ar  142  HEM142      0.0000
     34  C1D        9.7580   41.9320  -17.6440 C.ar  142  HEM142      0.0000
     35  C2D        9.6540   42.9600  -18.6730 C.ar  142  HEM142      0.0000
     36  C3D        8.3340   43.6070  -18.4170 C.ar  142  HEM142      0.0000
     37  C4D        7.7640   42.9570  -17.2270 C.ar  142  HEM142      0.0000
     38  CMD       10.6490   43.2860  -19.7590 C.3   142  HEM142      0.0000
     39  CAD        7.8110   44.7730  -19.2510 C.3   142  HEM142      0.0000
     40  CBD        8.3370   46.0110  -18.5700 C.3   142  HEM142      0.0000
     41  CGD        7.8190   47.2520  -19.3070 C.2   142  HEM142      0.0000
     42  O1D        7.2480   48.1370  -18.6590 O.co2 142  HEM142      0.0000
     43  O2D        7.9440   47.2710  -20.5240 O.co2 142  HEM142      0.0000
@<TRIPOS>BOND
     1    43    41   ar
     2    38    35    1
     3    41    42   ar
     4    41    40    1
     5    39    40    1
     6    39    36    1
     7    35    36   ar
     8    35    34   ar
     9    36    37   ar
    10    34     5    2
    11    34    33   ar
    12     5    29    1
    13    37    33   ar
    14    37     2    2
    15    31    32    2
    16    31    28    1
    17    33     1    1
    18     2     7    1
    19    16    14   ar
    20    29    28    1
    21    29    25    2
    22    28    27    2
    23    13    14    1
    24    13    12    1
    25    14    15   ar
    26    25     1    1
    27    25    26    1
    28     7     6    2
    29     7     8    1
    30     1     6    1
    31     1    17    1
    32    27    26    1
    33    27    30    1
    34    12     8    1
    35     6    10    1
    36     8     9    2
    37    26     4    2
    38    10     9    1
    39    10     3    2
    40     9    11    1
    41     4    21    1
    42    17    21   ar
    43    17    18   ar
    44    21    20   ar
    45     3    18    1
    46    18    19   ar
    47    20    19   ar
    48    20    23    1
    49    19    22    1
    50    23    24    2
