@<TRIPOS>MOLECULE
1rq4_HEM_A_1.pdb
 43 50 0 0 0
SMALL
GASTEIGER

@<TRIPOS>ATOM
      1 FE          8.7560   41.5850  -14.7360 Fe    142  HEM142      0.0000
      2  CHA        6.8620   43.8650  -16.3580 C.2   142  HEM142      0.0000
      3  CHB        6.1330   41.2290  -12.3870 C.2   142  HEM142      0.0000
      4  CHC       10.2670   38.8980  -13.3610 C.2   142  HEM142      0.0000
      5  CHD       11.1340   41.7770  -17.1130 C.2   142  HEM142      0.0000
      6  NA         6.8460   42.3440  -14.4340 N.2   142  HEM142      0.0000
      7  C1A        6.3180   43.3390  -15.2140 C.2   142  HEM142      0.0000
      8  C2A        5.0750   43.7900  -14.6200 C.2   142  HEM142      0.0000
      9  C3A        4.8510   43.0760  -13.5260 C.2   142  HEM142      0.0000
     10  C4A        5.9580   42.1430  -13.3860 C.2   142  HEM142      0.0000
     11  CMA        3.6340   43.2060  -12.5870 C.3   142  HEM142      0.0000
     12  CAA        4.1730   44.9040  -15.1720 C.3   142  HEM142      0.0000
     13  CBA        3.4520   44.3480  -16.3890 C.3   142  HEM142      0.0000
     14  CGA        2.1560   45.0590  -16.6460 C.2   142  HEM142      0.0000
     15  O1A        1.1420   44.7170  -15.9790 O.co2 142  HEM142      0.0000
     16  O2A        2.1220   45.9420  -17.5370 O.co2 142  HEM142      0.0000
     17  NB         8.2820   40.3280  -13.2120 N.ar  142  HEM142      0.0000
     18  C1B        7.1950   40.3590  -12.3450 C.ar  142  HEM142      0.0000
     19  C2B        7.3430   39.2910  -11.3830 C.ar  142  HEM142      0.0000
     20  C3B        8.4760   38.6600  -11.6590 C.ar  142  HEM142      0.0000
     21  C4B        9.0750   39.2890  -12.8070 C.ar  142  HEM142      0.0000
     22  CMB        6.3730   38.9820  -10.2320 C.3   142  HEM142      0.0000
     23  CAB        9.0500   37.4670  -10.8910 C.2   142  HEM142      0.0000
     24  CBB        9.3290   37.6100   -9.5980 C.2   142  HEM142      0.0000
     25  NC        10.3480   40.5260  -15.1590 N.2   142  HEM142      0.0000
     26  C1C       10.8670   39.4810  -14.4470 C.2   142  HEM142      0.0000
     27  C2C       12.2100   39.2370  -14.9000 C.2   142  HEM142      0.0000
     28  C3C       12.3300   39.9000  -16.0380 C.2   142  HEM142      0.0000
     29  C4C       11.2300   40.8030  -16.1580 C.2   142  HEM142      0.0000
     30  CMC       12.9660   37.9600  -14.5220 C.3   142  HEM142      0.0000
     31  CAC       13.5050   39.9410  -17.0020 C.2   142  HEM142      0.0000
     32  CBC       14.7330   40.0260  -16.4930 C.2   142  HEM142      0.0000
     33  ND         8.9650   42.6480  -16.4580 N.ar  142  HEM142      0.0000
     34  C1D       10.0500   42.5660  -17.3140 C.ar  142  HEM142      0.0000
     35  C2D        9.8930   43.4520  -18.4340 C.ar  142  HEM142      0.0000
     36  C3D        8.5440   44.1170  -18.1920 C.ar  142  HEM142      0.0000
     37  C4D        8.0490   43.5530  -16.9470 C.ar  142  HEM142      0.0000
     38  CMD       10.8600   43.6730  -19.6030 C.3   142  HEM142      0.0000
     39  CAD        7.9060   45.1770  -19.1000 C.3   142  HEM142      0.0000
     40  CBD        8.7030   46.4680  -18.8750 C.3   142  HEM142      0.0000
     41  CGD        8.0400   47.6290  -19.5710 C.2   142  HEM142      0.0000
     42  O1D        7.1070   48.2010  -19.0090 O.co2 142  HEM142      0.0000
     43  O2D        8.4230   47.9830  -20.6920 O.co2 142  HEM142      0.0000
@<TRIPOS>BOND
     1    43    41   ar
     2    38    35    1
     3    41    42   ar
     4    41    40    1
     5    39    40    1
     6    39    36    1
     7    35    36   ar
     8    35    34   ar
     9    36    37   ar
    10    16    14   ar
    11    34     5    2
    12    34    33   ar
    13     5    29    1
    14    31    32    2
    15    31    28    1
    16    37    33   ar
    17    37     2    2
    18    14    13    1
    19    14    15   ar
    20    33     1    1
    21    13    12    1
    22     2     7    1
    23    29    28    1
    24    29    25    2
    25    28    27    2
    26     7     8    1
    27     7     6    2
    28    12     8    1
    29    25     1    1
    30    25    26    1
    31    27    30    1
    32    27    26    1
    33     1     6    1
    34     1    17    1
    35     8     9    2
    36    26     4    2
    37     6    10    1
    38     9    10    1
    39     9    11    1
    40    10     3    2
    41     4    21    1
    42    17    21   ar
    43    17    18   ar
    44    21    20   ar
    45     3    18    1
    46    18    19   ar
    47    20    19   ar
    48    20    23    1
    49    19    22    1
    50    23    24    2
