@<TRIPOS>MOLECULE
1rq5_CTT_A_1.pdb
 45 48 0 0 0
SMALL
GASTEIGER

@<TRIPOS>ATOM
      1  O1B       63.6160   11.7070  -75.1400 O.3   820  CTT820     -0.1869
      2  C1B       62.5310   10.9800  -75.6390 C.3   820  CTT820      0.3023
      3  C2B       61.3230   11.1830  -74.6620 C.3   820  CTT820      0.2433
      4  O2B       61.0930   12.5770  -74.4740 O.3   820  CTT820     -0.2148
      5  C3B       61.5390   10.5090  -73.2730 C.3   820  CTT820      0.2168
      6  O3B       60.3640   10.6390  -72.4850 O.3   820  CTT820     -0.2175
      7  O5B       62.9690    9.5930  -75.6610 O.3   820  CTT820     -0.3237
      8  C5B       63.1220    8.9230  -74.3230 C.3   820  CTT820      0.1804
      9  C6B       63.5570    7.4990  -74.6150 C.3   820  CTT820      0.2141
     10  O6B       62.6520    6.8400  -75.5180 O.3   820  CTT820     -0.2176
     11  C4B       61.8340    9.0190  -73.4540 C.3   820  CTT820      0.1804
     12  O4B       62.0430    8.4040  -72.1430 O.3   820  CTT820     -0.3257
     13  C1C       61.1630    7.4070  -71.6840 C.3   820  CTT820      0.2695
     14  C2C       61.9730    6.2840  -71.0560 C.3   820  CTT820      0.2404
     15  O2C       62.8320    5.7730  -72.0470 O.3   820  CTT820     -0.2149
     16  C3C       61.0590    5.1870  -70.5120 C.3   820  CTT820      0.2167
     17  O3C       61.8700    4.1660  -69.9520 O.3   820  CTT820     -0.2175
     18  O5C       60.2310    7.9550  -70.7110 O.3   820  CTT820     -0.3257
     19  C5C       59.3090    6.9450  -70.1400 C.3   820  CTT820      0.1803
     20  C6C       58.3670    7.6560  -69.1890 C.3   820  CTT820      0.2141
     21  O6C       58.0150    8.9500  -69.6530 O.3   820  CTT820     -0.2176
     22  C4C       60.1450    5.8180  -69.4390 C.3   820  CTT820      0.1804
     23  O4C       59.2670    4.8050  -68.8570 O.3   820  CTT820     -0.3257
     24  C1D       59.9420    4.3500  -67.5260 C.3   820  CTT820      0.2695
     25  C2D       59.4250    5.3170  -66.4190 C.3   820  CTT820      0.2404
     26  O2D       60.5330    5.9330  -65.8070 O.3   820  CTT820     -0.2149
     27  C3D       58.8380    4.5120  -65.2620 C.3   820  CTT820      0.2167
     28  O3D       58.2040    5.3160  -64.3460 O.3   820  CTT820     -0.2175
     29  O5D       59.4810    2.9420  -67.3950 O.3   820  CTT820     -0.3257
     30  C5D       58.7280    2.4640  -66.2180 C.3   820  CTT820      0.1803
     31  C6D       58.1160    1.1360  -66.6250 C.3   820  CTT820      0.2141
     32  O6D       56.9440    1.2920  -67.4110 O.3   820  CTT820     -0.2176
     33  C4D       57.7240    3.5190  -65.7060 C.3   820  CTT820      0.1804
     34  O4D       56.9460    3.0320  -64.5710 O.3   820  CTT820     -0.3257
     35  C1E       55.5480    3.1370  -64.7680 C.3   820  CTT820      0.2695
     36  C2E       54.7900    2.1510  -63.8520 C.3   820  CTT820      0.2406
     37  O2E       55.2070    0.8170  -64.1500 O.3   820  CTT820     -0.2149
     38  C3E       53.2880    2.2970  -64.0890 C.3   820  CTT820      0.2198
     39  O3E       52.5900    1.4050  -63.2430 O.3   820  CTT820     -0.2174
     40  C4E       52.8860    3.7320  -63.7680 C.3   820  CTT820      0.2144
     41  O4E       51.4830    3.8800  -63.9670 O.3   820  CTT820     -0.2176
     42  O5E       55.1120    4.5160  -64.5180 O.3   820  CTT820     -0.3256
     43  C5E       53.6660    4.6870  -64.7110 C.3   820  CTT820      0.1835
     44  C6E       53.3280    6.1460  -64.4760 C.3   820  CTT820      0.2142
     45  O6E       52.1040    6.4880  -65.1350 O.3   820  CTT820     -0.2176
@<TRIPOS>BOND
     1     7     2    1
     2     7     8    1
     3     2     1    1
     4     2     3    1
     5    10     9    1
     6     3     4    1
     7     3     5    1
     8     9     8    1
     9     8    11    1
    10    11     5    1
    11    11    12    1
    12     5     6    1
    13    12    13    1
    14    15    14    1
    15    13    14    1
    16    13    18    1
    17    14    16    1
    18    18    19    1
    19    16    17    1
    20    16    22    1
    21    19    22    1
    22    19    20    1
    23    21    20    1
    24    22    23    1
    25    23    24    1
    26    24    29    1
    27    24    25    1
    28    32    31    1
    29    29    30    1
    30    31    30    1
    31    25    26    1
    32    25    27    1
    33    30    33    1
    34    33    27    1
    35    33    34    1
    36    27    28    1
    37    45    44    1
    38    35    34    1
    39    35    42    1
    40    35    36    1
    41    43    42    1
    42    43    44    1
    43    43    40    1
    44    37    36    1
    45    38    36    1
    46    38    40    1
    47    38    39    1
    48    41    40    1
