@<TRIPOS>MOLECULE
1rq7_GDP_A_1.pdb
 28 30 0 0 0
SMALL
GASTEIGER

@<TRIPOS>ATOM
      1  PB        -6.7800   40.8880    3.2880 P.3   380  GDP380      0.5373
      2  O1B       -5.3570   40.5090    3.4560 O.3   380  GDP380     -0.1143
      3  O2B       -7.2930   41.9600    4.2360 O.3   380  GDP380     -0.1143
      4  O3B       -7.1130   41.2810    1.7840 O.2   380  GDP380     -0.2221
      5  O3A       -7.6090   39.5620    3.6310 O.3   380  GDP380     -0.2261
      6  PA        -8.0940   39.0510    5.0540 P.3   380  GDP380      0.2231
      7  O1A       -7.0150   39.1950    6.0840 O.3   380  GDP380     -0.4370
      8  O2A       -9.4970   39.6040    5.4270 O.2   380  GDP380     -0.5169
      9  O5'       -8.1980   37.5440    4.6620 O.3   380  GDP380     -0.3111
     10  C5'       -7.0550   36.7410    4.4560 C.3   380  GDP380      0.1813
     11  C4'       -7.2510   35.4440    5.2470 C.3   380  GDP380      0.1799
     12  O4'       -7.3090   35.7460    6.6410 O.3   380  GDP380     -0.3326
     13  C3'       -8.5690   34.7040    4.9550 C.3   380  GDP380      0.2158
     14  O3'       -8.5090   33.9120    3.7770 O.3   380  GDP380     -0.2175
     15  C2'       -8.7850   33.9200    6.2280 C.3   380  GDP380      0.2310
     16  O2'       -8.0830   32.6880    6.2830 O.3   380  GDP380     -0.2158
     17  C1'       -8.1840   34.8290    7.2760 C.3   380  GDP380      0.2293
     18  N9        -9.1960   35.5920    8.0240 N.pl3 380  GDP380     -0.2354
     19  C8       -10.3760   36.1630    7.5920 C.3   380  GDP380      0.2246
     20  N7       -10.9610   36.8170    8.6200 N.2   380  GDP380     -0.2322
     21  C5       -10.1610   36.6180    9.7210 C.2   380  GDP380      0.2182
     22  C6       -10.2500   37.0020   11.0540 C.1   380  GDP380      0.2372
     23  O6       -11.1910   37.6580   11.4830 O.2   380  GDP380     -0.2069
     24  N1        -9.2600   36.6390   11.9390 N.2   380  GDP380     -0.2485
     25  C2        -8.1840   35.9080   11.5090 C.1   380  GDP380      0.2531
     26  N2        -7.1980   35.6320   12.3450 N.pl3 380  GDP380     -0.0226
     27  N3        -8.1240   35.5000   10.1970 N.2   380  GDP380     -0.3074
     28  C4        -9.0760   35.8610    9.3390 C.2   380  GDP380      0.2300
@<TRIPOS>BOND
     1     4     1    2
     2     1     2    1
     3     1     5    1
     4     1     3    1
     5     5     6    1
     6    14    13    1
     7    10     9    1
     8    10    11    1
     9     9     6    1
    10    13    11    1
    11    13    15    1
    12     6     8    2
    13     6     7    1
    14    11    12    1
    15    15    16    1
    16    15    17    1
    17    12    17    1
    18    17    18    1
    19    19    18    1
    20    19    20    1
    21    18    28    1
    22    20    21    2
    23    28    21    1
    24    28    27    2
    25    21    22    1
    26    27    25    2
    27    22    23    2
    28    22    24    2
    29    25    24    2
    30    25    26    1
