@<TRIPOS>MOLECULE
1rq9_DMQ_B_1.pdb
 40 44 0 0 0
SMALL
GASTEIGER

@<TRIPOS>ATOM
      1  C1        39.0430   13.9150  -13.3840 C.2   111  DMQ111      0.3077
      2  O1        38.9630   14.8140  -14.2350 O.2   111  DMQ111     -0.2523
      3  N2        40.2930   13.3090  -13.2290 N.am  111  DMQ111     -0.2586
      4  C2        41.2790   13.2490  -14.4730 C.3   111  DMQ111      0.1218
      5  C3        40.8260   12.8470  -11.8240 C.3   111  DMQ111      0.1144
      6  C4        40.2840   13.4270  -10.4980 C.3   111  DMQ111      0.2021
      7  O4        41.0070   12.7250   -9.5250 O.3   111  DMQ111     -0.2186
      8  C5        38.7770   13.2560  -10.2180 C.3   111  DMQ111      0.2021
      9  O5        38.5360   13.7820   -8.9380 O.3   111  DMQ111     -0.2186
     10  C6        37.8290   14.0000  -11.1760 C.3   111  DMQ111      0.1144
     11  C7        36.7300   13.1030  -13.3300 C.3   111  DMQ111      0.1218
     12  N7        37.9380   13.6570  -12.6350 N.am  111  DMQ111     -0.2586
     13  C20       40.8780   12.8950  -15.9440 C.ar  111  DMQ111     -0.0009
     14  C21       39.6190   13.2960  -16.5340 C.ar  111  DMQ111     -0.0025
     15  C22       39.2520   12.9880  -17.8760 C.ar  111  DMQ111      0.0011
     16  C23       40.1610   12.2600  -18.6790 C.ar  111  DMQ111      0.0180
     17  C28       41.4270   11.8400  -18.1470 C.ar  111  DMQ111      0.0888
     18  N29       42.3030   11.1150  -19.0010 N.pl3 111  DMQ111     -0.1281
     19  C29       41.7930   12.1520  -16.7810 C.ar  111  DMQ111      0.0154
     20  C31       40.9330   11.2580  -11.6770 C.3   111  DMQ111      0.0489
     21  C32       40.5400   10.3900  -12.8540 C.ar  111  DMQ111     -0.0204
     22  C33       41.5710    9.7330  -13.6360 C.ar  111  DMQ111     -0.0042
     23  C34       41.2280    8.8970  -14.7330 C.ar  111  DMQ111     -0.0003
     24  C35       39.8460    8.7140  -15.0560 C.ar  111  DMQ111     -0.0000
     25  C36       38.7970    9.3570  -14.2940 C.ar  111  DMQ111     -0.0003
     26  C37       39.1490   10.2010  -13.1860 C.ar  111  DMQ111     -0.0042
     27  C61       37.9110   15.6050  -11.0820 C.3   111  DMQ111      0.0489
     28  C62       36.6310   16.3720  -10.6690 C.ar  111  DMQ111     -0.0204
     29  C63       36.0620   16.2180   -9.3740 C.ar  111  DMQ111     -0.0042
     30  C64       34.8630   16.9510   -9.0050 C.ar  111  DMQ111     -0.0003
     31  C65       34.2440   17.8390   -9.9340 C.ar  111  DMQ111     -0.0000
     32  C66       34.7990   18.0130  -11.2420 C.ar  111  DMQ111     -0.0003
     33  C67       35.9950   17.2800  -11.6050 C.ar  111  DMQ111     -0.0042
     34  C70       35.9030   14.0490  -14.2110 C.ar  111  DMQ111     -0.0009
     35  C71       34.7900   14.7670  -13.6290 C.ar  111  DMQ111      0.0154
     36  C72       34.0070   15.6670  -14.4470 C.ar  111  DMQ111      0.0888
     37  N79       32.9030   16.3980  -13.8860 N.pl3 111  DMQ111     -0.1281
     38  C77       34.3340   15.8390  -15.8340 C.ar  111  DMQ111      0.0180
     39  C78       35.4420   15.1310  -16.4350 C.ar  111  DMQ111      0.0011
     40  C79       36.2210   14.2370  -15.6180 C.ar  111  DMQ111     -0.0025
@<TRIPOS>BOND
     1    18    17    1
     2    16    17   ar
     3    16    15   ar
     4    17    19   ar
     5    15    14   ar
     6    19    13   ar
     7    14    13   ar
     8    39    38   ar
     9    39    40   ar
    10    13     4    1
    11    38    36   ar
    12    40    34   ar
    13    24    23   ar
    14    24    25   ar
    15    23    22   ar
    16     4     3    1
    17    36    37    1
    18    36    35   ar
    19    25    26   ar
    20     2     1    2
    21    34    35   ar
    22    34    11    1
    23    22    21   ar
    24     1     3   am
    25     1    12   am
    26    11    12    1
    27     3     5    1
    28    26    21   ar
    29    21    20    1
    30    12    10    1
    31     5    20    1
    32     5     6    1
    33    33    32   ar
    34    33    28   ar
    35    32    31   ar
    36    10    27    1
    37    10     8    1
    38    27    28    1
    39    28    29   ar
    40     6     8    1
    41     6     7    1
    42     8     9    1
    43    31    30   ar
    44    29    30   ar
