@<TRIPOS>MOLECULE
1rqa_HEM_A_1.pdb
 43 50 0 0 0
SMALL
GASTEIGER

@<TRIPOS>ATOM
      1 FE          9.2820   41.0200  -13.7690 Fe    142  HEM142      0.0000
      2  CHA        7.2280   43.4710  -15.3950 C.2   142  HEM142      0.0000
      3  CHB        6.9210   40.9970  -11.0510 C.2   142  HEM142      0.0000
      4  CHC       11.0800   38.3050  -12.3470 C.2   142  HEM142      0.0000
      5  CHD       11.7170   41.2350  -16.3870 C.2   142  HEM142      0.0000
      6  NA         7.5070   41.8340  -13.4380 N.2   142  HEM142      0.0000
      7  C1A        6.9330   42.9540  -14.0540 C.2   142  HEM142      0.0000
      8  C2A        5.8790   43.4140  -13.3750 C.2   142  HEM142      0.0000
      9  C3A        5.7880   42.7760  -12.2480 C.2   142  HEM142      0.0000
     10  C4A        6.7830   41.8830  -12.2190 C.2   142  HEM142      0.0000
     11  CMA        4.7550   43.0410  -11.1430 C.3   142  HEM142      0.0000
     12  CAA        4.9680   44.5500  -13.7880 C.3   142  HEM142      0.0000
     13  CBA        3.8050   44.0430  -14.6370 C.3   142  HEM142      0.0000
     14  CGA        2.9970   45.2430  -15.1000 C.2   142  HEM142      0.0000
     15  O1A        1.8280   45.3620  -14.7830 O.co2 142  HEM142      0.0000
     16  O2A        3.5110   46.1140  -15.7850 O.co2 142  HEM142      0.0000
     17  NB         9.0470   39.8690  -12.0270 N.ar  142  HEM142      0.0000
     18  C1B        8.0700   40.0650  -11.1310 C.ar  142  HEM142      0.0000
     19  C2B        8.2070   39.0660  -10.0420 C.ar  142  HEM142      0.0000
     20  C3B        9.3870   38.2960  -10.4280 C.ar  142  HEM142      0.0000
     21  C4B        9.8710   38.8670  -11.6870 C.ar  142  HEM142      0.0000
     22  CMB        7.3150   38.9330   -8.8550 C.3   142  HEM142      0.0000
     23  CAB        9.9920   37.1540   -9.6740 C.3   142  HEM142      0.0000
     24  CBB       10.0410   37.3610   -8.1930 C.3   142  HEM142      0.0000
     25  NC        10.9470   40.0650  -14.2240 N.2   142  HEM142      0.0000
     26  C1C       11.5460   38.9980  -13.5650 C.2   142  HEM142      0.0000
     27  C2C       12.6510   38.6040  -14.2200 C.2   142  HEM142      0.0000
     28  C3C       12.8400   39.3920  -15.2730 C.2   142  HEM142      0.0000
     29  C4C       11.8200   40.2520  -15.2990 C.2   142  HEM142      0.0000
     30  CMC       13.5340   37.4810  -13.7760 C.3   142  HEM142      0.0000
     31  CAC       13.8150   39.3750  -16.2130 C.3   142  HEM142      0.0000
     32  CBC       15.2530   39.2930  -15.8310 C.3   142  HEM142      0.0000
     33  ND         9.4470   42.1250  -15.5370 N.ar  142  HEM142      0.0000
     34  C1D       10.4700   42.0250  -16.3940 C.ar  142  HEM142      0.0000
     35  C2D       10.2610   42.9750  -17.4990 C.ar  142  HEM142      0.0000
     36  C3D        8.9880   43.6110  -17.2140 C.ar  142  HEM142      0.0000
     37  C4D        8.5380   43.0330  -15.9380 C.ar  142  HEM142      0.0000
     38  CMD       11.1430   43.2310  -18.6850 C.3   142  HEM142      0.0000
     39  CAD        8.3230   44.6610  -18.0810 C.3   142  HEM142      0.0000
     40  CBD        9.0400   45.9650  -17.8240 C.3   142  HEM142      0.0000
     41  CGD        8.2540   47.0900  -18.4220 C.2   142  HEM142      0.0000
     42  O1D        7.5990   47.8180  -17.6940 O.co2 142  HEM142      0.0000
     43  O2D        8.2890   47.2420  -19.6220 O.co2 142  HEM142      0.0000
@<TRIPOS>BOND
     1    43    41   ar
     2    38    35    1
     3    41    40    1
     4    41    42   ar
     5    39    40    1
     6    39    36    1
     7    35    36   ar
     8    35    34   ar
     9    36    37   ar
    10    34     5    2
    11    34    33   ar
    12     5    29    1
    13    31    32    1
    14    31    28    1
    15    37    33   ar
    16    37     2    2
    17    16    14   ar
    18    33     1    1
    19     2     7    1
    20    29    28    1
    21    29    25    2
    22    28    27    2
    23    14    15   ar
    24    14    13    1
    25    13    12    1
    26    25     1    1
    27    25    26    1
    28    27    30    1
    29    27    26    1
    30     7     6    2
    31     7     8    1
    32    12     8    1
    33     1     6    1
    34     1    17    1
    35    26     4    2
    36     6    10    1
    37     8     9    2
    38     4    21    1
    39     9    10    1
    40     9    11    1
    41    10     3    2
    42    17    21   ar
    43    17    18   ar
    44    21    20   ar
    45    18     3    1
    46    18    19   ar
    47    20    19   ar
    48    20    23    1
    49    19    22    1
    50    23    24    1
