@<TRIPOS>MOLECULE
1rqd_NAD_A_1.pdb
 44 48 0 0 0
SMALL
GASTEIGER

@<TRIPOS>ATOM
      1  PA        37.0680    9.2870   16.0400 P.3   370  NAD370      0.2189
      2  O1A       35.7340    9.3850   16.7060 O.3   370  NAD370     -0.4371
      3  O2A       37.2690    8.2950   14.9420 O.2   370  NAD370     -0.5170
      4  O5B       38.1830    9.0170   17.1720 O.3   370  NAD370     -0.3112
      5  C5B       39.5040    8.6010   16.8140 C.3   370  NAD370      0.1813
      6  C4B       40.2610    8.2460   18.0540 C.3   370  NAD370      0.1821
      7  O4B       40.4580    9.4240   18.8410 O.3   370  NAD370     -0.3135
      8  C3B       39.5350    7.2760   18.9620 C.3   370  NAD370      0.2184
      9  O3B       39.8060    5.9280   18.5710 O.3   370  NAD370     -0.2174
     10  C2B       40.0580    7.5860   20.3370 C.3   370  NAD370      0.2570
     11  O2B       41.1760    6.7710   20.7070 O.3   370  NAD370     -0.2130
     12  C1B       40.4020    9.0740   20.2440 C.3   370  NAD370      0.3186
     13  N9A       39.4040    9.9180   20.8940 N.pl3 370  NAD370     -0.1439
     14  C8A       38.1360   10.2060   20.4610 C.3   370  NAD370      0.3377
     15  N7A       37.4380   10.9100   21.3270 N.2   370  NAD370     -0.2095
     16  C5A       38.3330   11.1470   22.3760 C.2   370  NAD370      0.2526
     17  C6A       38.2170   11.8280   23.6170 C.2   370  NAD370      0.4393
     18  N6A       37.0910   12.3980   24.0440 N.pl3 370  NAD370      0.2180
     19  N1A       39.3190   11.8820   24.4280 N.2   370  NAD370      0.0021
     20  C2A       40.4490   11.2940   24.0210 C.3   370  NAD370      0.5254
     21  N3A       40.6740   10.6250   22.8880 N.2   370  NAD370     -0.0055
     22  C4A       39.5600   10.5750   22.1060 C.2   370  NAD370      0.3518
     23  O3        37.4400   10.7310   15.4560 O.3   370  NAD370     -0.2703
     24  PN        37.4410   11.3260   13.9820 P.3   370  NAD370      0.2189
     25  O1N       38.5250   10.6720   13.1950 O.2   370  NAD370     -0.5170
     26  O2N       37.5050   12.8010   14.1540 O.3   370  NAD370     -0.4371
     27  O5D       36.0150   10.9090   13.3820 O.3   370  NAD370     -0.3112
     28  C5D       35.9070   10.1290   12.1920 C.3   370  NAD370      0.1813
     29  C4D       35.1150   10.8890   11.1670 C.3   370  NAD370      0.1799
     30  O4D       33.7500   11.0170   11.5800 O.3   370  NAD370     -0.3327
     31  C3D       35.5760   12.3020   10.9550 C.3   370  NAD370      0.2158
     32  O3D       36.5990   12.3430    9.9660 O.3   370  NAD370     -0.2175
     33  C2D       34.3720   13.0700   10.5040 C.3   370  NAD370      0.2309
     34  O2D       34.3890   13.3370    9.1230 O.3   370  NAD370     -0.2158
     35  C1D       33.2190   12.2110   10.9470 C.3   370  NAD370      0.2263
     36  N1N       32.2960   12.9110   11.8500 N.pl3 370  NAD370     -0.2787
     37  C2N       32.3730   13.0020   13.2880 C.3   370  NAD370      0.1244
     38  C3N       31.2550   13.3340   13.9770 C.2   370  NAD370      0.0544
     39  C7N       31.3110   13.3110   15.4360 C.2   370  NAD370      0.2818
     40  O7N       31.0630   12.2810   16.0460 O.2   370  NAD370     -0.2670
     41  N7N       31.5770   14.3640   16.1360 N.am  370  NAD370     -0.0839
     42  C4N       30.2700   14.0080   13.3890 C.2   370  NAD370      0.0033
     43  C5N       30.2240   14.1130   12.0350 C.2   370  NAD370      0.0157
     44  C6N       31.1910   13.5420   11.2680 C.2   370  NAD370      0.0633
@<TRIPOS>BOND
     1    34    33    1
     2    32    31    1
     3    33    35    1
     4    33    31    1
     5    35    30    1
     6    35    36    1
     7    31    29    1
     8    29    30    1
     9    29    28    1
    10    44    36    1
    11    44    43    2
    12    36    37    1
    13    43    42    1
    14    28    27    1
    15    25    24    2
    16    37    38    1
    17    27    24    1
    18    42    38    2
    19    38    39    1
    20    24    26    1
    21    24    23    1
    22     3     1    2
    23    39    40    2
    24    39    41   am
    25    23     1    1
    26     1     2    1
    27     1     4    1
    28     5     4    1
    29     5     6    1
    30     6     7    1
    31     6     8    1
    32     9     8    1
    33     7    12    1
    34     8    10    1
    35    12    10    1
    36    12    13    1
    37    10    11    1
    38    14    13    1
    39    14    15    1
    40    13    22    1
    41    15    16    2
    42    22    16    1
    43    22    21    2
    44    16    17    1
    45    21    20    1
    46    17    18    1
    47    17    19    2
    48    20    19    1
