@<TRIPOS>MOLECULE
1rqd_GC7_A_1.pdb
 12 11 0 0 0
SMALL
GASTEIGER

@<TRIPOS>ATOM
      1  N1        55.5040    9.8490    6.0140 N.3   371  GC7371     -0.1314
      2  C1        55.6150    9.0840    7.2880 C.3   371  GC7371      0.1093
      3  C2        54.3390    8.2940    7.5920 C.3   371  GC7371      0.0205
      4  C3        54.5060    7.5350    8.8970 C.3   371  GC7371      0.0015
      5  C4        53.3520    6.5980    9.1600 C.3   371  GC7371      0.0002
      6  C5        53.5140    5.9040   10.4950 C.3   371  GC7371      0.0037
      7  C6        52.3570    4.9730   10.7540 C.3   371  GC7371      0.0469
      8  C7        52.3670    4.3390   12.1490 C.3   371  GC7371      0.2204
      9  N8        51.2090    3.4650   12.2860 N.pl3 371  GC7371     -0.0865
     10  C9        50.8320    2.8220   13.3910 C.cat 371  GC7371      0.5346
     11  NH1       51.5360    2.9410   14.5190 N.pl3 371  GC7371      0.1354
     12  NH2       49.7340    2.0620   13.3760 N.pl3 371  GC7371      0.1354
@<TRIPOS>BOND
     1     1     2    1
     2     2     3    1
     3     3     4    1
     4     4     5    1
     5     5     6    1
     6     6     7    1
     7     7     8    1
     8     8     9    1
     9     9    10    2
    10    12    10    1
    11    10    11    1
