@<TRIPOS>MOLECULE
1rqf_III_M_1.pdb
 15 14 0 0 0
SMALL
GASTEIGER

@<TRIPOS>ATOM
      1  N        109.3780  105.8560   17.9840 N.3     1  UNK1       -0.1231
      2  CA       108.5840  105.9030   16.7230 C.3     1  UNK1        0.1694
      3  C        108.3710  107.3500   16.2930 C.2     1  UNK1        0.2592
      4  O        108.5010  108.2720   17.1040 O.2     1  UNK1       -0.2718
      5  CB       107.2260  105.1910   16.9150 C.3     1  UNK1        0.0304
      6  N        108.0480  107.5280   15.0120 N.am    2  UNK2       -0.1966
      7  CA       107.8100  108.8370   14.4030 C.3     2  UNK2        0.1728
      8  C        107.6350  109.9720   15.4220 C.2     2  UNK2        0.2616
      9  O        108.5980  110.6680   15.7560 O.2     2  UNK2       -0.2715
     10  CB       106.5910  108.7520   13.4610 C.3     2  UNK2        0.0334
     11  N        106.4140  110.1570   15.9160 N.am    3  UNK3       -0.1977
     12  CA       106.1400  111.2030   16.9020 C.3     3  UNK3        0.1597
     13  C        104.7000  111.1190   17.4160 C.2     3  UNK3        0.2287
     14  O        104.5100  110.5770   18.5240 O.2     3  UNK3       -0.2864
     15  CB       106.4070  112.5870   16.2910 C.3     3  UNK3        0.0319
@<TRIPOS>BOND
     1    10     7    1
     2     7     6    1
     3     7     8    1
     4     6     3   am
     5     8     9    2
     6     8    11   am
     7    11    12    1
     8    15    12    1
     9     3     2    1
    10     3     4    2
    11     2     5    1
    12     2     1    1
    13    12    13    1
    14    13    14    2
