@<TRIPOS>MOLECULE
1rqi_IPR_A_1.pdb
 14 13 0 0 0
SMALL
GASTEIGER

@<TRIPOS>ATOM
      1  P11       58.1790   65.4000    9.1480 P.3   501  IPR501      0.5373
      2  O14       56.7240   65.6750    9.4420 O.3   501  IPR501     -0.1143
      3  O12       58.8160   64.6810   10.3180 O.3   501  IPR501     -0.1143
      4  O13       58.3560   64.7480    7.7940 O.2   501  IPR501     -0.2221
      5  O10       58.8640   66.8570    9.0530 O.3   501  IPR501     -0.2261
      6  P7        60.1720   67.2090    8.1820 P.3   501  IPR501      0.2230
      7  O8        61.0530   66.0060    8.0260 O.3   501  IPR501     -0.4370
      8  O9        59.7270   67.9270    6.9280 O.2   501  IPR501     -0.5169
      9  O6        60.8980   68.3020    9.1110 O.3   501  IPR501     -0.3138
     10  C5        60.1490   69.3030    9.8120 C.3   501  IPR501      0.1491
     11  C4        61.1370   70.2660   10.4280 C.3   501  IPR501      0.0325
     12  C2        62.3460   70.5250    9.5690 C.3   501  IPR501      0.0025
     13  C1        63.7230   70.1280   10.1140 C.3   501  IPR501      0.0001
     14  C3        62.1450   71.4900    8.4090 C.3   501  IPR501      0.0001
@<TRIPOS>BOND
     1     8     6    2
     2     4     1    2
     3     7     6    1
     4     6     5    1
     5     6     9    1
     6    14    12    1
     7     5     1    1
     8     9    10    1
     9     1     2    1
    10     1     3    1
    11    12    13    1
    12    12    11    1
    13    10    11    1
