@<TRIPOS>MOLECULE
1rqi_DST_A_1.pdb
 14 13 0 0 0
SMALL
GASTEIGER

@<TRIPOS>ATOM
      1  O4        58.2730   72.0590   10.2530 O.3   401  DST401     -0.1143
      2  P1        58.4700   73.5410   10.3410 P.3   401  DST401      0.5394
      3  O6        57.7430   74.1360   11.5270 O.3   401  DST401     -0.1143
      4  O5        58.3480   74.2880    9.0350 O.2   401  DST401     -0.2220
      5  O2        60.0300   73.6640   10.6950 O.3   401  DST401     -0.1955
      6  P3        60.7150   75.0910   10.9340 P.3   401  DST401      0.4273
      7  O8        60.6200   75.8280    9.6120 O.2   401  DST401     -0.2431
      8  O7        60.1980   75.7580   12.1700 O.3   401  DST401     -0.1309
      9  S9        62.5680   74.7140   11.1630 S.3   401  DST401     -0.0237
     10  C10       63.0650   73.1580   11.6480 C.3   401  DST401      0.0942
     11  C11       63.7730   72.7520   12.9060 C.2   401  DST401     -0.0224
     12  C12       63.3810   72.1850   14.0320 C.2   401  DST401     -0.0470
     13  C13       64.3880   71.9010   15.1040 C.3   401  DST401      0.0261
     14  C14       61.9140   71.8990   14.2840 C.3   401  DST401      0.0261
@<TRIPOS>BOND
     1     4     2    2
     2     7     6    2
     3     1     2    1
     4     2     5    1
     5     2     3    1
     6     5     6    1
     7     6     9    1
     8     6     8    1
     9     9    10    1
    10    10    11    1
    11    11    12    2
    12    12    14    1
    13    12    13    1
