@<TRIPOS>MOLECULE
1rqj_IPR_A_1.pdb
 14 13 0 0 0
SMALL
GASTEIGER

@<TRIPOS>ATOM
      1  P11       58.0960   65.3640    9.0390 P.3   900  IPR900      0.5373
      2  O14       56.6770   65.7190    9.3880 O.3   900  IPR900     -0.1143
      3  O12       58.7600   64.5980   10.1670 O.3   900  IPR900     -0.1143
      4  O13       58.2710   64.6670    7.7120 O.2   900  IPR900     -0.2221
      5  O10       58.9210   66.7470    8.9230 O.3   900  IPR900     -0.2261
      6  P7        60.2810   67.0300    8.0780 P.3   900  IPR900      0.2230
      7  O8        61.1280   65.7930    7.9050 O.3   900  IPR900     -0.4370
      8  O9        59.8790   67.7840    6.8440 O.2   900  IPR900     -0.5169
      9  O6        61.0850   68.0670    9.0000 O.3   900  IPR900     -0.3135
     10  C5        60.4460   69.2780    9.3960 C.3   900  IPR900      0.1535
     11  C4        61.3860   70.0770   10.2770 C.3   900  IPR900      0.0545
     12  C2        62.7290   70.3030    9.6270 C.2   900  IPR900     -0.0414
     13  C1        63.8180   70.0210   10.3110 C.2   900  IPR900     -0.0090
     14  C3        62.8470   70.8720    8.2370 C.3   900  IPR900      0.0264
@<TRIPOS>BOND
     1     8     6    2
     2     4     1    2
     3     7     6    1
     4     6     5    1
     5     6     9    1
     6    14    12    1
     7     5     1    1
     8     9    10    1
     9     1     2    1
    10     1     3    1
    11    10    11    1
    12    12    11    1
    13    12    13    2
