@<TRIPOS>MOLECULE
1rqj_RIS_A_1.pdb
 17 17 0 0 0
SMALL
GASTEIGER

@<TRIPOS>ATOM
      1  O12       57.8200   74.3040   11.5720 O.3   901  RIS901     -0.3553
      2  P9        58.6230   73.6910   10.4330 P.3   901  RIS901      0.1514
      3  O11       58.3290   74.5110    8.9920 O.2   901  RIS901     -0.4572
      4  O10       58.2060   72.0940   10.2630 O.3   901  RIS901     -0.3553
      5  C8        60.3340   73.7980   10.7910 C.3   901  RIS901      0.2200
      6  O13       61.0510   73.1670    9.7100 O.3   901  RIS901     -0.2105
      7  P14       60.8320   75.4670   10.9550 P.3   901  RIS901      0.1514
      8  O16       60.4870   76.1750    9.6640 O.2   901  RIS901     -0.4572
      9  O15       60.0140   76.1270   12.2590 O.3   901  RIS901     -0.3553
     10  O17       62.4730   75.6540   11.2350 O.3   901  RIS901     -0.3553
     11  C7        60.5170   73.0360   12.1100 C.3   901  RIS901      0.0725
     12  C2        61.9160   72.8430   12.6580 C.ar  901  RIS901      0.0004
     13  C1        62.0300   72.6930   14.0380 C.ar  901  RIS901     -0.0010
     14  C6        63.2840   72.4960   14.6140 C.ar  901  RIS901      0.0204
     15  C5        64.3960   72.4540   13.7900 C.ar  901  RIS901      0.0989
     16  N4        64.2720   72.5970   12.4610 N.ar  901  RIS901     -0.2426
     17  C3        63.0730   72.7870   11.8870 C.ar  901  RIS901      0.0947
@<TRIPOS>BOND
     1     3     2    2
     2     8     7    2
     3     6     5    1
     4     4     2    1
     5     2     5    1
     6     2     1    1
     7     5     7    1
     8     5    11    1
     9     7    10    1
    10     7     9    1
    11    17    16   ar
    12    17    12   ar
    13    11    12    1
    14    16    15   ar
    15    12    13   ar
    16    15    14   ar
    17    13    14   ar
