@<TRIPOS>MOLECULE
1rqk_U10_L_1.pdb
 48 48 0 0 0
SMALL
GASTEIGER

@<TRIPOS>ATOM
      1  C1        11.9760  115.4070   34.6310 C.2   502  U10502      0.0198
      2  C2        11.2580  115.0700   35.8760 C.2   502  U10502      0.2282
      3  C3        10.0980  115.8010   36.3170 C.2   502  U10502      0.2140
      4  C4         9.6540  116.8150   35.5370 C.2   502  U10502      0.2140
      5  C5        10.3500  117.1780   34.3090 C.2   502  U10502      0.2285
      6  C6        11.5330  116.4430   33.8560 C.2   502  U10502      0.0235
      7  C1M       13.1830  114.6100   34.2240 C.3   502  U10502      0.0343
      8  C3M        9.6400  116.0130   38.8040 C.3   502  U10502      0.2528
      9  C4M        8.8710  118.8730   36.5270 C.3   502  U10502      0.2528
     10  C7        12.2030  116.8780   32.5550 C.3   502  U10502      0.0548
     11  C8        11.9580  115.9000   31.4140 C.2   502  U10502     -0.0298
     12  C9        12.2390  116.1540   30.1120 C.2   502  U10502     -0.0475
     13  C10       12.8230  117.4680   29.6650 C.3   502  U10502      0.0260
     14  C11       11.9650  115.0820   29.0570 C.3   502  U10502      0.0264
     15  C12       13.0940  114.0280   28.9260 C.3   502  U10502      0.0297
     16  C13       13.2780  113.5830   27.4700 C.2   502  U10502     -0.0342
     17  C14       14.1900  112.6640   27.0490 C.2   502  U10502     -0.0478
     18  C15       15.1060  112.0250   28.0500 C.3   502  U10502      0.0260
     19  C16       14.3300  112.2700   25.5800 C.3   502  U10502      0.0263
     20  C17       13.0000  112.2070   24.8170 C.3   502  U10502      0.0297
     21  C18       12.8520  110.9680   23.9440 C.2   502  U10502     -0.0342
     22  C19       12.0440  110.9620   22.8590 C.2   502  U10502     -0.0478
     23  C20       11.2790  112.2070   22.4840 C.3   502  U10502      0.0260
     24  C21       11.8680  109.7190   21.9930 C.3   502  U10502      0.0263
     25  C22       10.4350  109.1870   22.1860 C.3   502  U10502      0.0297
     26  C23        9.8260  108.5270   20.9560 C.2   502  U10502     -0.0342
     27  C24        8.5560  108.0210   20.9400 C.2   502  U10502     -0.0478
     28  C25        7.6490  108.0890   22.1550 C.3   502  U10502      0.0260
     29  C26        8.0580  107.3580   19.6460 C.3   502  U10502      0.0263
     30  C27        6.6350  106.7460   19.6650 C.3   502  U10502      0.0297
     31  C28        6.5430  105.3490   20.2790 C.2   502  U10502     -0.0342
     32  C29        5.3760  104.6560   20.4010 C.2   502  U10502     -0.0478
     33  C30        4.0620  105.2240   19.9400 C.3   502  U10502      0.0260
     34  C31        5.3980  103.2740   21.0500 C.3   502  U10502      0.0263
     35  C32        4.3290  102.2780   20.5590 C.3   502  U10502      0.0297
     36  C33        4.4540  100.9290   21.2650 C.2   502  U10502     -0.0342
     37  C34        3.7440  100.5300   22.3470 C.2   502  U10502     -0.0478
     38  C35        3.9810   99.1730   22.8860 C.3   502  U10502      0.0260
     39  C36        2.6810  101.3340   23.0540 C.3   502  U10502      0.0263
     40  C37        2.7180  101.2040   24.5860 C.3   502  U10502      0.0297
     41  C38        1.3060  101.1070   25.1500 C.2   502  U10502     -0.0342
     42  C39        0.4840  102.1780   25.2650 C.2   502  U10502     -0.0478
     43  C40        0.9170  103.5540   24.8310 C.3   502  U10502      0.0260
     44  C41       -0.9110  102.0160   25.8270 C.3   502  U10502      0.0260
     45  O2        11.5960  114.1820   36.6120 O.2   502  U10502     -0.2836
     46  O3         9.4630  115.3680   37.5540 O.2   502  U10502     -0.4652
     47  O4         8.5330  117.6310   35.8960 O.2   502  U10502     -0.4652
     48  O5         9.9120  118.1230   33.6600 O.2   502  U10502     -0.2835
@<TRIPOS>BOND
     1    29    30    1
     2    29    27    1
     3    30    31    1
     4    33    32    1
     5    31    32    2
     6    32    34    1
     7    35    34    1
     8    35    36    1
     9    27    26    2
    10    27    28    1
    11    26    25    1
    12    36    37    2
    13    24    25    1
    14    24    22    1
    15    37    38    1
    16    37    39    1
    17    23    22    1
    18    22    21    2
    19    39    40    1
    20    21    20    1
    21    40    41    1
    22    20    19    1
    23    43    42    1
    24    41    42    2
    25    42    44    1
    26    19    17    1
    27    17    16    2
    28    17    18    1
    29    16    15    1
    30    15    14    1
    31    14    12    1
    32    13    12    1
    33    12    11    2
    34    11    10    1
    35    10     6    1
    36    48     5    2
    37     6     5    1
    38     6     1    2
    39     7     1    1
    40     5     4    1
    41     1     2    1
    42     4    47    1
    43     4     3    2
    44     2     3    1
    45     2    45    2
    46    47     9    1
    47     3    46    1
    48    46     8    1
