@<TRIPOS>MOLECULE
1rqk_SP2_M_1.pdb
 42 41 0 0 0
SMALL
GASTEIGER

@<TRIPOS>ATOM
      1  CMA       23.7680  117.2180    6.3970 C.3   600  SP2600      0.1739
      2  O1        25.1940  117.5350    6.3350 O.3   600  SP2600     -0.3559
      3  C1        25.8690  118.4210    7.3000 C.3   600  SP2600      0.0930
      4  CM1       27.2170  118.8790    6.7160 C.3   600  SP2600      0.0296
      5  CM2       25.0210  119.6790    7.5290 C.3   600  SP2600      0.0296
      6  C2        26.1030  117.7450    8.6660 C.3   600  SP2600      0.0276
      7  C3        25.8620  116.2320    8.7550 C.3   600  SP2600      0.0067
      8  C4        26.6500  115.6390    9.9330 C.3   600  SP2600      0.0221
      9  C5        26.3900  114.2290   10.3140 C.2   600  SP2600     -0.0439
     10  CM3       25.2600  113.4340    9.7090 C.3   600  SP2600      0.0264
     11  C6        27.2280  113.7010   11.2540 C.2   600  SP2600     -0.0085
     12  C7        27.1720  112.3290   11.8010 C.2   600  SP2600     -0.0010
     13  C8        27.6510  112.0810   13.0560 C.2   600  SP2600     -0.0043
     14  C9        27.6510  110.7560   13.6990 C.2   600  SP2600     -0.0218
     15  CM4       26.7760  109.6370   13.2370 C.3   600  SP2600      0.0310
     16  C10       28.4580  110.5430   14.7620 C.2   600  SP2600     -0.0043
     17  C11       28.5370  109.2740   15.4910 C.2   600  SP2600     -0.0006
     18  C12       28.9900  109.3330   16.7620 C.2   600  SP2600     -0.0043
     19  C13       29.1340  108.1890   17.6400 C.2   600  SP2600     -0.0218
     20  CM5       28.4280  106.9280   17.2740 C.3   600  SP2600      0.0310
     21  C14       29.8970  108.3270   18.7600 C.2   600  SP2600     -0.0043
     22  C15       30.0890  107.2080   19.7330 C.2   600  SP2600     -0.0003
     23  C16       31.0380  107.1190   20.7020 C.2   600  SP2600     -0.0003
     24  C17       32.1660  108.1910   20.9780 C.2   600  SP2600     -0.0043
     25  C18       33.0130  108.1140   22.0430 C.2   600  SP2600     -0.0218
     26  CM6       32.9700  107.0570   23.1100 C.3   600  SP2600      0.0310
     27  C19       33.9800  109.1860   22.1460 C.2   600  SP2600     -0.0043
     28  C20       34.5240  109.5920   23.3150 C.2   600  SP2600     -0.0010
     29  C21       35.4330  110.7420   23.2550 C.2   600  SP2600     -0.0085
     30  C22       36.1720  111.1760   24.2910 C.2   600  SP2600     -0.0436
     31  CM7       36.1270  110.4610   25.6120 C.3   600  SP2600      0.0264
     32  C23       37.0510  112.3690   24.1020 C.3   600  SP2600      0.0267
     33  C24       38.5270  112.0180   23.9850 C.3   600  SP2600      0.0297
     34  C25       39.3090  113.2710   23.8000 C.2   600  SP2600     -0.0342
     35  C26       40.4530  113.3670   23.0600 C.2   600  SP2600     -0.0478
     36  CM8       41.0470  112.1730   22.3580 C.3   600  SP2600      0.0260
     37  C27       41.1360  114.6990   22.9310 C.3   600  SP2600      0.0263
     38  C28       42.5970  114.6290   23.3790 C.3   600  SP2600      0.0297
     39  C29       43.2140  115.9680   23.6770 C.2   600  SP2600     -0.0342
     40  C30       42.9910  116.6440   24.8430 C.2   600  SP2600     -0.0478
     41  CMB       43.6820  117.9690   25.0200 C.3   600  SP2600      0.0260
     42  CM9       42.0990  116.1350   25.9590 C.3   600  SP2600      0.0260
@<TRIPOS>BOND
     1     2     1    1
     2     2     3    1
     3     4     3    1
     4     3     5    1
     5     3     6    1
     6     6     7    1
     7     7     8    1
     8    10     9    1
     9     8     9    1
    10     9    11    2
    11    11    12    1
    12    12    13    2
    13    13    14    1
    14    15    14    1
    15    14    16    2
    16    16    17    1
    17    17    18    2
    18    18    19    1
    19    20    19    1
    20    19    21    2
    21    21    22    1
    22    22    23    2
    23    23    24    1
    24    24    25    2
    25    25    27    1
    26    25    26    1
    27    27    28    2
    28    36    35    1
    29    37    35    1
    30    37    38    1
    31    35    34    2
    32    29    28    1
    33    29    30    2
    34    38    39    1
    35    39    40    2
    36    34    33    1
    37    33    32    1
    38    32    30    1
    39    30    31    1
    40    40    41    1
    41    40    42    1
