@<TRIPOS>MOLECULE
1rqp_SAM_A_1.pdb
 27 29 0 0 0
SMALL
GASTEIGER

@<TRIPOS>ATOM
      1  N         21.5960   36.3430   64.6100 N.3   500  SAM500     -0.1208
      2  CA        20.1620   36.1950   64.8790 C.3   500  SAM500      0.1952
      3  C         19.6440   37.4930   65.5740 C.2   500  SAM500      0.3819
      4  O         20.4060   38.2440   66.1360 O.co2 500  SAM500     -0.2441
      5  OXT       18.4700   37.8150   65.5880 O.co2 500  SAM500     -0.2441
      6  CB        20.0300   35.0780   65.9020 C.3   500  SAM500      0.0414
      7  CG        18.5590   34.6830   66.0890 C.3   500  SAM500      0.0503
      8  SD        18.0440   33.4070   64.8790 S.3   500  SAM500     -0.1761
      9  CE        17.7170   34.2490   63.3570 C.3   500  SAM500      0.0590
     10  C5'       16.7520   32.4250   65.7510 C.3   500  SAM500      0.0806
     11  C4'       16.2230   31.2060   64.9470 C.3   500  SAM500      0.1622
     12  O4'       15.8140   31.7930   63.6890 O.3   500  SAM500     -0.3153
     13  C3'       17.3720   30.2520   64.6360 C.3   500  SAM500      0.2168
     14  O3'       17.2110   29.0830   65.4800 O.3   500  SAM500     -0.2175
     15  C2'       17.0470   29.8900   63.1630 C.3   500  SAM500      0.2569
     16  O2'       16.7370   28.4970   63.0250 O.3   500  SAM500     -0.2130
     17  C1'       15.7710   30.7270   62.7540 C.3   500  SAM500      0.3185
     18  N9        16.0390   31.3970   61.4570 N.pl3 500  SAM500     -0.1439
     19  C8        17.0600   32.2200   61.1640 C.3   500  SAM500      0.3377
     20  N7        16.9940   32.5920   59.8690 N.2   500  SAM500     -0.2095
     21  C5        15.9100   31.9550   59.3860 C.2   500  SAM500      0.2526
     22  C6        15.3400   31.9410   58.1300 C.2   500  SAM500      0.4393
     23  N6        15.8420   32.6570   57.1360 N.pl3 500  SAM500      0.2180
     24  N1        14.2190   31.1410   57.9870 N.2   500  SAM500      0.0021
     25  C2        13.6720   30.3870   59.0050 C.3   500  SAM500      0.5254
     26  N3        14.1580   30.4420   60.2190 N.2   500  SAM500     -0.0055
     27  C4        15.3130   31.1970   60.3680 C.2   500  SAM500      0.3518
@<TRIPOS>BOND
     1    23    22    1
     2    24    22    2
     3    24    25    1
     4    22    21    1
     5    25    26    1
     6    21    20    2
     7    21    27    1
     8    20    19    1
     9    26    27    2
    10    27    18    1
    11    19    18    1
    12    18    17    1
    13    17    15    1
    14    17    12    1
    15    16    15    1
    16    15    13    1
    17     9     8    1
    18    12    11    1
    19     1     2    1
    20    13    11    1
    21    13    14    1
    22     2     3    1
    23     2     6    1
    24     8    10    1
    25     8     7    1
    26    11    10    1
    27     3     5   ar
    28     3     4   ar
    29     6     7    1
