@<TRIPOS>MOLECULE
1rqq_112_E_1.pdb
 35 37 0 0 0
SMALL
GASTEIGER

@<TRIPOS>ATOM
      1  NS        26.5580   22.6160   45.7110 N.am  117  112117     -0.0870
      2  C2S       26.3440   23.9350   45.7490 C.2   117  112117      0.2723
      3  O2S       25.1640   24.2800   45.8120 O.2   117  112117     -0.2707
      4  C1S       27.4450   24.9950   45.7310 C.3   117  112117      0.1571
      5  PG        26.9700   27.2100   47.8890 P.3   117  112117      0.4244
      6  S1G       28.0580   25.5650   47.3710 S.3   117  112117     -0.0186
      7  O2G       25.5180   26.9250   47.8470 O.2   117  112117     -0.2432
      8  O3G       27.4390   27.7520   49.2050 O.3   117  112117     -0.1310
      9  PB        26.9210   28.3320   45.3160 P.3   117  112117      0.2262
     10  O1B       28.1490   28.4090   44.5280 O.2   117  112117     -0.5168
     11  O2B       25.7840   27.4680   44.8560 O.3   117  112117     -0.4369
     12  O3B       27.1190   28.2990   46.8340 O.3   117  112117     -0.2410
     13  PA        25.4780   30.6340   44.7210 P.3   117  112117      0.2189
     14  O1A       26.1340   31.1020   43.5030 O.2   117  112117     -0.5170
     15  O2A       24.2070   29.9030   44.6640 O.3   117  112117     -0.4371
     16  O3A       26.5330   29.8000   45.4180 O.3   117  112117     -0.2701
     17  O5'       25.2340   31.9420   45.6410 O.3   117  112117     -0.3112
     18  C5'       26.1960   32.5540   46.5630 C.3   117  112117      0.1813
     19  C4'       25.5260   33.2150   47.7450 C.3   117  112117      0.1821
     20  O4'       24.6310   34.2400   47.2540 O.3   117  112117     -0.3135
     21  C3'       24.6390   32.2910   48.5640 C.3   117  112117      0.2184
     22  O3'       25.3940   31.7090   49.6160 O.3   117  112117     -0.2174
     23  C2'       23.6190   33.2350   49.1730 C.3   117  112117      0.2570
     24  O2'       24.1250   33.8070   50.3620 O.3   117  112117     -0.2130
     25  C1'       23.4840   34.3040   48.0820 C.3   117  112117      0.3186
     26  N9        22.2970   34.1900   47.2350 N.pl3 117  112117     -0.1439
     27  C8        22.0970   33.3420   46.1710 C.3   117  112117      0.3377
     28  N7        20.9480   33.5170   45.5650 N.2   117  112117     -0.2095
     29  C5        20.3410   34.5360   46.2830 C.2   117  112117      0.2526
     30  C6        19.1020   35.1920   46.1400 C.2   117  112117      0.4393
     31  N6        18.2160   34.9110   45.1790 N.pl3 117  112117      0.2180
     32  N1        18.7980   36.1560   47.0290 N.2   117  112117      0.0021
     33  C2        19.6860   36.4440   47.9920 C.3   117  112117      0.5254
     34  N3        20.8800   35.9050   48.2280 N.2   117  112117     -0.0055
     35  C4        21.1550   34.9490   47.3250 C.2   117  112117      0.3518
@<TRIPOS>BOND
     1    14    13    2
     2    10     9    2
     3    15    13    1
     4    13    16    1
     5    13    17    1
     6    11     9    1
     7    31    30    1
     8     9    16    1
     9     9    12    1
    10    28    27    1
    11    28    29    2
    12    17    18    1
    13     1     2   am
    14     4     2    1
    15     4     6    1
    16     2     3    2
    17    30    29    1
    18    30    32    2
    19    27    26    1
    20    29    35    1
    21    18    19    1
    22    12     5    1
    23    32    33    1
    24    26    35    1
    25    26    25    1
    26    20    19    1
    27    20    25    1
    28    35    34    2
    29     6     5    1
    30    19    21    1
    31     7     5    2
    32     5     8    1
    33    33    34    1
    34    25    23    1
    35    21    23    1
    36    21    22    1
    37    23    24    1
