@<TRIPOS>MOLECULE
1rqr_5FD_A_1.pdb
 19 21 0 0 0
SMALL
GASTEIGER

@<TRIPOS>ATOM
      1  O2'       16.9160   28.1830   63.3060 O.3   500  5FD500     -0.2130
      2  C2'       17.1040   29.6090   63.3730 C.3   500  5FD500      0.2570
      3  C3'       17.2080   30.0690   64.8320 C.3   500  5FD500      0.2188
      4  O3'       17.3960   28.9380   65.7040 O.3   500  5FD500     -0.2174
      5  C4'       15.8260   30.6900   65.0630 C.3   500  5FD500      0.1875
      6  C5'       15.8120   31.8130   66.0440 C.3   500  5FD500      0.2254
      7  F19       15.9190   31.3380   67.3100 F     500  5FD500     -0.2315
      8  O4'       15.5550   31.3160   63.8250 O.3   500  5FD500     -0.3132
      9  C1'       15.8400   30.3420   62.8690 C.3   500  5FD500      0.3186
     10  N9        16.1160   31.0510   61.6560 N.pl3 500  5FD500     -0.1439
     11  C8        17.1490   31.8770   61.4250 C.3   500  5FD500      0.3377
     12  N7        17.0990   32.3510   60.1840 N.2   500  5FD500     -0.2095
     13  C5        16.0260   31.7970   59.6320 C.2   500  5FD500      0.2526
     14  C4        15.3880   30.9770   60.5650 C.2   500  5FD500      0.3518
     15  N3        14.2660   30.2840   60.2840 N.2   500  5FD500     -0.0055
     16  C2        13.7060   30.3680   59.0920 C.3   500  5FD500      0.5254
     17  N1        14.2940   31.1810   58.1190 N.2   500  5FD500      0.0021
     18  C6        15.4800   31.9100   58.3790 C.2   500  5FD500      0.4393
     19  N6        16.0680   32.6850   57.4690 N.pl3 500  5FD500      0.2180
@<TRIPOS>BOND
     1    19    18    1
     2    17    18    2
     3    17    16    1
     4    18    13    1
     5    16    15    1
     6    13    12    2
     7    13    14    1
     8    12    11    1
     9    15    14    2
    10    14    10    1
    11    11    10    1
    12    10     9    1
    13     9     2    1
    14     9     8    1
    15     1     2    1
    16     2     3    1
    17     8     5    1
    18     3     5    1
    19     3     4    1
    20     5     6    1
    21     6     7    1
