@<TRIPOS>MOLECULE
1rqx_PLP_A_1.pdb
 15 15 0 0 0
SMALL
GASTEIGER

@<TRIPOS>ATOM
      1  N1        17.4880   19.9220  155.4120 N.ar  401  PLP401     -0.2452
      2  C2        17.2550   20.9690  154.6000 C.ar  401  PLP401      0.0978
      3  C2A       15.8270   21.2660  154.1860 C.3   401  PLP401      0.0555
      4  C3        18.3320   21.7980  154.1320 C.ar  401  PLP401      0.2049
      5  O3        18.0760   22.8740  153.3090 O.3   401  PLP401     -0.2857
      6  C4        19.6580   21.4850  154.5470 C.ar  401  PLP401      0.0182
      7  C4A       20.8230   22.3550  154.0540 C.3   401  PLP401      0.0342
      8  C5        19.8620   20.3470  155.4160 C.ar  401  PLP401      0.0261
      9  C6        18.7260   19.5950  155.8270 C.ar  401  PLP401      0.0965
     10  C5A       21.1920   19.9000  155.9410 C.3   401  PLP401      0.1815
     11  O4P       21.6220   20.8960  156.9080 O.3   401  PLP401     -0.2653
     12  P         23.1650   21.1080  157.2450 P.3   401  PLP401      0.5329
     13  O1P       23.8890   21.6240  156.0120 O.2   401  PLP401     -0.2224
     14  O2P       23.2990   22.1290  158.3300 O.3   401  PLP401     -0.1145
     15  O3P       23.7460   19.7740  157.6640 O.3   401  PLP401     -0.1145
@<TRIPOS>BOND
     1     5     4    1
     2     7     6    1
     3     4     6   ar
     4     4     2   ar
     5     3     2    1
     6     6     8   ar
     7     2     1   ar
     8     1     9   ar
     9     8     9   ar
    10     8    10    1
    11    10    11    1
    12    13    12    2
    13    11    12    1
    14    12    15    1
    15    12    14    1
