@<TRIPOS>MOLECULE
1rr6_IMH_A_1.pdb
 19 21 0 0 0
SMALL
GASTEIGER

@<TRIPOS>ATOM
      1  O5'        1.5720   21.5590   23.5540 O.3   300  IMH300     -0.2188
      2  C5'        1.5740   20.2070   23.1250 C.3   300  IMH300      0.2020
      3  C4'        2.9830   19.7470   23.0530 C.3   300  IMH300      0.1389
      4  N4'        3.6640   19.8410   24.3220 N.3   300  IMH300     -0.2083
      5  C3'        3.0510   18.3220   22.5980 C.3   300  IMH300      0.2023
      6  O3'        4.0010   18.3120   21.5170 O.3   300  IMH300     -0.2188
      7  C2'        3.5140   17.5610   23.8110 C.3   300  IMH300      0.2036
      8  O2'        4.5560   16.6300   23.4710 O.3   300  IMH300     -0.2185
      9  C1'        4.0060   18.5610   24.8960 C.3   300  IMH300      0.1309
     10  C9         3.2110   18.4530   26.2170 C.2   300  IMH300      0.0348
     11  C8         3.1680   19.4400   27.1920 C.2   300  IMH300      0.0984
     12  N7         2.4250   19.1590   28.2330 N.2   300  IMH300     -0.2310
     13  C5         1.9060   17.8950   27.9780 C.2   300  IMH300      0.1804
     14  C6         1.0120   17.0780   28.7820 C.1   300  IMH300      0.1716
     15  O6         0.5210   17.3670   29.8700 O.2   300  IMH300     -0.2206
     16  N1         0.7010   15.8350   28.1940 N.2   300  IMH300     -0.1739
     17  C2         1.1970   15.4030   26.9570 C.3   300  IMH300      0.2626
     18  N3         2.0430   16.1750   26.1910 N.2   300  IMH300     -0.2415
     19  C4         2.3710   17.4170   26.7510 C.2   300  IMH300      0.1059
@<TRIPOS>BOND
     1     6     5    1
     2     5     3    1
     3     5     7    1
     4     3     2    1
     5     3     4    1
     6     2     1    1
     7     8     7    1
     8     7     9    1
     9     4     9    1
    10     9    10    1
    11    18    19    2
    12    18    17    1
    13    10    19    1
    14    10    11    2
    15    19    13    1
    16    17    16    1
    17    11    12    1
    18    13    12    2
    19    13    14    1
    20    16    14    2
    21    14    15    2
