@<TRIPOS>MOLECULE
1rr8_TTC_A_1.pdb
 31 35 0 0 0
SMALL
GASTEIGER

@<TRIPOS>ATOM
      1  C25       19.2280    1.7910   29.5160 C.3   100  TTC100      0.0458
      2  C31       18.3620    0.8180   30.3680 C.3   100  TTC100      0.0036
      3  C21       19.6460    1.2640   28.0940 C.3   100  TTC100      0.2334
      4  O24       18.5150    0.8760   27.3430 O.3   100  TTC100     -0.2097
      5  C16       20.6940    0.1260   28.2170 C.ar  100  TTC100      0.0209
      6  C20       20.3590    2.4190   27.2770 C.2   100  TTC100      0.3490
      7  C15       22.0430    0.3520   28.2850 C.ar  100  TTC100      0.0763
      8  C17       20.3200   -1.2390   28.2310 C.ar  100  TTC100      0.0184
      9  O23       19.7280    3.1760   26.5050 O.2   100  TTC100     -0.2470
     10  O22       21.6360    2.6300   27.3630 O.3   100  TTC100     -0.4414
     11  C14       23.0820   -0.7700   28.3890 C.ar  100  TTC100      0.2604
     12  C19       22.5000    1.8050   28.2460 C.3   100  TTC100      0.2396
     13  C13       21.2630   -2.2940   28.3250 C.ar  100  TTC100      0.0919
     14  O18       24.2800   -0.5280   28.4400 O.2   100  TTC100     -0.2672
     15  N12       22.5840   -2.0430   28.3890 N.ar  100  TTC100     -0.2891
     16  C9        21.0230   -3.6760   28.3210 C.2   100  TTC100      0.1445
     17  C11       23.4000   -3.3000   28.4690 C.3   100  TTC100      0.1384
     18  C8        22.3210   -4.3690   28.4100 C.2   100  TTC100      0.0316
     19  N10       19.8700   -4.3580   28.2400 N.2   100  TTC100     -0.4047
     20  C7        22.3760   -5.7380   28.4160 C.2   100  TTC100      0.0022
     21  C5        19.9000   -5.7780   28.2300 C.2   100  TTC100      0.1133
     22  C6        21.1370   -6.5070   28.3130 C.2   100  TTC100      0.0260
     23  C4        18.6830   -6.4390   28.1180 C.3   100  TTC100      0.0882
     24  C1        21.0950   -7.9510   28.2950 C.2   100  TTC100      0.0346
     25  C3        18.6500   -7.8480   28.0900 C.2   100  TTC100      0.0230
     26  C2        19.8280   -8.6030   28.1740 C.2   100  TTC100      0.1893
     27  C27       22.3410   -8.8720   28.3860 C.3   100  TTC100      0.1025
     28  N28       22.6720   -9.5990   27.1250 N.3   100  TTC100     -0.2664
     29  C29       23.7480   -8.8880   26.3670 C.3   100  TTC100      0.0899
     30  C30       23.0720  -11.0170   27.4320 C.3   100  TTC100      0.0899
     31  O26       19.6730   -9.9760   28.1360 O.2   100  TTC100     -0.2872
@<TRIPOS>BOND
     1    29    28    1
     2     9     6    2
     3    28    30    1
     4    28    27    1
     5     6    10    1
     6     6     3    1
     7     4     3    1
     8    10    12    1
     9    25    23    1
    10    25    26    2
    11     3     5    1
    12     3     1    1
    13    23    21    1
    14    31    26    1
    15    26    24    1
    16     5     8   ar
    17     5     7   ar
    18    21    19    2
    19    21    22    1
    20     8    13   ar
    21    19    16    2
    22    12     7    1
    23     7    11   ar
    24    24    22    2
    25    24    27    1
    26    22    20    1
    27    16    13    1
    28    16    18    1
    29    13    15   ar
    30    15    11   ar
    31    15    17    1
    32    11    14    2
    33    18    20    2
    34    18    17    1
    35     1     2    1
