@<TRIPOS>MOLECULE
1rr8_TTG_A_1.pdb
 32 35 0 0 0
SMALL
GASTEIGER

@<TRIPOS>ATOM
      1  C25       19.4040    1.7620   29.8680 C.3   1991  TTG1991     0.0459
      2  C31       18.4260    0.9110   30.6920 C.3   1991  TTG1991     0.0036
      3  C21       19.7070    1.2520   28.4160 C.3   1991  TTG1991     0.2375
      4  O24       18.5250    0.7310   27.8560 O.3   1991  TTG1991    -0.2096
      5  C16       20.8440    0.1170   28.5160 C.ar  1991  TTG1991     0.0200
      6  C20       20.1140    2.5030   27.4540 C.2   1991  TTG1991     0.3955
      7  C15       22.2270    0.3080   28.6760 C.ar  1991  TTG1991     0.0656
      8  C17       20.4710   -1.2610   28.4620 C.ar  1991  TTG1991     0.0184
      9  O23       20.2270    2.3770   26.2120 O.co2 1991  TTG1991    -0.2426
     10  O22       20.3340    3.6590   27.9430 O.co2 1991  TTG1991    -0.2426
     11  C14       23.2370   -0.9070   28.7680 C.ar  1991  TTG1991     0.2594
     12  C19       22.8290    1.7320   28.7800 C.3   1991  TTG1991     0.2131
     13  C13       21.3670   -2.3390   28.5450 C.ar  1991  TTG1991     0.0918
     14  O18       24.4490   -0.7800   28.9000 O.2   1991  TTG1991    -0.2672
     15  N12       22.6830   -2.1540   28.6970 N.ar  1991  TTG1991    -0.2891
     16  C9        21.0810   -3.6980   28.4990 C.2   1991  TTG1991     0.1443
     17  C11       23.4520   -3.4470   28.7500 C.3   1991  TTG1991     0.1381
     18  C8        22.3510   -4.4390   28.6130 C.2   1991  TTG1991     0.0280
     19  N10       19.9110   -4.3430   28.3480 N.2   1991  TTG1991    -0.4044
     20  C7        22.3670   -5.7860   28.5940 C.2   1991  TTG1991    -0.0150
     21  C5        19.9110   -5.7490   28.3200 C.2   1991  TTG1991     0.1167
     22  C6        21.1280   -6.5100   28.4320 C.3   1991  TTG1991     0.0967
     23  C4        18.7140   -6.3750   28.1610 C.2   1991  TTG1991     0.0314
     24  C1        21.0550   -7.9490   28.3920 C.2   1991  TTG1991     0.0210
     25  C3        18.6410   -7.7830   28.1080 C.2   1991  TTG1991     0.0437
     26  C2        19.7940   -8.5650   28.2160 C.2   1991  TTG1991     0.1899
     27  C27       22.2560   -8.9040   28.5070 C.3   1991  TTG1991     0.0988
     28  N28       22.8230   -9.4380   27.2430 N.3   1991  TTG1991    -0.2667
     29  C29       23.7650   -8.4600   26.5870 C.3   1991  TTG1991     0.0899
     30  C30       23.5160  -10.7330   27.5230 C.3   1991  TTG1991     0.0899
     31  O26       19.6470   -9.9380   28.1640 O.2   1991  TTG1991    -0.2872
     32  O19       23.9150    2.0080   27.8990 O.3   1991  TTG1991    -0.2150
@<TRIPOS>BOND
     1     9     6   ar
     2    29    28    1
     3    28    30    1
     4    28    27    1
     5     6    10   ar
     6     6     3    1
     7     4     3    1
     8    32    12    1
     9    25    23    2
    10    25    26    1
    11    23    21    1
    12    31    26    1
    13    26    24    2
    14    21    19    2
    15    21    22    1
    16    19    16    2
    17    24    22    1
    18    24    27    1
    19     3     5    1
    20     3     1    1
    21    22    20    1
    22     8     5   ar
    23     8    13   ar
    24    16    13    1
    25    16    18    1
    26     5     7   ar
    27    13    15   ar
    28    20    18    2
    29    18    17    1
    30     7    11   ar
    31     7    12    1
    32    15    17    1
    33    15    11   ar
    34    11    14    2
    35     1     2    1
