@<TRIPOS>MOLECULE
1rrc_ADP_A_1.pdb
 27 29 0 0 0
SMALL
GASTEIGER

@<TRIPOS>ATOM
      1  PB        11.1950   85.4640  114.0760 P.3   900  ADP900      0.5373
      2  O1B       12.5960   85.2120  114.5100 O.3   900  ADP900     -0.1143
      3  O2B       10.4740   86.4490  115.1200 O.3   900  ADP900     -0.1143
      4  O3B       11.1690   86.0320  112.7070 O.2   900  ADP900     -0.2221
      5  PA         9.4330   83.5360  115.2860 P.3   900  ADP900      0.2231
      6  O1A        9.6740   82.1130  115.4100 O.2   900  ADP900     -0.5169
      7  O2A        9.7100   84.1720  116.5670 O.3   900  ADP900     -0.4370
      8  O3A       10.3440   84.1400  114.1510 O.3   900  ADP900     -0.2261
      9  O5'        7.9200   83.8370  114.9700 O.3   900  ADP900     -0.3111
     10  C5'        7.3570   84.5340  113.8640 C.3   900  ADP900      0.1813
     11  C4'        5.8030   84.5490  114.0830 C.3   900  ADP900      0.1821
     12  O4'        5.2480   83.3060  113.6300 O.3   900  ADP900     -0.3135
     13  C3'        5.3210   84.6920  115.5540 C.3   900  ADP900      0.2184
     14  O3'        4.1990   85.5890  115.6780 O.3   900  ADP900     -0.2174
     15  C2'        4.9920   83.2650  115.9860 C.3   900  ADP900      0.2570
     16  O2'        4.1440   83.1790  117.1430 O.3   900  ADP900     -0.2130
     17  C1'        4.4440   82.7060  114.6780 C.3   900  ADP900      0.3186
     18  N9         4.5130   81.1950  114.5230 N.pl3 900  ADP900     -0.1439
     19  C8         5.5120   80.3820  114.9590 C.3   900  ADP900      0.3377
     20  N7         5.2300   79.1240  114.6480 N.2   900  ADP900     -0.2095
     21  C5         4.0760   79.0930  114.0210 C.2   900  ADP900      0.2526
     22  C6         3.2560   78.0920  113.4480 C.2   900  ADP900      0.4393
     23  N6         3.6340   76.8070  113.4920 N.pl3 900  ADP900      0.2180
     24  N1         2.0490   78.4360  112.8370 N.2   900  ADP900      0.0021
     25  C2         1.6150   79.7300  112.7660 C.3   900  ADP900      0.5254
     26  N3         2.3980   80.7060  113.3150 N.2   900  ADP900     -0.0055
     27  C4         3.6080   80.4380  113.9350 C.2   900  ADP900      0.3518
@<TRIPOS>BOND
     1     4     1    2
     2    25    24    1
     3    25    26    1
     4    24    22    2
     5    26    27    2
     6    22    23    1
     7    22    21    1
     8    12    11    1
     9    12    17    1
    10    10    11    1
    11    10     9    1
    12    27    21    1
    13    27    18    1
    14    21    20    2
    15     1     8    1
    16     1     2    1
    17     1     3    1
    18    11    13    1
    19     8     5    1
    20    18    17    1
    21    18    19    1
    22    20    19    1
    23    17    15    1
    24     9     5    1
    25     5     6    2
    26     5     7    1
    27    13    14    1
    28    13    15    1
    29    15    16    1
