@<TRIPOS>MOLECULE
1rrc_NUC_B_1.pdb
 50 55 0 0 0
SMALL
GASTEIGER

@<TRIPOS>ATOM
      1  O5'       12.8750   90.0090  111.8050 O.3   400  DG400      -0.2176
      2  C5'       13.1210   91.1590  110.9990 C.3   400  DG400       0.2140
      3  C4'       14.3070   90.9390  110.0900 C.3   400  DG400       0.1774
      4  O4'       14.1300   91.7050  108.8830 O.3   400  DG400      -0.3347
      5  C3'       15.6660   91.3600  110.6500 C.3   400  DG400       0.1556
      6  O3'       16.6670   90.5140  110.0730 O.3   400  DG400      -0.3139
      7  C2'       15.8020   92.7930  110.1600 C.3   400  DG400       0.0836
      8  C1'       15.0380   92.7910  108.8390 C.3   400  DG400       0.1980
      9  N9        14.2300   93.9800  108.6200 N.pl3 400  DG400      -0.2374
     10  C8        13.1950   94.4220  109.4120 C.3   400  DG400       0.2245
     11  N7        12.5910   95.4700  108.9280 N.2   400  DG400      -0.2322
     12  C5        13.2830   95.7500  107.7570 C.2   400  DG400       0.2182
     13  C6        13.0720   96.7660  106.7990 C.1   400  DG400       0.2372
     14  O6        12.1950   97.6530  106.7930 O.2   400  DG400      -0.2069
     15  N1        14.0020   96.6900  105.7620 N.2   400  DG400      -0.2485
     16  C2        15.0030   95.7510  105.6640 C.1   400  DG400       0.2531
     17  N2        15.8010   95.8510  104.5880 N.pl3 400  DG400      -0.0226
     18  N3        15.2050   94.7880  106.5550 N.2   400  DG400      -0.3074
     19  C4        14.3110   94.8490  107.5650 C.2   400  DG400       0.2299
     20  P         18.1750   90.5520  110.6110 P.3   401  DT401       0.2141
     21  OP1       18.7260   89.1900  110.3540 O.2   401  DT401      -0.5172
     22  OP2       18.1710   91.0930  111.9970 O.3   401  DT401      -0.4373
     23  O5'       18.9040   91.5570  109.6120 O.3   401  DT401      -0.3114
     24  C5'       18.9880   91.2310  108.2230 C.3   401  DT401       0.1811
     25  C4'       19.5720   92.3680  107.4120 C.3   401  DT401       0.1745
     26  O4'       18.6370   93.4640  107.2450 O.3   401  DT401      -0.3340
     27  C3'       20.8840   92.9820  107.9070 C.3   401  DT401       0.1556
     28  O3'       21.8170   92.9990  106.8220 O.3   401  DT401      -0.3139
     29  C2'       20.4960   94.4000  108.3020 C.3   401  DT401       0.0845
     30  C1'       19.3390   94.6960  107.3600 C.3   401  DT401       0.2089
     31  N1        18.3670   95.7440  107.7900 N.am  401  DT401      -0.1794
     32  C2        18.0440   96.7470  106.8860 C.1   401  DT401       0.2844
     33  O2        18.5500   96.8360  105.7730 O.2   401  DT401      -0.1918
     34  N3        17.1020   97.6490  107.3370 N.2   401  DT401      -0.2455
     35  C4        16.4690   97.6510  108.5760 C.1   401  DT401       0.2134
     36  O4        15.6180   98.5100  108.8420 O.2   401  DT401      -0.2088
     37  C5        16.8790   96.5940  109.4780 C.2   401  DT401       0.0891
     38  C7        16.2710   96.5410  110.8430 C.3   401  DT401       0.0462
     39  C6        17.7930   95.7060  109.0460 C.2   401  DT401       0.0877
     40  P         23.3360   92.5310  107.0690 P.3   402  DC402       0.2141
     41  OP1       23.9600   92.4290  105.7200 O.2   402  DC402      -0.5172
     42  OP2       23.3380   91.3490  107.9720 O.3   402  DC402      -0.4373
     43  O5'       23.9650   93.7780  107.8450 O.3   402  DC402      -0.3114
     44  C5'       25.2150   93.6890  108.5290 C.3   402  DC402       0.1811
     45  C4'       25.6000   95.0400  109.0910 C.3   402  DC402       0.1753
     46  O4'       26.6670   94.8930  110.0570 O.3   402  DC402      -0.3510
     47  C3'       26.1290   96.0340  108.0640 C.3   402  DC402       0.1839
     48  O3'       26.0210   97.3370  108.6380 O.3   402  DC402      -0.2204
     49  C2'       27.6150   95.7300  108.0670 C.3   402  DC402       0.0676
     50  C1'       27.8690   95.4590  109.5440 C.3   402  DC402       0.1450
@<TRIPOS>BOND
     1    17    16    1
     2    16    15    2
     3    16    18    2
     4    41    40    2
     5    15    13    2
     6    33    32    2
     7    18    19    2
     8    14    13    2
     9    13    12    1
    10    28    40    1
    11    28    27    1
    12    32    34    2
    13    32    31   am
    14    40    43    1
    15    40    42    1
    16    26    30    1
    17    26    25    1
    18    34    35    2
    19    30    31    1
    20    30    29    1
    21    25    27    1
    22    25    24    1
    23    19    12    1
    24    19     9    1
    25    12    11    2
    26    31    39    1
    27    43    44    1
    28    27    29    1
    29    47    49    1
    30    47    48    1
    31    47    45    1
    32    49    50    1
    33    24    23    1
    34    44    45    1
    35    35    36    2
    36    35    37    1
    37     9     8    1
    38     9    10    1
    39     8     4    1
    40     8     7    1
    41     4     3    1
    42    11    10    1
    43    39    37    2
    44    45    46    1
    45    37    38    1
    46    50    46    1
    47    23    20    1
    48     6    20    1
    49     6     5    1
    50     3     5    1
    51     3     2    1
    52     7     5    1
    53    21    20    2
    54    20    22    1
    55     2     1    1
