@<TRIPOS>MOLECULE
1rrf_GDP_A_1.pdb
 28 30 0 0 0
SMALL
GASTEIGER

@<TRIPOS>ATOM
      1  PB         7.1260    7.0420   10.0790 P.3   183  GDP183      0.5373
      2  O1B        7.5010    6.0750    8.8790 O.2   183  GDP183     -0.2221
      3  O2B        7.5530    6.3950   11.3840 O.3   183  GDP183     -0.1143
      4  O3B        5.5790    6.9380   10.0940 O.3   183  GDP183     -0.1143
      5  O3A        7.7100    8.4920   10.0180 O.3   183  GDP183     -0.2261
      6  PA         7.9530    9.4460    8.7680 P.3   183  GDP183      0.2231
      7  O1A        9.4880    9.7210    8.6480 O.3   183  GDP183     -0.4370
      8  O2A        7.2240    8.7880    7.5800 O.2   183  GDP183     -0.5169
      9  O5'        7.1020   10.7280    9.3220 O.3   183  GDP183     -0.3111
     10  C5'        7.6580   11.7150   10.0780 C.3   183  GDP183      0.1813
     11  C4'        7.0640   13.0450    9.7540 C.3   183  GDP183      0.1799
     12  O4'        7.8210   13.9670   10.5750 O.3   183  GDP183     -0.3326
     13  C3'        7.2590   13.5200    8.2890 C.3   183  GDP183      0.2158
     14  O3'        6.4410   14.7010    7.8660 O.3   183  GDP183     -0.2175
     15  C2'        8.7120   13.8160    8.4080 C.3   183  GDP183      0.2310
     16  O2'        8.9870   14.8150    7.4460 O.3   183  GDP183     -0.2158
     17  C1'        8.9450   14.3980    9.8190 C.3   183  GDP183      0.2293
     18  N9        10.2350   13.9100   10.4560 N.pl3 183  GDP183     -0.2354
     19  C8        10.8110   12.6440   10.5620 C.3   183  GDP183      0.2246
     20  N7        12.0460   12.7040   11.0120 N.2   183  GDP183     -0.2322
     21  C5        12.1710   13.9950   11.4460 C.2   183  GDP183      0.2182
     22  C6        13.2460   14.5720   12.0770 C.1   183  GDP183      0.2372
     23  O6        14.2630   13.9720   12.4190 O.2   183  GDP183     -0.2069
     24  N1        13.0990   15.9460   12.2910 N.2   183  GDP183     -0.2485
     25  C2        11.9660   16.6670   11.9940 C.1   183  GDP183      0.2531
     26  N2        11.9670   17.9980   12.2700 N.pl3 183  GDP183     -0.0226
     27  N3        10.8810   16.0840   11.4650 N.2   183  GDP183     -0.3074
     28  C4        11.0880   14.7480   11.1560 C.2   183  GDP183      0.2300
@<TRIPOS>BOND
     1    16    15    1
     2     8     6    2
     3    14    13    1
     4    13    15    1
     5    13    11    1
     6    15    17    1
     7     7     6    1
     8     6     9    1
     9     6     5    1
    10     2     1    2
    11     9    10    1
    12    11    10    1
    13    11    12    1
    14    17    18    1
    15    17    12    1
    16     5     1    1
    17     1     4    1
    18     1     3    1
    19    18    19    1
    20    18    28    1
    21    19    20    1
    22    20    21    2
    23    28    21    1
    24    28    27    2
    25    21    22    1
    26    27    25    2
    27    25    26    1
    28    25    24    2
    29    22    24    2
    30    22    23    2
