@<TRIPOS>MOLECULE
1rrg_GDP_A_1.pdb
 28 30 0 0 0
SMALL
GASTEIGER

@<TRIPOS>ATOM
      1  PB        -3.5720   -2.5510   15.4910 P.3   183  GDP183      0.5373
      2  O1B       -3.5020   -4.0880   15.6960 O.2   183  GDP183     -0.2221
      3  O2B       -2.3250   -1.8790   15.8990 O.3   183  GDP183     -0.1143
      4  O3B       -4.7410   -2.0690   16.3170 O.3   183  GDP183     -0.1143
      5  O3A       -3.9780   -2.1380   14.0400 O.3   183  GDP183     -0.2261
      6  PA        -4.4370   -2.5260   12.6280 P.3   183  GDP183      0.2231
      7  O1A       -3.5250   -3.4030   11.8660 O.2   183  GDP183     -0.5169
      8  O2A       -5.8150   -3.2280   12.7950 O.3   183  GDP183     -0.4370
      9  O5'       -4.5250   -1.2130   11.8080 O.3   183  GDP183     -0.3111
     10  C5'       -5.2590   -0.0730   12.1780 C.3   183  GDP183      0.1813
     11  C4'       -5.8540    0.5680   10.8940 C.3   183  GDP183      0.1799
     12  O4'       -4.7570    1.2960   10.2630 O.3   183  GDP183     -0.3326
     13  C3'       -6.3120   -0.4570    9.7720 C.3   183  GDP183      0.2158
     14  O3'       -7.6030   -0.0380    9.2460 O.3   183  GDP183     -0.2175
     15  C2'       -5.1730   -0.5500    8.7100 C.3   183  GDP183      0.2310
     16  O2'       -5.6180   -1.2520    7.4780 O.3   183  GDP183     -0.2158
     17  C1'       -4.5130    0.8780    8.8520 C.3   183  GDP183      0.2293
     18  N9        -3.0110    0.7510    8.5710 N.pl3 183  GDP183     -0.2354
     19  C8        -2.0690   -0.1330    9.0450 C.3   183  GDP183      0.2246
     20  N7        -0.8410    0.0670    8.5520 N.2   183  GDP183     -0.2322
     21  C5        -1.0230    1.1490    7.7090 C.2   183  GDP183      0.2182
     22  C6        -0.1200    1.8550    6.9170 C.1   183  GDP183      0.2372
     23  O6         1.0850    1.6530    6.8460 O.2   183  GDP183     -0.2069
     24  N1        -0.6770    2.8860    6.2140 N.2   183  GDP183     -0.2485
     25  C2        -1.9500    3.2410    6.2360 C.1   183  GDP183      0.2531
     26  N2        -2.3610    4.3370    5.4840 N.pl3 183  GDP183     -0.0226
     27  N3        -2.8200    2.5970    6.9810 N.2   183  GDP183     -0.3074
     28  C4        -2.3450    1.5710    7.7050 C.2   183  GDP183      0.2300
@<TRIPOS>BOND
     1    26    25    1
     2    24    25    2
     3    24    22    2
     4    25    27    2
     5    23    22    2
     6    22    21    1
     7    27    28    2
     8    16    15    1
     9    28    21    1
    10    28    18    1
    11    21    20    2
    12    20    19    1
    13    18    17    1
    14    18    19    1
    15    15    17    1
    16    15    13    1
    17    17    12    1
    18    14    13    1
    19    13    11    1
    20    12    11    1
    21    11    10    1
    22     9    10    1
    23     9     6    1
    24     7     6    2
    25     6     8    1
    26     6     5    1
    27     5     1    1
    28     1     2    2
    29     1     3    1
    30     1     4    1
