@<TRIPOS>MOLECULE
1rri_A45_A_1.pdb
 20 22 0 0 0
SMALL
GASTEIGER

@<TRIPOS>ATOM
      1  N1        33.6210   53.8810   59.9950 N.pl3 1001  A451001    -0.0220
      2  C2        33.9020   54.6570   61.0760 C.1   1001  A451001     0.2609
      3  N3        32.8320   55.2340   61.8070 N.2   1001  A451001    -0.2474
      4  C4        33.0410   56.0220   62.8790 C.1   1001  A451001     0.2461
      5  O5        31.9550   56.5550   63.5550 O.2   1001  A451001    -0.2062
      6  C6        34.4390   56.3120   63.3390 C.2   1001  A451001     0.2701
      7  N7        34.9830   57.0220   64.3210 N.2   1001  A451001    -0.1321
      8  N8        36.4280   56.8950   64.2220 N.pl3 1001  A451001    -0.0992
      9  N9        36.6930   56.0340   63.0620 N.2   1001  A451001    -0.0877
     10  C10       35.5350   55.6770   62.5290 C.1   1001  A451001     0.1501
     11  N11       35.1740   54.8640   61.4100 N.2   1001  A451001    -0.2666
     12  C12       37.3970   57.4810   65.0740 C.ar  1001  A451001     0.0945
     13  C13       37.8380   58.8170   64.8420 C.ar  1001  A451001     0.0185
     14  C14       38.8160   59.4120   65.7150 C.ar  1001  A451001     0.0016
     15  C15       39.3710   58.6590   66.8000 C.ar  1001  A451001     0.0067
     16  C16       38.9310   57.3150   67.0280 C.ar  1001  A451001     0.0811
     17  C17       37.9480   56.7260   66.1610 C.ar  1001  A451001     0.0250
     18  C18       39.4900   56.5200   68.1520 C.2   1001  A451001     0.3878
     19  O19       39.1090   55.3760   68.3510 O.co2 1001  A451001    -0.2406
     20  O20       40.4020   57.0410   68.9520 O.co2 1001  A451001    -0.2406
@<TRIPOS>BOND
     1     1     2    1
     2     2    11    2
     3     2     3    2
     4    11    10    2
     5     3     4    2
     6    10     9    2
     7    10     6    1
     8     4     6    1
     9     4     5    2
    10     9     8    1
    11     6     7    2
    12     8     7    1
    13     8    12    1
    14    13    12   ar
    15    13    14   ar
    16    12    17   ar
    17    14    15   ar
    18    17    16   ar
    19    15    16   ar
    20    16    18    1
    21    18    19   ar
    22    18    20   ar
