@<TRIPOS>MOLECULE
1rrj_TTG_B_1.pdb
 32 35 0 0 0
SMALL
GASTEIGER

@<TRIPOS>ATOM
      1  C25        6.1680    0.3410    7.8720 C.3   991  TTG991      0.0459
      2  C31        7.1490   -0.4000    7.0120 C.3   991  TTG991      0.0036
      3  C21        5.8830   -0.2300    9.2780 C.3   991  TTG991      0.2375
      4  O24        7.0680   -0.7050    9.8580 O.3   991  TTG991     -0.2096
      5  C16        4.7760   -1.4340    9.0930 C.ar  991  TTG991      0.0200
      6  C20        5.3870    0.8670   10.2480 C.2   991  TTG991      0.3955
      7  C15        3.3710   -1.2750    8.8580 C.ar  991  TTG991      0.0656
      8  C17        5.1780   -2.8040    9.1490 C.ar  991  TTG991      0.0184
      9  O23        5.2790    0.6400   11.4480 O.co2 991  TTG991     -0.2426
     10  O22        5.1320    2.0900    9.8400 O.co2 991  TTG991     -0.2426
     11  C14        2.4240   -2.5460    8.7060 C.ar  991  TTG991      0.2594
     12  C19        2.6890    0.1150    8.7420 C.3   991  TTG991      0.2131
     13  C13        4.3270   -3.9100    9.0230 C.ar  991  TTG991      0.0918
     14  O18        1.2210   -2.4460    8.5100 O.2   991  TTG991     -0.2672
     15  N12        3.0010   -3.7690    8.8070 N.ar  991  TTG991     -0.2891
     16  C9         4.6490   -5.2690    9.1080 C.2   991  TTG991      0.1443
     17  C11        2.2660   -5.1040    8.7190 C.3   991  TTG991      0.1381
     18  C8         3.4080   -6.0650    8.9320 C.2   991  TTG991      0.0280
     19  N10        5.8180   -5.8450    9.3350 N.2   991  TTG991     -0.4044
     20  C7         3.4490   -7.4250    8.9860 C.2   991  TTG991     -0.0150
     21  C5         5.8750   -7.2620    9.4140 C.2   991  TTG991      0.1167
     22  C6         4.7080   -8.0910    9.2410 C.3   991  TTG991      0.0967
     23  C4         7.0800   -7.8320    9.6770 C.2   991  TTG991      0.0314
     24  C1         4.8370   -9.5330    9.3370 C.2   991  TTG991      0.0210
     25  C3         7.2180   -9.2560    9.7790 C.2   991  TTG991      0.0437
     26  C2         6.1110  -10.1040    9.6060 C.2   991  TTG991      0.1899
     27  C27        3.6690  -10.5280    9.1670 C.3   991  TTG991      0.0988
     28  N28        2.9840  -11.0270   10.4130 N.3   991  TTG991     -0.2667
     29  C29        1.9580  -10.0640   10.9860 C.3   991  TTG991      0.0899
     30  C30        2.3590  -12.3570   10.1490 C.3   991  TTG991      0.0899
     31  O26        6.2870  -11.4800    9.6940 O.2   991  TTG991     -0.2872
     32  O19        1.8610    0.4380    9.8390 O.3   991  TTG991     -0.2150
@<TRIPOS>BOND
     1     2     1    1
     2     1     3    1
     3    14    11    2
     4    11    15   ar
     5    11     7   ar
     6    17    15    1
     7    17    18    1
     8    12     7    1
     9    12    32    1
    10    15    13   ar
    11     7     5   ar
    12    18    20    2
    13    18    16    1
    14    20    22    1
    15    13    16    1
    16    13     8   ar
    17     5     8   ar
    18     5     3    1
    19    16    19    2
    20    27    24    1
    21    27    28    1
    22    22    24    1
    23    22    21    1
    24     3     4    1
    25     3     6    1
    26    19    21    2
    27    24    26    2
    28    21    23    1
    29    26    31    1
    30    26    25    1
    31    23    25    2
    32    10     6   ar
    33    30    28    1
    34     6     9   ar
    35    28    29    1
