@<TRIPOS>MOLECULE
1rrj_TTC_B_1.pdb
 31 35 0 0 0
SMALL
GASTEIGER

@<TRIPOS>ATOM
      1  C25        6.4330    0.2090    8.2050 C.3   990  TTC990      0.0458
      2  C31        7.3810   -0.7710    7.4850 C.3   990  TTC990      0.0036
      3  C21        5.8820   -0.2490    9.6110 C.3   990  TTC990      0.2334
      4  O24        6.9730   -0.5950   10.4790 O.3   990  TTC990     -0.2097
      5  C16        4.8760   -1.4580    9.4010 C.ar  990  TTC990      0.0209
      6  C20        5.0220    0.9310   10.3380 C.2   990  TTC990      0.3490
      7  C15        3.5150   -1.2850    9.2180 C.ar  990  TTC990      0.0763
      8  C17        5.2900   -2.8050    9.4220 C.ar  990  TTC990      0.0184
      9  O23        5.5400    1.7400   11.1240 O.2   990  TTC990     -0.2470
     10  O22        3.7570    1.0610   10.1180 O.3   990  TTC990     -0.4414
     11  C14        2.5360   -2.4570    9.0470 C.ar  990  TTC990      0.2604
     12  C19        2.9930    0.1570    9.2010 C.3   990  TTC990      0.2396
     13  C13        4.4110   -3.8920    9.2720 C.ar  990  TTC990      0.0919
     14  O18        1.3380   -2.3080    8.8970 O.2   990  TTC990     -0.2672
     15  N12        3.0830   -3.7270    9.1040 N.ar  990  TTC990     -0.2891
     16  C9         4.7100   -5.2690    9.3090 C.2   990  TTC990      0.1445
     17  C11        2.3350   -5.0370    8.9870 C.3   990  TTC990      0.1384
     18  C8         3.4670   -6.0420    9.1390 C.2   990  TTC990      0.0316
     19  N10        5.8990   -5.8890    9.4700 N.2   990  TTC990     -0.4047
     20  C7         3.4980   -7.4060    9.1560 C.2   990  TTC990      0.0022
     21  C5         5.9480   -7.3090    9.4980 C.2   990  TTC990      0.1133
     22  C6         4.7640   -8.1000    9.3440 C.2   990  TTC990      0.0260
     23  C4         7.1920   -7.8970    9.6920 C.3   990  TTC990      0.0882
     24  C1         4.8720   -9.5350    9.4040 C.2   990  TTC990      0.0346
     25  C3         7.3010   -9.3060    9.7500 C.2   990  TTC990      0.0230
     26  C2         6.1630  -10.1200    9.6090 C.2   990  TTC990      0.1893
     27  C27        3.6610  -10.5020    9.2710 C.3   990  TTC990      0.1025
     28  N28        3.0320  -10.9090   10.5670 N.3   990  TTC990     -0.2664
     29  C29        1.8410  -10.0520   10.9050 C.3   990  TTC990      0.0899
     30  C30        2.6250  -12.3420   10.5340 C.3   990  TTC990      0.0899
     31  O26        6.3900  -11.4610    9.6930 O.2   990  TTC990     -0.2872
@<TRIPOS>BOND
     1     2     1    1
     2     1     3    1
     3    14    11    2
     4    17    15    1
     5    17    18    1
     6    11    15   ar
     7    11     7   ar
     8    15    13   ar
     9    18    20    2
    10    18    16    1
    11    20    22    1
    12    12     7    1
    13    12    10    1
    14     7     5   ar
    15    27    24    1
    16    27    28    1
    17    13    16    1
    18    13     8   ar
    19    16    19    2
    20    22    24    2
    21    22    21    1
    22     5     8   ar
    23     5     3    1
    24    24    26    1
    25    19    21    2
    26    21    23    1
    27    26    31    1
    28    26    25    2
    29     3     6    1
    30     3     4    1
    31    23    25    1
    32    10     6    1
    33     6     9    2
    34    30    28    1
    35    28    29    1
