@<TRIPOS>MOLECULE
1rrm_APR_A_1.pdb
 36 39 0 0 0
SMALL
GASTEIGER

@<TRIPOS>ATOM
      1  N1        58.5910   -4.0160   17.0550 N.2   389  APR389      0.0021
      2  C2        59.3700   -3.5970   15.9840 C.3   389  APR389      0.5254
      3  N3        60.0810   -2.5080   15.8950 N.2   389  APR389     -0.0055
      4  C4        60.0010   -1.7390   17.0350 C.2   389  APR389      0.3518
      5  C5        59.2760   -2.0030   18.1930 C.2   389  APR389      0.2526
      6  C6        58.5240   -3.2220   18.2000 C.2   389  APR389      0.4393
      7  N6        57.7800   -3.6310   19.2210 N.pl3 389  APR389      0.2180
      8  N7        59.4450   -0.9880   19.1240 N.2   389  APR389     -0.2095
      9  C8        60.2680   -0.1170   18.5280 C.3   389  APR389      0.3377
     10  N9        60.6310   -0.5240   17.2650 N.pl3 389  APR389     -0.1439
     11  C1'       61.5040    0.1040   16.2660 C.3   389  APR389      0.3186
     12  C2'       61.1670    1.5490   15.9890 C.3   389  APR389      0.2570
     13  O2'       60.0870    1.7160   15.0560 O.3   389  APR389     -0.2130
     14  C3'       62.4890    2.1160   15.4590 C.3   389  APR389      0.2184
     15  O3'       62.7450    1.9400   14.0490 O.3   389  APR389     -0.2174
     16  O4'       62.8160    0.1360   16.7490 O.3   389  APR389     -0.3135
     17  C4'       63.5140    1.3370   16.2960 C.3   389  APR389      0.1821
     18  C5'       64.1030    2.0640   17.4960 C.3   389  APR389      0.1813
     19  O5'       63.0720    2.5810   18.3750 O.3   389  APR389     -0.3112
     20  PA        63.4780    3.6350   19.5240 P.3   389  APR389      0.2189
     21  O1A       62.2630    4.1770   20.1670 O.3   389  APR389     -0.4371
     22  O2A       64.2640    4.7480   18.9490 O.2   389  APR389     -0.5170
     23  O3A       64.3460    2.7620   20.4840 O.3   389  APR389     -0.2703
     24  PB        64.4510    2.6710   22.1300 P.3   389  APR389      0.2189
     25  O1B       65.6190    1.8510   22.5110 O.2   389  APR389     -0.5170
     26  O2B       63.1890    2.0820   22.6110 O.3   389  APR389     -0.4371
     27  O5D       64.5790    4.1830   22.5420 O.3   389  APR389     -0.3112
     28  C5D       65.7730    4.8620   22.2140 C.3   389  APR389      0.1813
     29  O4D       65.3670    6.3690   24.0790 O.3   389  APR389     -0.3237
     30  O1D       66.5430    6.6930   26.0770 O.3   389  APR389     -0.1869
     31  C1D       66.3110    7.1800   24.7100 C.3   389  APR389      0.3023
     32  O2D       68.4560    8.1930   23.9560 O.3   389  APR389     -0.2148
     33  C2D       67.5400    7.0890   23.8370 C.3   389  APR389      0.2433
     34  O3D       66.7380    8.4010   21.8690 O.3   389  APR389     -0.2175
     35  C3D       66.9390    7.0880   22.4280 C.3   389  APR389      0.2168
     36  C4D       65.6810    6.2760   22.6710 C.3   389  APR389      0.1807
@<TRIPOS>BOND
     1    15    14    1
     2    13    12    1
     3    14    12    1
     4    14    17    1
     5     3     2    1
     6     3     4    2
     7     2     1    1
     8    12    11    1
     9    11    16    1
    10    11    10    1
    11    17    16    1
    12    17    18    1
    13     4    10    1
    14     4     5    1
    15     1     6    2
    16    10     9    1
    17    18    19    1
    18     5     6    1
    19     5     8    2
    20     6     7    1
    21    19    20    1
    22     9     8    1
    23    22    20    2
    24    20    21    1
    25    20    23    1
    26    23    24    1
    27    34    35    1
    28    24    25    2
    29    24    27    1
    30    24    26    1
    31    28    27    1
    32    28    36    1
    33    35    36    1
    34    35    33    1
    35    36    29    1
    36    33    32    1
    37    33    31    1
    38    29    31    1
    39    31    30    1
