@<TRIPOS>MOLECULE
1rrp_GNP_A_1.pdb
 32 34 0 0 0
SMALL
GASTEIGER

@<TRIPOS>ATOM
      1  PG        19.2360   -7.0860   21.0010 P.3   250  GNP250      0.4884
      2  O1G       20.2550   -7.7730   21.7680 O.3   250  GNP250     -0.1240
      3  O2G       18.8600   -5.8130   21.6440 O.3   250  GNP250     -0.1240
      4  O3G       17.9850   -7.9700   21.1500 O.2   250  GNP250     -0.2331
      5  N3B       19.5830   -6.9710   19.4230 N.3   250  GNP250     -0.0163
      6  PB        19.8410   -5.5400   18.6840 P.3   250  GNP250      0.4669
      7  O1B       19.2330   -5.4370   17.3740 O.2   250  GNP250     -0.2351
      8  O2B       19.5560   -4.3710   19.5270 O.3   250  GNP250     -0.1253
      9  O3A       21.4230   -5.4910   18.4180 O.3   250  GNP250     -0.2360
     10  PA        22.3580   -4.2160   18.0590 P.3   250  GNP250      0.2220
     11  O1A       21.4960   -3.0210   17.8560 O.2   250  GNP250     -0.5170
     12  O2A       23.5000   -4.1090   19.0300 O.3   250  GNP250     -0.4370
     13  O5'       22.9030   -4.7100   16.6260 O.3   250  GNP250     -0.3111
     14  C5'       24.0930   -5.5350   16.5670 C.3   250  GNP250      0.1813
     15  C4'       25.0490   -5.0370   15.4780 C.3   250  GNP250      0.1799
     16  O4'       24.3020   -4.3920   14.4580 O.3   250  GNP250     -0.3326
     17  C3'       26.0930   -4.0200   15.9710 C.3   250  GNP250      0.2158
     18  O3'       27.3910   -4.6140   15.9120 O.3   250  GNP250     -0.2175
     19  C2'       26.0000   -2.8620   14.9370 C.3   250  GNP250      0.2310
     20  O2'       27.2980   -2.5140   14.4350 O.3   250  GNP250     -0.2158
     21  C1'       25.1790   -3.4870   13.8100 C.3   250  GNP250      0.2293
     22  N9        24.3960   -2.4700   13.0740 N.pl3 250  GNP250     -0.2354
     23  C8        23.1650   -1.9120   13.4090 C.3   250  GNP250      0.2246
     24  N7        22.4390   -1.5550   12.4050 N.2   250  GNP250     -0.2322
     25  C5        23.3130   -1.6760   11.3100 C.2   250  GNP250      0.2182
     26  C6        23.1570   -1.3510    9.8910 C.1   250  GNP250      0.2372
     27  O6        22.2640   -0.7030    9.3250 O.2   250  GNP250     -0.2069
     28  N1        24.2010   -1.8800    9.1230 N.2   250  GNP250     -0.2485
     29  C2        25.4500   -2.1510    9.6220 C.1   250  GNP250      0.2531
     30  N2        26.5140   -2.1040    8.7970 N.pl3 250  GNP250     -0.0226
     31  N3        25.6440   -2.4460   10.9510 N.2   250  GNP250     -0.3074
     32  C4        24.5290   -2.2120   11.7270 C.2   250  GNP250      0.2300
@<TRIPOS>BOND
     1    30    29    1
     2    28    29    2
     3    28    26    2
     4    27    26    2
     5    29    31    2
     6    26    25    1
     7    31    32    2
     8    25    32    1
     9    25    24    2
    10    32    22    1
    11    24    23    1
    12    22    23    1
    13    22    21    1
    14    21    16    1
    15    21    19    1
    16    20    19    1
    17    16    15    1
    18    19    17    1
    19    15    17    1
    20    15    14    1
    21    18    17    1
    22    14    13    1
    23    13    10    1
    24     7     6    2
    25    11    10    2
    26    10     9    1
    27    10    12    1
    28     9     6    1
    29     6     5    1
    30     6     8    1
    31     5     1    1
    32     1     4    2
    33     1     3    1
    34     1     2    1
