@<TRIPOS>MOLECULE
1rrv_BGC_C_1.pdb
 11 11 0 0 0
SMALL
GASTEIGER

@<TRIPOS>ATOM
      1  C2        23.9010   32.9120  129.4960 C.3     8  BGC8        0.2141
      2  C3        24.6400   34.2200  129.7270 C.3     8  BGC8        0.2173
      3  C4        23.6020   35.2280  130.3310 C.3     8  BGC8        0.2142
      4  C5        22.9520   34.5580  131.5500 C.3     8  BGC8        0.1810
      5  C6        21.8520   35.4080  132.2830 C.3     8  BGC8        0.2141
      6  C1        23.2520   32.4010  130.7260 C.3     8  BGC8        0.1777
      7  O2        24.8400   31.9460  128.9960 O.3     8  BGC8       -0.2176
      8  O3        25.2320   34.7240  128.5520 O.3     8  BGC8       -0.2175
      9  O4        24.2240   36.4460  130.7380 O.3     8  BGC8       -0.2176
     10  O5        22.3140   33.3460  131.1590 O.3     8  BGC8       -0.3481
     11  O6        21.4990   35.3570  133.6040 O.3     8  BGC8       -0.2176
@<TRIPOS>BOND
     1     8     2    1
     2     7     1    1
     3     1     2    1
     4     1     6    1
     5     2     3    1
     6     3     9    1
     7     3     4    1
     8     6    10    1
     9    10     4    1
    10     4     5    1
    11     5    11    1
