@<TRIPOS>MOLECULE
1rrv_TYD_A_1.pdb
 25 26 0 0 0
SMALL
GASTEIGER

@<TRIPOS>ATOM
      1  PA        27.4050   28.2140  122.5910 P.3   1003  TYD1003     0.2231
      2  O1A       27.6510   29.6770  122.6190 O.3   1003  TYD1003    -0.4370
      3  O2A       26.4560   27.6810  121.5830 O.2   1003  TYD1003    -0.5169
      4  O3A       26.9000   27.7820  124.0780 O.3   1003  TYD1003    -0.2261
      5  PB        25.4810   27.3610  124.7630 P.3   1003  TYD1003     0.5373
      6  O1B       25.7830   27.1490  126.2320 O.3   1003  TYD1003    -0.1143
      7  O2B       25.0550   26.1010  124.0460 O.2   1003  TYD1003    -0.2221
      8  O3B       24.5350   28.5220  124.5200 O.3   1003  TYD1003    -0.1143
      9  O5'       28.7500   27.3910  122.2850 O.3   1003  TYD1003    -0.3111
     10  C5'       29.9130   27.4750  123.1030 C.3   1003  TYD1003     0.1812
     11  C4'       31.0300   26.5950  122.5410 C.3   1003  TYD1003     0.1773
     12  O4'       30.7810   25.1850  122.7160 O.3   1003  TYD1003    -0.3339
     13  C3'       31.2620   26.6970  121.0420 C.3   1003  TYD1003     0.1857
     14  O3'       32.1630   27.7630  120.7730 O.3   1003  TYD1003    -0.2203
     15  C2'       31.9260   25.3650  120.6630 C.3   1003  TYD1003     0.0874
     16  C1'       31.6940   24.4830  121.8950 C.3   1003  TYD1003     0.2090
     17  N1        31.1680   23.1260  121.6080 N.am  1003  TYD1003    -0.1794
     18  C2        32.0540   22.1970  121.0780 C.1   1003  TYD1003     0.2844
     19  O2        33.1320   22.4970  120.5930 O.2   1003  TYD1003    -0.1918
     20  N3        31.6250   20.9000  121.1330 N.2   1003  TYD1003    -0.2455
     21  C4        30.4360   20.4320  121.6490 C.1   1003  TYD1003     0.2134
     22  O4        30.1950   19.2260  121.6290 O.2   1003  TYD1003    -0.2088
     23  C5        29.5520   21.4510  122.1840 C.2   1003  TYD1003     0.0891
     24  C5M       28.2360   21.0400  122.7680 C.3   1003  TYD1003     0.0462
     25  C6        29.9570   22.7280  122.1310 C.2   1003  TYD1003     0.0877
@<TRIPOS>BOND
     1    19    18    2
     2    15    13    1
     3    15    16    1
     4    14    13    1
     5    13    11    1
     6    18    20    2
     7    18    17   am
     8    20    21    2
     9     3     1    2
    10    17    16    1
    11    17    25    1
    12    22    21    2
    13    21    23    1
    14    16    12    1
    15    25    23    2
    16    23    24    1
    17     9     1    1
    18     9    10    1
    19    11    12    1
    20    11    10    1
    21     1     2    1
    22     1     4    1
    23     7     5    2
    24     4     5    1
    25     8     5    1
    26     5     6    1
