@<TRIPOS>MOLECULE
1rrw_9MG_A_1.pdb
 12 13 0 0 0
SMALL
GASTEIGER

@<TRIPOS>ATOM
      1  C1        51.2670   45.6840   74.4570 C.3   1001  9MG1001     0.1166
      2  N2        50.0290   46.4900   74.5330 N.pl3 1001  9MG1001    -0.2585
      3  C3        49.6010   47.4500   73.6390 C.3   1001  9MG1001     0.2229
      4  N4        48.4430   47.9600   74.0280 N.2   1001  9MG1001    -0.2323
      5  C5        48.0550   47.3390   75.2220 C.2   1001  9MG1001     0.2181
      6  C6        46.9480   47.4370   76.1020 C.1   1001  9MG1001     0.2372
      7  O7        45.9320   48.3240   75.8400 O.2   1001  9MG1001    -0.2069
      8  N8        46.9150   46.6380   77.2300 N.2   1001  9MG1001    -0.2485
      9  C9        47.9310   45.7480   77.5070 C.1   1001  9MG1001     0.2531
     10  N10       47.8780   44.9530   78.6640 N.pl3 1001  9MG1001    -0.0226
     11  N11       48.9830   45.6350   76.6720 N.2   1001  9MG1001    -0.3075
     12  C12       49.0770   46.3980   75.5520 C.2   1001  9MG1001     0.2283
@<TRIPOS>BOND
     1     3     4    1
     2     3     2    1
     3     4     5    2
     4     1     2    1
     5     2    12    1
     6     5    12    1
     7     5     6    1
     8    12    11    2
     9     7     6    2
    10     6     8    2
    11    11     9    2
    12     8     9    2
    13     9    10    1
