@<TRIPOS>MOLECULE
1rry_204_A_1.pdb
 13 13 0 0 0
SMALL
GASTEIGER

@<TRIPOS>ATOM
      1  C1        51.3450   47.2590   71.5030 C.3   1001  2041001     0.0513
      2  C2        50.0950   47.8670   72.1010 C.3   1001  2041001     0.2089
      3  O3        49.7930   47.1800   73.3110 O.3   1001  2041001    -0.4449
      4  C4        48.6980   47.5250   74.0390 C.2   1001  2041001     0.3550
      5  O5        47.9600   48.4380   73.6740 O.2   1001  2041001    -0.2440
      6  C6        48.4060   46.7720   75.2910 C.2   1001  2041001     0.1905
      7  C7        49.2530   45.7290   75.7220 C.2   1001  2041001     0.1310
      8  N8        48.9870   45.0360   76.8640 N.2   1001  2041001    -0.1658
      9  C9        47.9040   45.3210   77.6110 C.1   1001  2041001     0.1974
     10  N10       47.6520   44.5870   78.7770 N.pl3 1001  2041001    -0.0339
     11  N11       47.0600   46.3070   77.2340 N.2   1001  2041001    -0.2601
     12  C12       47.2720   47.0460   76.1100 C.1   1001  2041001     0.2228
     13  O13       46.3850   48.0410   75.7740 O.2   1001  2041001    -0.2083
@<TRIPOS>BOND
     1     1     2    1
     2     2     3    1
     3     3     4    1
     4     5     4    2
     5     4     6    1
     6     6     7    2
     7     6    12    1
     8     7     8    1
     9    13    12    2
    10    12    11    2
    11     8     9    2
    12    11     9    2
    13     9    10    1
