@<TRIPOS>MOLECULE
1rs0_DFP_A_1.pdb
 10 9 0 0 0
SMALL
GASTEIGER

@<TRIPOS>ATOM
      1  C1         2.0870   35.7180   -0.4320 C.3   750  DFP750      0.1236
      2  C2         2.0470   37.2610   -0.7680 C.3   750  DFP750      0.0325
      3  C3         3.5440   35.0770   -0.4480 C.3   750  DFP750      0.0325
      4  C1'       -0.4940   33.2040   -3.3390 C.3   750  DFP750      0.1236
      5  C2'       -0.2930   32.6160   -4.7600 C.3   750  DFP750      0.0325
      6  C3'       -1.8850   32.8250   -2.8170 C.3   750  DFP750      0.0325
      7  P          0.0480   35.6380   -2.1440 P.3   750  DFP750      0.3659
      8  O1P        1.2150   34.9580   -1.3250 O.3   750  DFP750     -0.2993
      9  O2P       -0.3250   34.7520   -3.4540 O.3   750  DFP750     -0.2993
     10  O3P        0.4980   37.0610   -2.7050 O.3   750  DFP750     -0.1446
@<TRIPOS>BOND
     1     5     4    1
     2     9     4    1
     3     9     7    1
     4     4     6    1
     5    10     7    1
     6     7     8    1
     7     8     1    1
     8     2     1    1
     9     3     1    1
