@<TRIPOS>MOLECULE
1rs2_209_A_1.pdb
 14 15 0 0 0
SMALL
GASTEIGER

@<TRIPOS>ATOM
      1  N1        48.0840   47.9700   74.0810 N.ar  1001  2091001    -0.2444
      2  C2        47.3250   47.7430   75.2340 C.ar  1001  2091001     0.2991
      3  C3        47.7940   46.7250   76.1850 C.ar  1001  2091001     0.2480
      4  C4        48.9050   46.0440   75.9490 C.ar  1001  2091001     0.2479
      5  N5        49.6740   46.3260   74.7110 N.ar  1001  2091001    -0.2513
      6  C6        49.2610   47.2860   73.7820 C.ar  1001  2091001     0.3358
      7  N7        47.2170   46.2670   77.4540 N.2   1001  2091001    -0.3166
      8  C8        48.0480   45.3130   77.9120 C.1   1001  2091001     0.2432
      9  N9        49.1050   45.0990   77.0690 N.2   1001  2091001    -0.3047
     10  N10       47.8650   44.6400   79.0350 N.pl3 1001  2091001    -0.0232
     11  C11       50.9050   45.5810   74.4290 C.3   1001  2091001     0.1377
     12  C15       47.6260   48.9900   73.1150 C.3   1001  2091001     0.1383
     13  O19       49.9130   47.5100   72.7470 O.2   1001  2091001    -0.2461
     14  O20       46.2750   48.3110   75.5490 O.2   1001  2091001    -0.2638
@<TRIPOS>BOND
     1    13     6    2
     2    12     1    1
     3     6     1   ar
     4     6     5   ar
     5     1     2   ar
     6    11     5    1
     7     5     4   ar
     8     2    14    2
     9     2     3   ar
    10     4     3   ar
    11     4     9    2
    12     3     7    2
    13     9     8    2
    14     7     8    2
    15     8    10    1
