@<TRIPOS>MOLECULE
1rs4_45P_A_1.pdb
 29 32 0 0 0
SMALL
GASTEIGER

@<TRIPOS>ATOM
      1  N1        47.4820   45.1100   78.7760 N.pl3 1001  45P1001    -0.0220
      2  C2        47.8440   45.6230   77.5690 C.1   1001  45P1001     0.2609
      3  N3        46.9410   46.4500   76.8920 N.2   1001  45P1001    -0.2474
      4  C4        47.2390   46.9750   75.7190 C.1   1001  45P1001     0.2461
      5  O5        46.3340   47.7820   75.0800 O.2   1001  45P1001    -0.2062
      6  C6        48.5500   46.6950   75.0920 C.2   1001  45P1001     0.2701
      7  N7        49.1380   47.0530   73.9660 N.2   1001  45P1001    -0.1321
      8  N8        50.4500   46.4380   73.9230 N.pl3 1001  45P1001    -0.0992
      9  N9        50.5800   45.6740   75.1490 N.2   1001  45P1001    -0.0877
     10  C10       49.4700   45.8150   75.8480 C.1   1001  45P1001     0.1501
     11  N11       49.0340   45.3210   77.0830 N.2   1001  45P1001    -0.2666
     12  C12       51.4110   46.5590   72.8920 C.ar  1001  45P1001     0.0944
     13  C13       51.9640   47.8100   72.5940 C.ar  1001  45P1001     0.0185
     14  C14       52.9150   47.9300   71.5730 C.ar  1001  45P1001     0.0015
     15  C15       53.3120   46.8000   70.8510 C.ar  1001  45P1001     0.0047
     16  C16       52.7590   45.5490   71.1480 C.ar  1001  45P1001     0.0564
     17  C17       51.8090   45.4290   72.1690 C.ar  1001  45P1001     0.0230
     18  C18       53.1800   44.3530   70.3840 C.2   1001  45P1001     0.2651
     19  O19       53.8670   44.4790   69.3730 O.2   1001  45P1001    -0.2684
     20  N20       52.8140   43.1410   70.7930 N.am  1001  45P1001    -0.1968
     21  C21       53.2900   41.9490   70.0760 C.3   1001  45P1001     0.1419
     22  C22       54.7970   41.9820   69.9900 C.ar  1001  45P1001     0.0011
     23  C23       55.4280   41.9550   68.7400 C.ar  1001  45P1001     0.0089
     24  C24       56.8240   41.9870   68.6590 C.ar  1001  45P1001     0.0583
     25 CL1        57.6080   41.9530   67.1060 Cl    1001  45P1001    -0.0822
     26  C26       57.5920   42.0450   69.8300 C.ar  1001  45P1001     0.0228
     27  C27       56.9620   42.0720   71.0790 C.ar  1001  45P1001     0.0583
     28 CL2        57.9150   42.1450   72.5330 Cl    1001  45P1001    -0.0822
     29  C29       55.5640   42.0400   71.1600 C.ar  1001  45P1001     0.0089
@<TRIPOS>BOND
     1    25    24    1
     2    24    23   ar
     3    24    26   ar
     4    23    22   ar
     5    19    18    2
     6    26    27   ar
     7    22    21    1
     8    22    29   ar
     9    21    20    1
    10    18    20   am
    11    18    16    1
    12    15    16   ar
    13    15    14   ar
    14    27    29   ar
    15    27    28    1
    16    16    17   ar
    17    14    13   ar
    18    17    12   ar
    19    13    12   ar
    20    12     8    1
    21     8     7    1
    22     8     9    1
    23     7     6    2
    24     5     4    2
    25     6     4    1
    26     6    10    1
    27     9    10    2
    28     4     3    2
    29    10    11    2
    30     3     2    2
    31    11     2    2
    32     2     1    1
