@<TRIPOS>MOLECULE
1rs6_H4B_A_1.pdb
 17 18 0 0 0
SMALL
GASTEIGER

@<TRIPOS>ATOM
      1  N1         9.9020    2.6830   33.9230 N.2   760  H4B760     -0.2683
      2  C2        10.0580    2.3110   32.6330 C.1   760  H4B760      0.2608
      3  N2        11.2590    2.1860   32.0640 N.pl3 760  H4B760     -0.0220
      4  N3         8.9350    2.0700   31.9160 N.2   760  H4B760     -0.2474
      5  C4         7.5910    2.1860   32.4230 C.1   760  H4B760      0.2441
      6  O4         6.6420    1.9400   31.6730 O.2   760  H4B760     -0.2063
      7  C4A        7.5220    2.5910   33.7720 C.2   760  H4B760      0.2463
      8  C8A        8.6530    2.8320   34.5260 C.1   760  H4B760      0.1270
      9  N5         6.1700    2.7610   34.3660 N.2   760  H4B760     -0.2460
     10  N8         8.5950    3.2100   35.8170 N.2   760  H4B760     -0.2054
     11  C6         6.1800    3.7670   35.5370 C.3   760  H4B760      0.1627
     12  C7         7.3080    3.3780   36.4890 C.3   760  H4B760      0.1643
     13  C9         4.7770    3.7440   36.1990 C.3   760  H4B760      0.2063
     14  O9         4.3720    2.4560   36.6570 O.3   760  H4B760     -0.2183
     15  C10        4.6770    4.7380   37.3990 C.3   760  H4B760      0.1842
     16  C11        3.2860    4.8720   37.9030 C.3   760  H4B760      0.0383
     17  O10        5.1150    6.0020   36.8840 O.3   760  H4B760     -0.2204
@<TRIPOS>BOND
     1     6     5    2
     2     4     5    2
     3     4     2    2
     4     3     2    1
     5     5     7    1
     6     2     1    2
     7     7     9    2
     8     7     8    1
     9     1     8    2
    10     9    11    1
    11     8    10    2
    12    11    13    1
    13    11    12    1
    14    10    12    1
    15    13    14    1
    16    13    15    1
    17    17    15    1
    18    15    16    1
