@<TRIPOS>MOLECULE
1rs6_DP2_A_1.pdb
 24 23 0 0 0
SMALL
GASTEIGER

@<TRIPOS>ATOM
      1  N1        14.7060    1.5240   21.2090 N.pl3 792  DP2792      0.2221
      2  O2        14.3980    2.1120   20.1280 O.2   792  DP2792     -0.0910
      3  O3        15.7830    0.8190   21.2770 O.2   792  DP2792     -0.0910
      4  N          7.0220    2.6080   25.5360 N.am  792  DP2792     -0.1965
      5  CA         7.8570    1.6470   24.7700 C.3   792  DP2792      0.1745
      6  C          7.1420    1.1880   23.4870 C.2   792  DP2792      0.2806
      7  N2         6.7090    2.0820   22.5880 N.am  792  DP2792     -0.0863
      8  O          6.9350    0.0170   23.2510 O.2   792  DP2792     -0.2698
      9  CB         9.1920    2.3000   24.4120 C.3   792  DP2792      0.0349
     10  CG        10.2750    1.2720   24.0670 C.3   792  DP2792      0.0492
     11  CD        11.6420    1.9790   23.9780 C.3   792  DP2792      0.2204
     12  NE        12.7080    0.9690   24.0880 N.pl3 792  DP2792     -0.0874
     13  CZ        13.7450    0.8380   23.2900 C.cat 792  DP2792      0.5245
     14  NH1       13.8850    1.6840   22.2670 N.pl3 792  DP2792      0.1075
     15  NH2       14.6310   -0.1530   23.5450 N.pl3 792  DP2792      0.1343
     16  N'         4.4020    2.6130   28.1000 N.3   792  DP2792     -0.1231
     17  CA'        5.0350    3.2790   26.9100 C.3   792  DP2792      0.1693
     18  C'         5.8260    2.2330   26.1040 C.2   792  DP2792      0.2592
     19  O'         5.4140    1.0510   25.9770 O.2   792  DP2792     -0.2718
     20  CB'        3.9160    3.9620   26.0870 C.3   792  DP2792      0.0285
     21  CG'        3.0940    5.0310   26.8570 C.3   792  DP2792      0.0035
     22  CD'        2.8600    6.2510   25.9580 C.3   792  DP2792      0.0206
     23  CE'        1.7810    7.2060   26.5160 C.3   792  DP2792      0.1093
     24  NZ'        0.9370    7.6330   25.3780 N.3   792  DP2792     -0.1314
@<TRIPOS>BOND
     1     2     1    2
     2     1     3    2
     3     1    14    1
     4    14    13    1
     5     7     6   am
     6     8     6    2
     7    13    15    2
     8    13    12    1
     9     6     5    1
    10    11    10    1
    11    11    12    1
    12    10     9    1
    13     9     5    1
    14     5     4    1
    15    24    23    1
    16     4    18   am
    17    22    23    1
    18    22    21    1
    19    19    18    2
    20    20    21    1
    21    20    17    1
    22    18    17    1
    23    17    16    1
