@<TRIPOS>MOLECULE
1rs6_MTL_A_1.pdb
 12 11 0 0 0
SMALL
GASTEIGER

@<TRIPOS>ATOM
      1  O1         1.3020    3.7570   23.7140 O.3   870  MTL870     -0.2175
      2  C1         0.2340    4.7240   23.6990 C.3   870  MTL870      0.2175
      3  C2        -0.9360    4.2340   22.7990 C.3   870  MTL870      0.2175
      4  O2        -0.5010    4.2610   21.4340 O.3   870  MTL870     -0.2175
      5  C3        -1.3870    2.7880   23.1810 C.3   870  MTL870      0.2175
      6  O3        -1.8340    2.7610   24.5520 O.3   870  MTL870     -0.2175
      7  C4        -2.5590    2.3250   22.2650 C.3   870  MTL870      0.2175
      8  O4        -3.7710    2.9930   22.6710 O.3   870  MTL870     -0.2175
      9  C5        -2.7610    0.7870   22.3740 C.3   870  MTL870      0.2175
     10  O5        -1.5210    0.1050   22.0780 O.3   870  MTL870     -0.2175
     11  C6        -3.8490    0.3210   21.3550 C.3   870  MTL870      0.2175
     12  O6        -4.0290   -1.0980   21.4530 O.3   870  MTL870     -0.2175
@<TRIPOS>BOND
     1    11    12    1
     2    11     9    1
     3     4     3    1
     4    10     9    1
     5     7     9    1
     6     7     8    1
     7     7     5    1
     8     3     5    1
     9     3     2    1
    10     5     6    1
    11     2     1    1
