@<TRIPOS>MOLECULE
1rs6_HEM_A_1.pdb
 43 50 0 0 0
SMALL
GASTEIGER

@<TRIPOS>ATOM
      1  CHA       12.9210    4.5100   26.4600 C.2   750  HEM750      0.0000
      2  CHB       16.6450    1.5720   26.0960 C.2   750  HEM750      0.0000
      3  CHC       17.6350    3.5150   21.7950 C.2   750  HEM750      0.0000
      4  CHD       14.4650    7.0980   22.7140 C.2   750  HEM750      0.0000
      5  C1A       13.7690    3.4720   26.6630 C.2   750  HEM750      0.0000
      6  C2A       13.5310    2.4110   27.6130 C.2   750  HEM750      0.0000
      7  C3A       14.6350    1.6330   27.5860 C.2   750  HEM750      0.0000
      8  C4A       15.5210    2.1900   26.5550 C.2   750  HEM750      0.0000
      9  CMA       14.9260    0.5060   28.5930 C.3   750  HEM750      0.0000
     10  CAA       12.3380    2.1690   28.5320 C.3   750  HEM750      0.0000
     11  CBA       11.2670    1.5210   27.6470 C.3   750  HEM750      0.0000
     12  CGA        9.9410    1.3160   28.3490 C.2   750  HEM750      0.0000
     13  O1A        9.9390    1.0230   29.5680 O.co2 750  HEM750      0.0000
     14  O2A        8.8950    1.4330   27.6690 O.co2 750  HEM750      0.0000
     15  C1B       17.3430    1.9130   24.9450 C.ar  750  HEM750      0.0000
     16  C2B       18.3840    1.0830   24.3860 C.ar  750  HEM750      0.0000
     17  C3B       18.6640    1.5970   23.1600 C.ar  750  HEM750      0.0000
     18  C4B       17.7880    2.7550   22.9860 C.ar  750  HEM750      0.0000
     19  CMB       18.9350   -0.1830   25.0010 C.3   750  HEM750      0.0000
     20  CAB       19.5010    0.9700   22.2440 C.2   750  HEM750      0.0000
     21  CBB       20.5060    1.5680   21.5490 C.2   750  HEM750      0.0000
     22  C1C       16.7060    4.5570   21.6070 C.2   750  HEM750      0.0000
     23  C2C       16.7270    5.4100   20.4450 C.2   750  HEM750      0.0000
     24  C3C       15.9480    6.5250   20.7650 C.2   750  HEM750      0.0000
     25  C4C       15.4120    6.2780   22.0860 C.2   750  HEM750      0.0000
     26  CMC       17.4220    5.0880   19.0960 C.3   750  HEM750      0.0000
     27  CAC       15.5910    7.6480   19.9570 C.2   750  HEM750      0.0000
     28  CBC       16.2600    7.9690   18.8130 C.2   750  HEM750      0.0000
     29  C1D       13.8420    6.8030   23.9220 C.ar  750  HEM750      0.0000
     30  C2D       12.5980    7.4140   24.3890 C.ar  750  HEM750      0.0000
     31  C3D       12.1730    6.6390   25.4310 C.ar  750  HEM750      0.0000
     32  C4D       13.0840    5.5230   25.5680 C.ar  750  HEM750      0.0000
     33  CMD       11.9020    8.6780   23.8390 C.3   750  HEM750      0.0000
     34  CAD       10.9350    6.8700   26.2950 C.3   750  HEM750      0.0000
     35  CBD        9.7830    6.1780   25.5500 C.3   750  HEM750      0.0000
     36  CGD        8.4770    6.2340   26.3070 C.2   750  HEM750      0.0000
     37  O1D        8.3120    7.1850   27.1100 O.co2 750  HEM750      0.0000
     38  O2D        7.6260    5.3310   26.0800 O.co2 750  HEM750      0.0000
     39  NA        15.0040    3.3370   26.0050 N.2   750  HEM750      0.0000
     40  NB        17.0050    2.9520   24.1240 N.ar  750  HEM750      0.0000
     41  NC        15.8730    5.0610   22.6200 N.2   750  HEM750      0.0000
     42  ND        14.1560    5.6530   24.6960 N.ar  750  HEM750      0.0000
     43 FE         15.7030    4.4480   24.5230 Fe    750  HEM750      0.0000
@<TRIPOS>BOND
     1    28    27    2
     2    26    23    1
     3    27    24    1
     4    23    24    2
     5    23    22    1
     6    24    25    1
     7    21    20    2
     8    22     3    2
     9    22    41    1
    10     3    18    1
    11    25    41    2
    12    25     4    1
    13    20    17    1
    14    41    43    1
    15     4    29    2
    16    18    17   ar
    17    18    40   ar
    18    17    16   ar
    19    33    30    1
    20    29    30   ar
    21    29    42   ar
    22    40    43    1
    23    40    15   ar
    24    16    15   ar
    25    16    19    1
    26    30    31   ar
    27    43    42    1
    28    43    39    1
    29    42    32   ar
    30    15     2    1
    31    31    32   ar
    32    31    34    1
    33    35    34    1
    34    35    36    1
    35    32     1    2
    36    39     8    1
    37    39     5    2
    38    38    36   ar
    39     2     8    2
    40    36    37   ar
    41     1     5    1
    42     8     7    1
    43     5     6    1
    44     7     6    2
    45     7     9    1
    46     6    10    1
    47    11    12    1
    48    11    10    1
    49    14    12   ar
    50    12    13   ar
