@<TRIPOS>MOLECULE
1rs7_D7P_A_1.pdb
 26 26 0 0 0
SMALL
GASTEIGER

@<TRIPOS>ATOM
      1  N1'        6.4880    2.1730   22.7050 N.am  797  D7P797     -0.0863
      2  N'         4.8610    2.2200   28.2760 N.3   797  D7P797     -0.1227
      3  CA'        5.2530    2.9650   27.0570 C.3   797  D7P797      0.1736
      4  C'         5.9480    1.9720   26.0950 C.2   797  D7P797      0.2595
      5  O'         5.4520    0.8700   25.8510 O.2   797  D7P797     -0.2718
      6  CB'        3.9860    3.6030   26.4330 C.3   797  D7P797      0.0547
      7  CG'        3.1610    4.4760   27.3910 C.ar  797  D7P797     -0.0202
      8  CD1        3.7300    5.6420   27.9640 C.ar  797  D7P797     -0.0042
      9  CE1        2.9770    6.4490   28.8450 C.ar  797  D7P797     -0.0003
     10  CZ'        1.6450    6.0920   29.1630 C.ar  797  D7P797     -0.0000
     11  CE2        1.0650    4.9280   28.5970 C.ar  797  D7P797     -0.0003
     12  CD2        1.8240    4.1180   27.7140 C.ar  797  D7P797     -0.0042
     13  N          7.1150    2.3470   25.5430 N.am  797  D7P797     -0.1965
     14  CA         7.8900    1.4560   24.6020 C.3   797  D7P797      0.1745
     15  C          7.1290    1.1880   23.3060 C.2   797  D7P797      0.2806
     16  O          7.0570    0.0880   22.8230 O.2   797  D7P797     -0.2698
     17  CB         9.2220    2.1100   24.4170 C.3   797  D7P797      0.0349
     18  CG        10.3440    1.0930   24.2070 C.3   797  D7P797      0.0492
     19  CD        11.6630    1.8020   23.9960 C.3   797  D7P797      0.2204
     20  NE        12.7760    0.8480   24.0570 N.pl3 797  D7P797     -0.0874
     21  CZ        13.7850    0.7020   23.2330 C.cat 797  D7P797      0.5245
     22  NH1       13.8960    1.4890   22.1770 N.pl3 797  D7P797      0.1075
     23  NH2       14.6690   -0.2530   23.5210 N.pl3 797  D7P797      0.1343
     24  NO        14.7970    1.4790   21.1760 N.pl3 797  D7P797      0.2221
     25  O2        14.5570    2.2140   20.1500 O.2   797  D7P797     -0.0910
     26  O3        15.8710    0.7860   21.2140 O.2   797  D7P797     -0.0910
@<TRIPOS>BOND
     1    25    24    2
     2    24    26    2
     3    24    22    1
     4    22    21    1
     5     1    15   am
     6    16    15    2
     7    21    23    2
     8    21    20    1
     9    15    14    1
    10    19    20    1
    11    19    18    1
    12    18    17    1
    13    17    14    1
    14    14    13    1
    15    13     4   am
    16     5     4    2
    17     4     3    1
    18     6     3    1
    19     6     7    1
    20     3     2    1
    21     7    12   ar
    22     7     8   ar
    23    12    11   ar
    24     8     9   ar
    25    11    10   ar
    26     9    10   ar
