@<TRIPOS>MOLECULE
1rs7_HEM_A_1.pdb
 43 50 0 0 0
SMALL
GASTEIGER

@<TRIPOS>ATOM
      1  CHA       12.9830    4.4460   26.5040 C.2   750  HEM750      0.0000
      2  CHB       16.7240    1.4840   26.0500 C.2   750  HEM750      0.0000
      3  CHC       17.6480    3.5160   21.7570 C.2   750  HEM750      0.0000
      4  CHD       14.4000    7.0240   22.6290 C.2   750  HEM750      0.0000
      5  C1A       13.8300    3.4060   26.6990 C.2   750  HEM750      0.0000
      6  C2A       13.6540    2.3890   27.6890 C.2   750  HEM750      0.0000
      7  C3A       14.6990    1.5130   27.5240 C.2   750  HEM750      0.0000
      8  C4A       15.5160    2.0180   26.4390 C.2   750  HEM750      0.0000
      9  CMA       14.9870    0.2780   28.4380 C.3   750  HEM750      0.0000
     10  CAA       12.4430    2.1360   28.5980 C.3   750  HEM750      0.0000
     11  CBA       11.3530    1.5470   27.6990 C.3   750  HEM750      0.0000
     12  CGA       10.0510    1.2330   28.4140 C.2   750  HEM750      0.0000
     13  O1A       10.0540    0.9700   29.6460 O.co2 750  HEM750      0.0000
     14  O2A        9.0090    1.2190   27.7170 O.co2 750  HEM750      0.0000
     15  C1B       17.4430    1.8740   24.9490 C.ar  750  HEM750      0.0000
     16  C2B       18.4990    1.0770   24.3790 C.ar  750  HEM750      0.0000
     17  C3B       18.7420    1.6330   23.1420 C.ar  750  HEM750      0.0000
     18  C4B       17.8170    2.7410   22.9260 C.ar  750  HEM750      0.0000
     19  CMB       19.2090   -0.1740   24.9550 C.3   750  HEM750      0.0000
     20  CAB       19.6670    1.0280   22.2810 C.2   750  HEM750      0.0000
     21  CBB       20.4300    1.6070   21.3210 C.2   750  HEM750      0.0000
     22  C1C       16.7630    4.5850   21.5890 C.2   750  HEM750      0.0000
     23  C2C       16.7610    5.4080   20.4140 C.2   750  HEM750      0.0000
     24  C3C       15.8950    6.4400   20.6820 C.2   750  HEM750      0.0000
     25  C4C       15.4090    6.2390   22.0250 C.2   750  HEM750      0.0000
     26  CMC       17.6070    5.2240   19.1240 C.3   750  HEM750      0.0000
     27  CAC       15.4930    7.5100   19.8310 C.2   750  HEM750      0.0000
     28  CBC       16.2430    8.0540   18.8290 C.2   750  HEM750      0.0000
     29  C1D       13.8300    6.7320   23.8700 C.ar  750  HEM750      0.0000
     30  C2D       12.6030    7.3200   24.3480 C.ar  750  HEM750      0.0000
     31  C3D       12.1650    6.5190   25.3860 C.ar  750  HEM750      0.0000
     32  C4D       13.0890    5.4400   25.5160 C.ar  750  HEM750      0.0000
     33  CMD       11.8890    8.5750   23.8010 C.3   750  HEM750      0.0000
     34  CAD       10.9430    6.7400   26.3110 C.3   750  HEM750      0.0000
     35  CBD        9.8040    6.0150   25.6220 C.3   750  HEM750      0.0000
     36  CGD        8.4760    6.1370   26.3470 C.2   750  HEM750      0.0000
     37  O1D        8.2850    7.1700   27.0640 O.co2 750  HEM750      0.0000
     38  O2D        7.6480    5.2010   26.1850 O.co2 750  HEM750      0.0000
     39  NA        14.9560    3.1890   25.8900 N.2   750  HEM750      0.0000
     40  NB        17.0110    2.8970   24.0820 N.ar  750  HEM750      0.0000
     41  NC        15.9310    5.0710   22.5880 N.2   750  HEM750      0.0000
     42  ND        14.1340    5.5710   24.6160 N.ar  750  HEM750      0.0000
     43 FE         15.7400    4.3960   24.4410 Fe    750  HEM750      0.0000
@<TRIPOS>BOND
     1    28    27    2
     2    26    23    1
     3    27    24    1
     4    23    24    2
     5    23    22    1
     6    24    25    1
     7    21    20    2
     8    22     3    2
     9    22    41    1
    10     3    18    1
    11    25    41    2
    12    25     4    1
    13    20    17    1
    14    41    43    1
    15     4    29    2
    16    18    17   ar
    17    18    40   ar
    18    17    16   ar
    19    33    30    1
    20    29    30   ar
    21    29    42   ar
    22    40    43    1
    23    40    15   ar
    24    30    31   ar
    25    16    15   ar
    26    16    19    1
    27    43    42    1
    28    43    39    1
    29    42    32   ar
    30    15     2    1
    31    31    32   ar
    32    31    34    1
    33    32     1    2
    34    35    34    1
    35    35    36    1
    36    39     8    1
    37    39     5    2
    38     2     8    2
    39    38    36   ar
    40    36    37   ar
    41     8     7    1
    42     1     5    1
    43     5     6    1
    44     7     6    2
    45     7     9    1
    46     6    10    1
    47    11    12    1
    48    11    10    1
    49    14    12   ar
    50    12    13   ar
