@<TRIPOS>MOLECULE
1rs7_H4B_A_1.pdb
 17 18 0 0 0
SMALL
GASTEIGER

@<TRIPOS>ATOM
      1  N1        10.0120    2.5410   33.9700 N.2   760  H4B760     -0.2683
      2  C2        10.1560    2.1640   32.6930 C.1   760  H4B760      0.2608
      3  N2        11.3650    2.0510   32.1210 N.pl3 760  H4B760     -0.0220
      4  N3         9.0050    1.9050   31.9750 N.2   760  H4B760     -0.2474
      5  C4         7.6800    2.0020   32.5050 C.1   760  H4B760      0.2441
      6  O4         6.6860    1.7500   31.7690 O.2   760  H4B760     -0.2063
      7  C4A        7.6360    2.4170   33.8430 C.2   760  H4B760      0.2463
      8  C8A        8.7880    2.6640   34.5840 C.1   760  H4B760      0.1270
      9  N5         6.2880    2.5650   34.4560 N.2   760  H4B760     -0.2460
     10  N8         8.7510    3.0400   35.8590 N.2   760  H4B760     -0.2054
     11  C6         6.3130    3.5660   35.6200 C.3   760  H4B760      0.1627
     12  C7         7.4640    3.1830   36.5570 C.3   760  H4B760      0.1643
     13  C9         4.9200    3.5170   36.2710 C.3   760  H4B760      0.2063
     14  O9         4.5220    2.2220   36.6710 O.3   760  H4B760     -0.2183
     15  C10        4.8190    4.4930   37.4890 C.3   760  H4B760      0.1842
     16  C11        3.4120    4.6090   37.9990 C.3   760  H4B760      0.0383
     17  O10        5.2570    5.7710   36.9980 O.3   760  H4B760     -0.2204
@<TRIPOS>BOND
     1     6     5    2
     2     4     5    2
     3     4     2    2
     4     3     2    1
     5     5     7    1
     6     2     1    2
     7     7     9    2
     8     7     8    1
     9     1     8    2
    10     9    11    1
    11     8    10    2
    12    11    13    1
    13    11    12    1
    14    10    12    1
    15    13    14    1
    16    13    15    1
    17    17    15    1
    18    15    16    1
