@<TRIPOS>MOLECULE
1rs7_MTL_B_1.pdb
 12 11 0 0 0
SMALL
GASTEIGER

@<TRIPOS>ATOM
      1  O1        21.5190    6.8830   59.0200 O.3   871  MTL871     -0.2175
      2  C1        22.0340    8.1020   58.4850 C.3   871  MTL871      0.2175
      3  C2        23.2990    8.5160   59.2750 C.3   871  MTL871      0.2175
      4  O2        22.9770    8.6280   60.6790 O.3   871  MTL871     -0.2175
      5  C3        24.4000    7.4450   59.0800 C.3   871  MTL871      0.2175
      6  O3        24.8000    7.4260   57.6990 O.3   871  MTL871     -0.2175
      7  C4        25.6310    7.7940   59.9630 C.3   871  MTL871      0.2175
      8  O4        26.2200    9.0140   59.4490 O.3   871  MTL871     -0.2175
      9  C5        26.6530    6.6120   59.9310 C.3   871  MTL871      0.2175
     10  O5        25.9670    5.3900   60.3100 O.3   871  MTL871     -0.2175
     11  C6        27.8220    6.8680   60.9280 C.3   871  MTL871      0.2175
     12  O6        28.7260    5.7290   60.9310 O.3   871  MTL871     -0.2175
@<TRIPOS>BOND
     1     6     5    1
     2     2     1    1
     3     2     3    1
     4     5     3    1
     5     5     7    1
     6     3     4    1
     7     8     7    1
     8     9     7    1
     9     9    10    1
    10     9    11    1
    11    11    12    1
