@<TRIPOS>MOLECULE
1rs8_H4B_A_1.pdb
 17 18 0 0 0
SMALL
GASTEIGER

@<TRIPOS>ATOM
      1  N1         8.2740   11.7340   42.8990 N.2   760  H4B760     -0.2683
      2  C2         8.2230   12.0510   41.5830 C.1   760  H4B760      0.2608
      3  N2         7.4050   11.4480   40.7160 N.pl3 760  H4B760     -0.0220
      4  N3         9.0550   13.0250   41.1470 N.2   760  H4B760     -0.2474
      5  C4         9.9790   13.7440   41.9520 C.1   760  H4B760      0.2441
      6  O4        10.6960   14.6250   41.4370 O.2   760  H4B760     -0.2063
      7  C4A        9.9730   13.3520   43.2920 C.2   760  H4B760      0.2463
      8  C8A        9.1400   12.3640   43.7810 C.1   760  H4B760      0.1270
      9  N5        10.9080   14.0410   44.1740 N.2   760  H4B760     -0.2460
     10  N8         9.1460   11.9960   45.0680 N.2   760  H4B760     -0.2054
     11  C6        11.3120   13.2060   45.4030 C.3   760  H4B760      0.1627
     12  C7        10.0410   12.6200   46.0440 C.3   760  H4B760      0.1643
     13  C9        12.1110   14.1560   46.3090 C.3   760  H4B760      0.2063
     14  O9        11.3770   15.3340   46.6930 O.3   760  H4B760     -0.2183
     15  C10       12.6120   13.4590   47.5990 C.3   760  H4B760      0.1842
     16  C11       13.5680   14.3200   48.3520 C.3   760  H4B760      0.0383
     17  O10       13.2840   12.2860   47.1400 O.3   760  H4B760     -0.2204
@<TRIPOS>BOND
     1     3     2    1
     2     4     2    2
     3     4     5    2
     4     6     5    2
     5     2     1    2
     6     5     7    1
     7     1     8    2
     8     7     8    1
     9     7     9    2
    10     8    10    2
    11     9    11    1
    12    10    12    1
    13    11    12    1
    14    11    13    1
    15    13    14    1
    16    13    15    1
    17    17    15    1
    18    15    16    1
