@<TRIPOS>MOLECULE
1rs8_DP2_A_1.pdb
 24 23 0 0 0
SMALL
GASTEIGER

@<TRIPOS>ATOM
      1  N1         6.8490   10.8200   29.5440 N.pl3 792  DP2792      0.2221
      2  O2         7.6300   10.3440   28.6520 O.2   792  DP2792     -0.0910
      3  O3         5.5800   10.9290   29.3110 O.2   792  DP2792     -0.0910
      4  N         12.4770   14.5960   35.4930 N.am  792  DP2792     -0.1965
      5  CA        11.4480   14.8650   34.4640 C.3   792  DP2792      0.1745
      6  C         12.0290   15.5990   33.2310 C.2   792  DP2792      0.2806
      7  N2        13.2620   15.3150   32.7700 N.am  792  DP2792     -0.0863
      8  O         11.3940   16.4570   32.6340 O.2   792  DP2792     -0.2698
      9  CB        10.8320   13.5540   34.0020 C.3   792  DP2792      0.0349
     10  CG         9.3880   13.7460   33.5060 C.3   792  DP2792      0.0492
     11  CD         8.9230   12.4900   32.7780 C.3   792  DP2792      0.2204
     12  NE         7.4680   12.5550   32.5960 N.pl3 792  DP2792     -0.0874
     13  CZ         6.7720   11.9620   31.6510 C.cat 792  DP2792      0.5245
     14  NH1        7.3910   11.2150   30.7260 N.pl3 792  DP2792      0.1075
     15  NH2        5.4440   12.1430   31.6470 N.pl3 792  DP2792      0.1343
     16  N'        13.7910   15.8310   38.6410 N.3   792  DP2792     -0.1231
     17  CA'       14.0570   15.1610   37.3300 C.3   792  DP2792      0.1693
     18  C'        13.0020   15.5740   36.3100 C.2   792  DP2792      0.2592
     19  O'        12.6240   16.7680   36.2150 O.2   792  DP2792     -0.2718
     20  CB'       15.4830   15.5450   36.8770 C.3   792  DP2792      0.0285
     21  CG'       16.5950   14.5880   37.3280 C.3   792  DP2792      0.0035
     22  CD'       17.9650   15.1000   36.8780 C.3   792  DP2792      0.0206
     23  CE'       19.1120   14.4480   37.6820 C.3   792  DP2792      0.1093
     24  NZ'       20.4030   14.8950   37.1080 N.3   792  DP2792     -0.1314
@<TRIPOS>BOND
     1     2     1    2
     2     3     1    2
     3     1    14    1
     4    14    13    1
     5    15    13    2
     6    13    12    1
     7    12    11    1
     8     8     6    2
     9     7     6   am
    10    11    10    1
    11     6     5    1
    12    10     9    1
    13     9     5    1
    14     5     4    1
    15     4    18   am
    16    19    18    2
    17    18    17    1
    18    20    21    1
    19    20    17    1
    20    22    21    1
    21    22    23    1
    22    24    23    1
    23    17    16    1
