@<TRIPOS>MOLECULE
1rs8_HEM_A_1.pdb
 43 50 0 0 0
SMALL
GASTEIGER

@<TRIPOS>ATOM
      1  CHA        9.1540    9.1160   35.0200 C.2   500  HEM500      0.0000
      2  CHB        4.4720    9.0050   33.6140 C.2   500  HEM500      0.0000
      3  CHC        5.8620    7.2690   29.2810 C.2   500  HEM500      0.0000
      4  CHD       10.3590    6.6940   31.0860 C.2   500  HEM500      0.0000
      5  C1A        7.7570    9.3200   34.9490 C.2   500  HEM500      0.0000
      6  C2A        7.0060   10.1110   35.9230 C.2   500  HEM500      0.0000
      7  C3A        5.6690   10.0490   35.5820 C.2   500  HEM500      0.0000
      8  C4A        5.6170    9.2580   34.3460 C.2   500  HEM500      0.0000
      9  CMA        4.5040   10.6620   36.4020 C.3   500  HEM500      0.0000
     10  CAA        7.6470   10.9490   37.0490 C.3   500  HEM500      0.0000
     11  CBA        7.8060   12.4040   36.6080 C.3   500  HEM500      0.0000
     12  CGA        8.5460   13.2690   37.6190 C.2   500  HEM500      0.0000
     13  O1A        8.2750   13.1320   38.8320 O.co2 500  HEM500      0.0000
     14  O2A        9.3870   14.0980   37.1940 O.co2 500  HEM500      0.0000
     15  C1B        4.4470    8.3960   32.3620 C.ar  500  HEM500      0.0000
     16  C2B        3.2490    8.4170   31.5510 C.ar  500  HEM500      0.0000
     17  C3B        3.6240    7.9720   30.3090 C.ar  500  HEM500      0.0000
     18  C4B        5.0620    7.6730   30.3760 C.ar  500  HEM500      0.0000
     19  CMB        1.8410    8.8010   32.0490 C.3   500  HEM500      0.0000
     20  CAB        2.7540    7.8540   29.2210 C.2   500  HEM500      0.0000
     21  CBB        2.6950    6.7300   28.4500 C.2   500  HEM500      0.0000
     22  C1C        7.2420    7.0880   29.3880 C.2   500  HEM500      0.0000
     23  C2C        8.1490    6.7060   28.2850 C.2   500  HEM500      0.0000
     24  C3C        9.3690    6.4240   28.8350 C.2   500  HEM500      0.0000
     25  C4C        9.2390    6.6640   30.2540 C.2   500  HEM500      0.0000
     26  CMC        7.8050    6.5610   26.8140 C.3   500  HEM500      0.0000
     27  CAC       10.5850    6.0120   28.2350 C.2   500  HEM500      0.0000
     28  CBC       10.8590    5.2600   27.1320 C.2   500  HEM500      0.0000
     29  C1D       10.4090    7.2910   32.3160 C.ar  500  HEM500      0.0000
     30  C2D       11.6410    7.4860   33.0830 C.ar  500  HEM500      0.0000
     31  C3D       11.2790    8.1600   34.1920 C.ar  500  HEM500      0.0000
     32  C4D        9.8670    8.4000   34.0830 C.ar  500  HEM500      0.0000
     33  CMD       13.0790    7.0070   32.7950 C.3   500  HEM500      0.0000
     34  CAD       12.2000    8.6260   35.3030 C.3   500  HEM500      0.0000
     35  CBD       12.7330    9.9640   34.8320 C.3   500  HEM500      0.0000
     36  CGD       13.5410   10.6650   35.8960 C.2   500  HEM500      0.0000
     37  O1D       14.2040    9.9700   36.6930 O.co2 500  HEM500      0.0000
     38  O2D       13.5310   11.9100   35.9250 O.co2 500  HEM500      0.0000
     39  NA         6.9160    8.7950   33.9490 N.2   500  HEM500      0.0000
     40  NB         5.5370    7.9240   31.6620 N.ar  500  HEM500      0.0000
     41  NC         7.9460    7.1130   30.6150 N.2   500  HEM500      0.0000
     42  ND         9.3200    7.8120   32.9490 N.ar  500  HEM500      0.0000
     43 FE          7.3600    7.6390   32.4310 Fe    500  HEM500      0.0000
@<TRIPOS>BOND
     1    26    23    1
     2    28    27    2
     3    27    24    1
     4    23    24    2
     5    23    22    1
     6    21    20    2
     7    24    25    1
     8    20    17    1
     9     3    22    2
    10     3    18    1
    11    22    41    1
    12    25    41    2
    13    25     4    1
    14    17    18   ar
    15    17    16   ar
    16    18    40   ar
    17    41    43    1
    18     4    29    2
    19    16    19    1
    20    16    15   ar
    21    40    15   ar
    22    40    43    1
    23    29    42   ar
    24    29    30   ar
    25    15     2    1
    26    43    42    1
    27    43    39    1
    28    33    30    1
    29    42    32   ar
    30    30    31   ar
    31     2     8    2
    32    39     8    1
    33    39     5    2
    34    32    31   ar
    35    32     1    2
    36    31    34    1
    37     8     7    1
    38    35    34    1
    39    35    36    1
    40     5     1    1
    41     5     6    1
    42     7     6    2
    43     7     9    1
    44    36    38   ar
    45    36    37   ar
    46     6    10    1
    47    11    10    1
    48    11    12    1
    49    14    12   ar
    50    12    13   ar
