@<TRIPOS>MOLECULE
1rs9_HEM_A_1.pdb
 43 50 0 0 0
SMALL
GASTEIGER

@<TRIPOS>ATOM
      1  CHA        8.9820    8.8580   35.0530 C.2   500  HEM500      0.0000
      2  CHB        4.3610    8.8650   33.7240 C.2   500  HEM500      0.0000
      3  CHC        5.7510    7.2150   29.4100 C.2   500  HEM500      0.0000
      4  CHD       10.2260    6.4660   31.0650 C.2   500  HEM500      0.0000
      5  C1A        7.6110    9.0700   35.0120 C.2   500  HEM500      0.0000
      6  C2A        6.8760    9.8750   35.9690 C.2   500  HEM500      0.0000
      7  C3A        5.5570    9.8090   35.6700 C.2   500  HEM500      0.0000
      8  C4A        5.4930    9.0160   34.4570 C.2   500  HEM500      0.0000
      9  CMA        4.4000   10.4550   36.4500 C.3   500  HEM500      0.0000
     10  CAA        7.5240   10.7190   37.0610 C.3   500  HEM500      0.0000
     11  CBA        7.6240   12.1570   36.5680 C.3   500  HEM500      0.0000
     12  CGA        8.3750   13.0500   37.5330 C.2   500  HEM500      0.0000
     13  O1A        8.1070   12.9740   38.7460 O.co2 500  HEM500      0.0000
     14  O2A        9.2250   13.8370   37.0730 O.co2 500  HEM500      0.0000
     15  C1B        4.3320    8.2780   32.4640 C.ar  500  HEM500      0.0000
     16  C2B        3.1320    8.2520   31.6580 C.ar  500  HEM500      0.0000
     17  C3B        3.4710    7.7840   30.4490 C.ar  500  HEM500      0.0000
     18  C4B        4.9190    7.4930   30.5150 C.ar  500  HEM500      0.0000
     19  CMB        1.7360    8.6430   32.1100 C.3   500  HEM500      0.0000
     20  CAB        2.5240    7.6330   29.4150 C.2   500  HEM500      0.0000
     21  CBB        2.5590    6.7360   28.3760 C.2   500  HEM500      0.0000
     22  C1C        7.1230    6.9720   29.4650 C.2   500  HEM500      0.0000
     23  C2C        7.9170    6.4910   28.3520 C.2   500  HEM500      0.0000
     24  C3C        9.1420    6.1810   28.8370 C.2   500  HEM500      0.0000
     25  C4C        9.0820    6.4520   30.2440 C.2   500  HEM500      0.0000
     26  CMC        7.4370    6.3270   26.8960 C.3   500  HEM500      0.0000
     27  CAC       10.3130    5.8500   28.1690 C.2   500  HEM500      0.0000
     28  CBC       10.3760    4.9860   27.1320 C.2   500  HEM500      0.0000
     29  C1D       10.2610    7.0290   32.3180 C.ar  500  HEM500      0.0000
     30  C2D       11.4860    7.2320   33.1040 C.ar  500  HEM500      0.0000
     31  C3D       11.1530    7.9480   34.1740 C.ar  500  HEM500      0.0000
     32  C4D        9.7080    8.1620   34.0950 C.ar  500  HEM500      0.0000
     33  CMD       12.9110    6.7460   32.8540 C.3   500  HEM500      0.0000
     34  CAD       12.1550    8.5530   35.1890 C.3   500  HEM500      0.0000
     35  CBD       12.5560   10.0200   34.9320 C.3   500  HEM500      0.0000
     36  CGD       13.3840   10.6040   36.0600 C.2   500  HEM500      0.0000
     37  O1D       13.9800    9.8150   36.8370 O.co2 500  HEM500      0.0000
     38  O2D       13.4480   11.8510   36.1610 O.co2 500  HEM500      0.0000
     39  NA         6.7510    8.5430   34.0530 N.2   500  HEM500      0.0000
     40  NB         5.4290    7.7620   31.7880 N.ar  500  HEM500      0.0000
     41  NC         7.8250    6.9460   30.6180 N.2   500  HEM500      0.0000
     42  ND         9.1520    7.5760   32.9540 N.ar  500  HEM500      0.0000
     43 FE          7.2240    7.4520   32.4650 Fe    500  HEM500      0.0000
@<TRIPOS>BOND
     1    26    23    1
     2    28    27    2
     3    27    24    1
     4    23    24    2
     5    23    22    1
     6    21    20    2
     7    24    25    1
     8     3    22    2
     9     3    18    1
    10    20    17    1
    11    22    41    1
    12    25    41    2
    13    25     4    1
    14    17    18   ar
    15    17    16   ar
    16    18    40   ar
    17    41    43    1
    18     4    29    2
    19    16    19    1
    20    16    15   ar
    21    40    15   ar
    22    40    43    1
    23    29    42   ar
    24    29    30   ar
    25    15     2    1
    26    43    42    1
    27    43    39    1
    28    33    30    1
    29    42    32   ar
    30    30    31   ar
    31     2     8    2
    32    39     8    1
    33    39     5    2
    34    32    31   ar
    35    32     1    2
    36    31    34    1
    37     8     7    1
    38    35    34    1
    39    35    36    1
    40     5     1    1
    41     5     6    1
    42     7     6    2
    43     7     9    1
    44     6    10    1
    45    36    38   ar
    46    36    37   ar
    47    11    10    1
    48    11    12    1
    49    14    12   ar
    50    12    13   ar
