@<TRIPOS>MOLECULE
1rs9_H4B_A_1.pdb
 17 18 0 0 0
SMALL
GASTEIGER

@<TRIPOS>ATOM
      1  N1         8.2800   11.5030   43.0170 N.2   760  H4B760     -0.2683
      2  C2         8.1780   11.8470   41.7060 C.1   760  H4B760      0.2608
      3  N2         7.3190   11.2770   40.8690 N.pl3 760  H4B760     -0.0220
      4  N3         9.0020   12.8100   41.2400 N.2   760  H4B760     -0.2474
      5  C4         9.9640   13.5030   42.0090 C.1   760  H4B760      0.2441
      6  O4        10.6540   14.3610   41.4580 O.2   760  H4B760     -0.2063
      7  C4A       10.0180   13.0930   43.3570 C.2   760  H4B760      0.2463
      8  C8A        9.1770   12.1030   43.8720 C.1   760  H4B760      0.1270
      9  N5        10.9920   13.7620   44.2130 N.2   760  H4B760     -0.2460
     10  N8         9.2220   11.7060   45.1540 N.2   760  H4B760     -0.2054
     11  C6        11.4090   12.9220   45.4280 C.3   760  H4B760      0.1627
     12  C7        10.1720   12.3190   46.1040 C.3   760  H4B760      0.1643
     13  C9        12.2460   13.8590   46.3100 C.3   760  H4B760      0.2063
     14  O9        11.5770   15.0470   46.6510 O.3   760  H4B760     -0.2183
     15  C10       12.7420   13.1680   47.6170 C.3   760  H4B760      0.1842
     16  C11       13.7200   14.0230   48.3580 C.3   760  H4B760      0.0383
     17  O10       13.3910   11.9620   47.1770 O.3   760  H4B760     -0.2204
@<TRIPOS>BOND
     1     3     2    1
     2     4     2    2
     3     4     5    2
     4     6     5    2
     5     2     1    2
     6     5     7    1
     7     1     8    2
     8     7     8    1
     9     7     9    2
    10     8    10    2
    11     9    11    1
    12    10    12    1
    13    11    12    1
    14    11    13    1
    15    13    14    1
    16    13    15    1
    17    17    15    1
    18    15    16    1
