@<TRIPOS>MOLECULE
1rs9_D7P_A_1.pdb
 26 26 0 0 0
SMALL
GASTEIGER

@<TRIPOS>ATOM
      1  N1'       12.6160   15.6020   32.7680 N.am  797  D7P797     -0.0863
      2  N'        13.3430   15.9240   38.4220 N.3   797  D7P797     -0.1227
      3  CA'       13.6100   15.1420   37.1760 C.3   797  D7P797      0.1736
      4  C'        12.4950   15.4670   36.1490 C.2   797  D7P797      0.2595
      5  O'        12.0400   16.6020   36.0550 O.2   797  D7P797     -0.2718
      6  CB'       15.0230   15.4830   36.6430 C.3   797  D7P797      0.0547
      7  CG'       16.1770   15.3070   37.6510 C.ar  797  D7P797     -0.0202
      8  CD1       16.5170   14.0100   38.1430 C.ar  797  D7P797     -0.0042
      9  CE1       17.5780   13.8470   39.0720 C.ar  797  D7P797     -0.0003
     10  CZ'       18.3130   14.9870   39.5180 C.ar  797  D7P797     -0.0000
     11  CE2       17.9840   16.2770   39.0350 C.ar  797  D7P797     -0.0003
     12  CD2       16.9170   16.4400   38.1030 C.ar  797  D7P797     -0.0042
     13  N         12.0370   14.4650   35.3710 N.am  797  D7P797     -0.1965
     14  CA        10.9330   14.6670   34.3290 C.3   797  D7P797      0.1745
     15  C         11.3510   15.6130   33.1640 C.2   797  D7P797      0.2806
     16  O         10.5570   16.3680   32.5960 O.2   797  D7P797     -0.2698
     17  CB        10.5320   13.2970   33.8420 C.3   797  D7P797      0.0349
     18  CG         9.0400   13.2340   33.5120 C.3   797  D7P797      0.0492
     19  CD         8.6580   11.9060   32.9020 C.3   797  D7P797      0.2204
     20  NE         7.1930   11.8800   32.6260 N.pl3 797  D7P797     -0.0874
     21  CZ         6.5800   11.5840   31.5970 C.cat 797  D7P797      0.5245
     22  NH1        7.2940   11.2090   30.4570 N.pl3 797  D7P797      0.1075
     23  NH2        5.2000   11.6440   31.6470 N.pl3 797  D7P797      0.1343
     24  NO         6.9460   10.5380   29.3690 N.pl3 797  D7P797      0.2221
     25  O2         7.8960   10.0130   28.6830 O.2   797  D7P797     -0.0910
     26  O3         5.7360   10.4110   28.9900 O.2   797  D7P797     -0.0910
@<TRIPOS>BOND
     1    25    24    2
     2    26    24    2
     3    24    22    1
     4    22    21    1
     5    21    23    2
     6    21    20    1
     7    16    15    2
     8    20    19    1
     9     1    15   am
    10    19    18    1
    11    15    14    1
    12    18    17    1
    13    17    14    1
    14    14    13    1
    15    13     4   am
    16     5     4    2
    17     4     3    1
    18     6     3    1
    19     6     7    1
    20     3     2    1
    21     7    12   ar
    22     7     8   ar
    23    12    11   ar
    24     8     9   ar
    25    11    10   ar
    26     9    10   ar
