@<TRIPOS>MOLECULE
1rsc_XBP_A_1.pdb
 18 17 0 0 0
SMALL
GASTEIGER

@<TRIPOS>ATOM
      1  C1       108.3260   52.1560  -16.4570 C.3   476  XBP476      0.2203
      2  C2       107.7900   52.2850  -15.0340 C.2   476  XBP476      0.2137
      3  C3       108.2130   51.2770  -13.9590 C.3   476  XBP476      0.2438
      4  C4       109.7490   51.0900  -13.9210 C.3   476  XBP476      0.2194
      5  C5       110.1600   50.3610  -12.6370 C.3   476  XBP476      0.1896
      6  O1       107.7070   53.0690  -17.4200 O.3   476  XBP476     -0.2621
      7  O2       106.9690   53.1570  -14.7650 O.2   476  XBP476     -0.2906
      8  O3       107.5820   50.0210  -14.2330 O.3   476  XBP476     -0.2122
      9  O4       110.1690   50.2690  -15.0180 O.3   476  XBP476     -0.2172
     10  O5       111.5120   50.3040  -12.1910 O.3   476  XBP476     -0.2674
     11  P1       108.2980   53.6310  -18.6920 P.3   476  XBP476      0.5330
     12  P2       112.4780   49.1810  -12.2920 P.3   476  XBP476      0.5327
     13  O1P      109.6220   54.3770  -18.2360 O.3   476  XBP476     -0.1145
     14  O2P      107.1690   54.6060  -19.2650 O.3   476  XBP476     -0.1145
     15  O3P      108.5340   52.3490  -19.5780 O.2   476  XBP476     -0.2224
     16  O4P      112.2180   48.2700  -11.0370 O.3   476  XBP476     -0.1145
     17  O5P      113.8690   49.9440  -12.2420 O.3   476  XBP476     -0.1145
     18  O6P      112.1500   48.4560  -13.7050 O.2   476  XBP476     -0.2224
@<TRIPOS>BOND
     1    15    11    2
     2    14    11    1
     3    11    13    1
     4    11     6    1
     5     6     1    1
     6     1     2    1
     7     2     7    2
     8     2     3    1
     9     9     4    1
    10     8     3    1
    11     3     4    1
    12     4     5    1
    13    18    12    2
    14     5    10    1
    15    12    17    1
    16    12    10    1
    17    12    16    1
