@<TRIPOS>MOLECULE
1rsd_PSB_A_1.pdb
 36 40 0 0 0
SMALL
GASTEIGER

@<TRIPOS>ATOM
      1  N1        48.2430   44.6850   78.7850 N.pl3 1001  PSB1001    -0.0220
      2  C2        48.3170   45.4170   77.4700 C.1   1001  PSB1001     0.2609
      3  N3        47.3040   46.3170   77.1120 N.2   1001  PSB1001    -0.2474
      4  C4        47.3470   47.0620   75.9270 C.1   1001  PSB1001     0.2461
      5  O5        46.3910   47.8580   75.6950 O.2   1001  PSB1001    -0.2062
      6  C6        48.5130   46.9330   74.9660 C.2   1001  PSB1001     0.2701
      7  N7        48.9810   47.4780   73.6750 N.2   1001  PSB1001    -0.1321
      8  N8        50.2140   46.7670   73.5420 N.pl3 1001  PSB1001    -0.0992
      9  N9        50.3260   45.9270   74.6740 N.2   1001  PSB1001    -0.0877
     10  C10       49.4970   45.9720   75.4050 C.1   1001  PSB1001     0.1501
     11  N11       49.3470   45.2570   76.6770 N.2   1001  PSB1001    -0.2666
     12  C12       51.2030   46.7870   72.6690 C.ar  1001  PSB1001     0.0944
     13  C13       52.1730   47.8280   72.7710 C.ar  1001  PSB1001     0.0185
     14  C14       53.3540   47.7160   71.9930 C.ar  1001  PSB1001     0.0015
     15  C15       53.5240   46.5660   71.1660 C.ar  1001  PSB1001     0.0047
     16  C16       52.4720   45.5590   71.0530 C.ar  1001  PSB1001     0.0564
     17  C17       51.3170   45.7320   71.8230 C.ar  1001  PSB1001     0.0230
     18  C18       52.6110   44.3540   70.3090 C.2   1001  PSB1001     0.2651
     19  O19       51.6390   43.5080   70.1400 O.2   1001  PSB1001    -0.2684
     20  N20       53.7350   44.0520   70.0400 N.am  1001  PSB1001    -0.1968
     21  C21       53.7690   42.5900   69.6760 C.3   1001  PSB1001     0.1423
     22  C22       55.1120   42.0140   70.1290 C.ar  1001  PSB1001     0.0055
     23  C23       55.3290   42.4320   71.5760 C.ar  1001  PSB1001    -0.0021
     24  C24       56.4210   41.9820   72.3490 C.ar  1001  PSB1001    -0.0002
     25  C25       57.3480   41.1540   71.8140 C.ar  1001  PSB1001     0.0005
     26  C26       57.2110   40.7400   70.4340 C.ar  1001  PSB1001     0.0062
     27  C27       56.0020   41.2260   69.5770 C.ar  1001  PSB1001     0.0271
     28  S28       55.7750   40.7290   67.9540 S.3   1001  PSB1001    -0.0874
     29  C29       57.2870   40.3620   67.2420 C.ar  1001  PSB1001     0.0279
     30  C30       58.2910   39.6600   67.9890 C.ar  1001  PSB1001     0.0062
     31  C31       59.5060   39.3570   67.4040 C.ar  1001  PSB1001     0.0005
     32  C32       59.7540   39.7410   66.0470 C.ar  1001  PSB1001    -0.0002
     33  C33       58.7450   40.4490   65.3030 C.ar  1001  PSB1001    -0.0012
     34  C34       57.5180   40.7510   65.9140 C.ar  1001  PSB1001     0.0166
     35  C35       56.4090   41.5080   65.1400 C.3   1001  PSB1001     0.2091
     36  O36       56.5140   42.8980   65.3220 O.3   1001  PSB1001    -0.2152
@<TRIPOS>BOND
     1    35    36    1
     2    35    34    1
     3    33    34   ar
     4    33    32   ar
     5    34    29   ar
     6    32    31   ar
     7    29    28    1
     8    29    30   ar
     9    31    30   ar
    10    28    27    1
    11    27    22   ar
    12    27    26   ar
    13    21    20    1
    14    21    22    1
    15    20    18   am
    16    22    23   ar
    17    19    18    2
    18    18    16    1
    19    26    25   ar
    20    16    15   ar
    21    16    17   ar
    22    15    14   ar
    23    23    24   ar
    24    25    24   ar
    25    17    12   ar
    26    14    13   ar
    27    12    13   ar
    28    12     8    1
    29     8     7    1
    30     8     9    1
    31     7     6    2
    32     9    10    2
    33     6    10    1
    34     6     4    1
    35    10    11    2
    36     5     4    2
    37     4     3    2
    38    11     2    2
    39     3     2    2
    40     2     1    1
