@<TRIPOS>MOLECULE
1rse_HEM_A_1.pdb
 43 50 0 0 0
SMALL
GASTEIGER

@<TRIPOS>ATOM
      1 FE         14.3230   29.8710    4.8350 Fe    154  HEM154      0.0000
      2  CHA       15.6190   33.0260    5.0630 C.2   154  HEM154      0.0000
      3  CHB       13.7150   29.8700    8.1960 C.2   154  HEM154      0.0000
      4  CHC       13.2050   26.6060    4.6950 C.2   154  HEM154      0.0000
      5  CHD       15.0410   29.7750    1.5550 C.2   154  HEM154      0.0000
      6  NA        14.6160   31.1830    6.3270 N.2   154  HEM154      0.0000
      7  C1A       15.1100   32.4660    6.2210 C.2   154  HEM154      0.0000
      8  C2A       15.0500   33.1050    7.5300 C.2   154  HEM154      0.0000
      9  C3A       14.4960   32.2460    8.3880 C.2   154  HEM154      0.0000
     10  C4A       14.2370   31.0160    7.6480 C.2   154  HEM154      0.0000
     11  CMA       14.2060   32.4120    9.8780 C.3   154  HEM154      0.0000
     12  CAA       15.5040   34.5660    7.7460 C.3   154  HEM154      0.0000
     13  CBA       14.3980   35.6350    7.6920 C.3   154  HEM154      0.0000
     14  CGA       13.6300   35.6560    6.3710 C.2   154  HEM154      0.0000
     15  O1A       14.2300   36.1440    5.3990 O.co2 154  HEM154      0.0000
     16  O2A       12.4870   35.1260    6.3840 O.co2 154  HEM154      0.0000
     17  NB        13.6420   28.5180    6.1670 N.ar  154  HEM154      0.0000
     18  C1B       13.4350   28.6930    7.5430 C.ar  154  HEM154      0.0000
     19  C2B       12.8840   27.4950    8.1360 C.ar  154  HEM154      0.0000
     20  C3B       12.7270   26.6040    7.1530 C.ar  154  HEM154      0.0000
     21  C4B       13.2370   27.2150    5.9440 C.ar  154  HEM154      0.0000
     22  CMB       12.4880   27.3180    9.6310 C.3   154  HEM154      0.0000
     23  CAB       12.1880   25.1750    7.2100 C.3   154  HEM154      0.0000
     24  CBB       12.5770   24.2710    8.3690 C.3   154  HEM154      0.0000
     25  NC        14.0750   28.4720    3.3780 N.2   154  HEM154      0.0000
     26  C1C       13.7010   27.1600    3.5250 C.2   154  HEM154      0.0000
     27  C2C       13.9540   26.4070    2.2990 C.2   154  HEM154      0.0000
     28  C3C       14.4860   27.2890    1.4340 C.2   154  HEM154      0.0000
     29  C4C       14.5810   28.5770    2.0990 C.2   154  HEM154      0.0000
     30  CMC       13.6510   24.9150    2.1490 C.3   154  HEM154      0.0000
     31  CAC       14.9650   27.0850   -0.0110 C.3   154  HEM154      0.0000
     32  CBC       15.3170   25.7930   -0.5920 C.3   154  HEM154      0.0000
     33  ND        15.0930   31.1780    3.5320 N.ar  154  HEM154      0.0000
     34  C1D       15.4130   30.9380    2.2030 C.ar  154  HEM154      0.0000
     35  C2D       16.1420   32.0650    1.6560 C.ar  154  HEM154      0.0000
     36  C3D       16.2560   32.9650    2.6160 C.ar  154  HEM154      0.0000
     37  C4D       15.6400   32.4230    3.8120 C.ar  154  HEM154      0.0000
     38  CMD       16.5810   32.1400    0.1750 C.3   154  HEM154      0.0000
     39  CAD       17.0220   34.3260    2.6000 C.3   154  HEM154      0.0000
     40  CBD       18.4390   34.1160    3.2050 C.3   154  HEM154      0.0000
     41  CGD       19.4900   35.1440    3.0070 C.2   154  HEM154      0.0000
     42  O1D       20.1640   35.1420    1.9420 O.co2 154  HEM154      0.0000
     43  O2D       19.6870   35.9960    3.9070 O.co2 154  HEM154      0.0000
@<TRIPOS>BOND
     1    32    31    1
     2    31    28    1
     3    38    35    1
     4    28    29    1
     5    28    27    2
     6     5    29    1
     7     5    34    2
     8    35    34   ar
     9    35    36   ar
    10    42    41   ar
    11    29    25    2
    12    30    27    1
    13    34    33   ar
    14    27    26    1
    15    39    36    1
    16    39    40    1
    17    36    37   ar
    18    41    40    1
    19    41    43   ar
    20    25    26    1
    21    25     1    1
    22    26     4    2
    23    33    37   ar
    24    33     1    1
    25    37     2    2
    26     4    21    1
    27     1    17    1
    28     1     6    1
    29     2     7    1
    30    15    14   ar
    31    21    17   ar
    32    21    20   ar
    33    17    18   ar
    34     7     6    2
    35     7     8    1
    36     6    10    1
    37    14    16   ar
    38    14    13    1
    39    20    23    1
    40    20    19   ar
    41    23    24    1
    42     8    12    1
    43     8     9    2
    44    18    19   ar
    45    18     3    1
    46    10     3    2
    47    10     9    1
    48    13    12    1
    49    19    22    1
    50     9    11    1
