@<TRIPOS>MOLECULE
1rsi_977_A_1.pdb
 15 16 0 0 0
SMALL
GASTEIGER

@<TRIPOS>ATOM
      1  N1        47.8010   44.9010   78.9940 N.pl3 1001  9771001    -0.0226
      2  C2        47.8660   45.6470   77.8720 C.1   1001  9771001     0.2513
      3  N3        48.9410   45.5550   77.0970 N.2   1001  9771001    -0.3277
      4  C4        49.0550   46.3020   75.9260 C.2   1001  9771001     0.1497
      5  C5        48.0250   47.1780   75.5140 C.3   1001  9771001     0.2277
      6 BR6        48.1460   48.2120   73.8810 Br    1001  9771001    -0.0547
      7  C7        46.8040   47.2640   76.4030 C.1   1001  9771001     0.2085
      8  O8        45.8350   48.0110   76.1340 O.2   1001  9771001    -0.2121
      9  N9        46.8000   46.4920   77.5330 N.2   1001  9771001    -0.2532
     10  C10       50.2730   46.1180   75.1110 C.ar  1001  9771001     0.0284
     11  C11       51.2510   47.1380   75.0150 C.ar  1001  9771001     0.0023
     12  C12       52.3990   46.9520   74.2010 C.ar  1001  9771001     0.0001
     13  C13       52.5650   45.7410   73.4750 C.ar  1001  9771001     0.0000
     14  C14       51.5910   44.7120   73.5740 C.ar  1001  9771001     0.0001
     15  C15       50.4480   44.8940   74.3850 C.ar  1001  9771001     0.0023
@<TRIPOS>BOND
     1    13    14   ar
     2    13    12   ar
     3    14    15   ar
     4     6     5    1
     5    12    11   ar
     6    15    10   ar
     7    11    10   ar
     8    10     4    1
     9     5     4    1
    10     5     7    1
    11     4     3    2
    12     8     7    2
    13     7     9    2
    14     3     2    2
    15     9     2    2
    16     2     1    1
