@<TRIPOS>MOLECULE
1rsm_NIN_A_1.pdb
 12 12 0 0 0
SMALL
GASTEIGER

@<TRIPOS>ATOM
      1  C1        12.4330    2.2810   19.6710 C.ar  125  NIN125      0.0242
      2  C2        13.4390    1.7170   20.4660 C.ar  125  NIN125      0.1445
      3  N2        13.1220    0.7670   21.4490 N.pl3 125  NIN125      0.0577
      4  O21       11.8970    0.4120   21.6490 O.2   125  NIN125     -0.1261
      5  O22       14.0760    0.2390   22.1690 O.2   125  NIN125     -0.1261
      6  C3        14.8000    2.0570   20.2690 C.ar  125  NIN125      0.0481
      7  C4        15.1190    2.9820   19.2410 C.ar  125  NIN125      0.1445
      8  N4        16.4760    3.3130   19.0900 N.pl3 125  NIN125      0.0577
      9  O41       17.3580    2.7560   19.8920 O.2   125  NIN125     -0.1261
     10  O42       16.8660    4.0880   18.1360 O.2   125  NIN125     -0.1261
     11  C5        14.1380    3.5350   18.4350 C.ar  125  NIN125      0.0242
     12  C6        12.7950    3.1800   18.6430 C.ar  125  NIN125      0.0034
@<TRIPOS>BOND
     1    10     8    2
     2    11    12   ar
     3    11     7   ar
     4    12     1   ar
     5     8     7    1
     6     8     9    2
     7     7     6   ar
     8     1     2   ar
     9     6     2   ar
    10     2     3    1
    11     3     4    2
    12     3     5    2
