@<TRIPOS>MOLECULE
1rsn_SGP_A_1.pdb
 23 26 0 0 0
SMALL
GASTEIGER

@<TRIPOS>ATOM
      1  P         58.9850   10.5700   20.4690 P.3    97  SGP97       0.4036
      2  S1P       59.9840   12.0580   21.2060 S.3    97  SGP97       0.0393
      3  O1P       59.1470   10.2950   19.0730 O.2    97  SGP97      -0.2449
      4  O5'       55.8360    7.1240   23.2060 O.3    97  SGP97      -0.2176
      5  C5'       56.9990    6.5970   22.5610 C.3    97  SGP97       0.2141
      6  C4'       57.6220    7.4190   21.4780 C.3    97  SGP97       0.1800
      7  O4'       56.9010    7.6700   20.2270 O.3    97  SGP97      -0.3327
      8  C3'       57.9450    8.8210   22.0030 C.3    97  SGP97       0.1860
      9  O3'       59.2310    9.3250   21.4010 O.3    97  SGP97      -0.2835
     10  C2'       56.7590    9.7300   21.5420 C.3    97  SGP97       0.2011
     11  O2'       57.3820   10.8320   20.8590 O.3    97  SGP97      -0.2818
     12  C1'       56.1130    8.8250   20.4570 C.3    97  SGP97       0.2264
     13  N9        54.7390    8.6550   20.3810 N.pl3  97  SGP97      -0.2354
     14  C8        54.1360    7.4550   20.6020 C.3    97  SGP97       0.2246
     15  N7        52.8140    7.4350   20.3710 N.2    97  SGP97      -0.2322
     16  C5        52.5540    8.7770   20.0200 C.2    97  SGP97       0.2182
     17  C6        51.3740    9.4290   19.6630 C.1    97  SGP97       0.2372
     18  O6        50.2410    8.9200   19.5610 O.2    97  SGP97      -0.2069
     19  N1        51.5340   10.7840   19.4110 N.2    97  SGP97      -0.2485
     20  C2        52.7560   11.4330   19.4720 C.1    97  SGP97       0.2531
     21  N2        52.6520   12.7430   19.0900 N.pl3  97  SGP97      -0.0226
     22  N3        53.8750   10.8450   19.8310 N.2    97  SGP97      -0.3074
     23  C4        53.7350    9.5290   20.0240 C.2    97  SGP97       0.2300
@<TRIPOS>BOND
     1     3     1    2
     2    21    20    1
     3    19    20    2
     4    19    17    2
     5    20    22    2
     6    18    17    2
     7    17    16    1
     8    22    23    2
     9    16    23    1
    10    16    15    2
    11    23    13    1
    12     7    12    1
    13     7     6    1
    14    15    14    1
    15    13    12    1
    16    13    14    1
    17    12    10    1
    18     1    11    1
    19     1     2    1
    20     1     9    1
    21    11    10    1
    22     9     8    1
    23     6     8    1
    24     6     5    1
    25    10     8    1
    26     5     4    1
