@<TRIPOS>MOLECULE
1rt1_MKC_A_1.pdb
 22 23 0 0 0
SMALL
GASTEIGER

@<TRIPOS>ATOM
      1  C1        -1.0830  -33.7260   26.7730 C.ar  999  MKC999     -0.0164
      2  C2        -1.5740  -33.1070   27.9140 C.ar  999  MKC999     -0.0039
      3  C3        -0.7970  -32.1960   28.6140 C.ar  999  MKC999     -0.0003
      4  C4         0.4880  -31.8870   28.1790 C.ar  999  MKC999     -0.0000
      5  C5         0.9870  -32.4870   27.0450 C.ar  999  MKC999     -0.0003
      6  C6         0.2040  -33.4020   26.3410 C.ar  999  MKC999     -0.0039
      7  C7        -1.8470  -34.8860   24.6220 C.2   999  MKC999      0.0551
      8  N8        -2.6800  -34.0170   23.9500 N.am  999  MKC999     -0.1806
      9  C9        -2.8330  -34.0570   22.5710 C.1   999  MKC999      0.2842
     10  O9        -3.6270  -33.3340   21.9680 O.2   999  MKC999     -0.1919
     11  N10       -2.0840  -34.9970   21.9110 N.2   999  MKC999     -0.2455
     12  C11       -1.2040  -35.8940   22.4960 C.1   999  MKC999      0.2130
     13  O11       -0.5470  -36.6700   21.8100 O.2   999  MKC999     -0.2088
     14  C12       -1.1190  -35.8150   23.9210 C.2   999  MKC999      0.0834
     15  C13       -1.8560  -34.8520   26.1390 C.3   999  MKC999      0.0689
     16  C14       -0.2140  -36.8770   24.5210 C.3   999  MKC999      0.0355
     17  C15       -0.9370  -38.0870   25.0730 C.3   999  MKC999      0.0055
     18  C16        0.8910  -36.3690   25.4020 C.3   999  MKC999      0.0055
     19  C17       -3.3510  -32.9190   24.6740 C.3   999  MKC999      0.2551
     20  O17       -4.4930  -33.3780   25.3960 O.3   999  MKC999     -0.3336
     21  C18       -5.7050  -33.5160   24.6380 C.3   999  MKC999      0.1443
     22  C19       -6.8360  -34.2140   25.3000 C.3   999  MKC999      0.0347
@<TRIPOS>BOND
     1    13    12    2
     2    11    12    2
     3    11     9    2
     4    10     9    2
     5    12    14    1
     6     9     8   am
     7    14    16    1
     8    14     7    2
     9     8     7    1
    10     8    19    1
    11    16    17    1
    12    16    18    1
    13     7    15    1
    14    21    22    1
    15    21    20    1
    16    19    20    1
    17    15     1    1
    18     6     1   ar
    19     6     5   ar
    20     1     2   ar
    21     5     4   ar
    22     2     3   ar
    23     4     3   ar
