@<TRIPOS>MOLECULE
1rt2_TNK_A_1.pdb
 27 29 0 0 0
SMALL
GASTEIGER

@<TRIPOS>ATOM
      1  C1        -1.2100  -34.5120   26.5980 C.ar  999  TNK999     -0.0164
      2  C2        -1.7060  -33.8430   27.7000 C.ar  999  TNK999     -0.0039
      3  C3        -0.9010  -32.9710   28.4240 C.ar  999  TNK999     -0.0003
      4  C4         0.4100  -32.7590   28.0510 C.ar  999  TNK999     -0.0000
      5  C5         0.9210  -33.4170   26.9480 C.ar  999  TNK999     -0.0003
      6  C6         0.1100  -34.2910   26.2230 C.ar  999  TNK999     -0.0039
      7  C7        -1.8060  -35.5930   24.3900 C.2   999  TNK999      0.0551
      8  N8        -2.5730  -34.8770   23.5310 N.am  999  TNK999     -0.1806
      9  C9        -2.4700  -35.0290   22.1300 C.1   999  TNK999      0.2842
     10  O9        -3.1430  -34.4090   21.3230 O.2   999  TNK999     -0.1919
     11  N10       -1.5470  -35.9270   21.6820 N.2   999  TNK999     -0.2455
     12  C11       -0.7180  -36.6810   22.4670 C.1   999  TNK999      0.2130
     13  O11        0.0850  -37.4310   21.9230 O.2   999  TNK999     -0.2088
     14  C12       -0.8960  -36.4660   23.9180 C.2   999  TNK999      0.0834
     15  C13       -2.0670  -35.4850   25.8710 C.3   999  TNK999      0.0689
     16  C14       -0.0190  -37.2660   24.8480 C.3   999  TNK999      0.0355
     17  C15       -0.5780  -38.6370   25.1270 C.3   999  TNK999      0.0055
     18  C16        1.4560  -37.2920   24.4280 C.3   999  TNK999      0.0055
     19  C17       -3.5170  -33.9150   24.0820 C.3   999  TNK999      0.2554
     20  O17       -4.7760  -34.1070   23.5020 O.3   999  TNK999     -0.3287
     21  C18       -5.9090  -33.8880   24.3300 C.3   999  TNK999      0.1707
     22  C19       -6.9890  -34.8930   24.1830 C.ar  999  TNK999      0.0073
     23  C20       -6.8960  -35.8680   23.1900 C.ar  999  TNK999     -0.0019
     24  C21       -7.8420  -36.8520   23.0770 C.ar  999  TNK999     -0.0002
     25  C22       -8.9070  -36.8820   23.9580 C.ar  999  TNK999     -0.0000
     26  C23       -9.0200  -35.9140   24.9510 C.ar  999  TNK999     -0.0002
     27  C24       -8.0580  -34.9180   25.0590 C.ar  999  TNK999     -0.0019
@<TRIPOS>BOND
     1    10     9    2
     2    11     9    2
     3    11    12    2
     4    13    12    2
     5     9     8   am
     6    12    14    1
     7    24    23   ar
     8    24    25   ar
     9    23    22   ar
    10    20    19    1
    11    20    21    1
    12     8    19    1
    13     8     7    1
    14    14     7    2
    15    14    16    1
    16    25    26   ar
    17    22    21    1
    18    22    27   ar
    19     7    15    1
    20    18    16    1
    21    16    17    1
    22    26    27   ar
    23    15     1    1
    24     6     1   ar
    25     6     5   ar
    26     1     2   ar
    27     5     4   ar
    28     2     3   ar
    29     4     3   ar
