@<TRIPOS>MOLECULE
1rt3_U05_A_1.pdb
 22 24 0 0 0
SMALL
GASTEIGER

@<TRIPOS>ATOM
      1  N1         0.3710  -36.3250   19.8030 N.ar  999  U05999     -0.2287
      2  C2        -0.5070  -35.7400   18.9620 C.ar  999  U05999      0.1003
      3  C3        -1.4990  -34.8920   19.4070 C.ar  999  U05999      0.0209
      4  C4        -1.6020  -34.6290   20.7560 C.ar  999  U05999      0.0089
      5  C4A       -0.7120  -35.2220   21.6340 C.ar  999  U05999      0.0858
      6  C5        -0.9180  -35.0390   23.1310 C.2   999  U05999      0.2555
      7  O13       -2.0770  -34.9970   23.5510 O.2   999  U05999     -0.2695
      8  N6         0.1150  -34.9190   23.9730 N.am  999  U05999     -0.2521
      9  C12       -0.1440  -34.7070   25.4170 C.3   999  U05999      0.1204
     10  C6A        1.5130  -34.9400   23.6390 C.ar  999  U05999      0.0679
     11  C7         2.3840  -34.1110   24.3410 C.ar  999  U05999      0.0179
     12  C8         3.7420  -34.1410   24.0830 C.ar  999  U05999      0.0254
     13  C9         4.2460  -34.9990   23.1180 C.ar  999  U05999      0.1442
     14  N          5.6830  -35.0290   22.8440 N.pl3 999  U05999      0.0577
     15  O1         6.0740  -35.7720   21.9760 O.2   999  U05999     -0.1261
     16  O2         6.3790  -34.3160   23.5210 O.2   999  U05999     -0.1261
     17  C10        3.3850  -35.8320   22.4180 C.ar  999  U05999      0.0402
     18  C11        2.0220  -35.8100   22.6740 C.ar  999  U05999      0.0682
     19  N11        1.1500  -36.6910   22.0080 N.pl3 999  U05999     -0.2712
     20  C14        1.7820  -37.9430   21.4790 C.3   999  U05999      0.0970
     21  C15        1.2830  -39.2030   22.1140 C.3   999  U05999      0.0236
     22  C1A        0.2710  -36.0690   21.1190 C.ar  999  U05999      0.1398
@<TRIPOS>BOND
     1     2     3   ar
     2     2     1   ar
     3     3     4   ar
     4     1    22   ar
     5     4     5   ar
     6    22     5   ar
     7    22    19    1
     8    20    19    1
     9    20    21    1
    10     5     6    1
    11    15    14    2
    12    19    18    1
    13    17    18   ar
    14    17    13   ar
    15    18    10   ar
    16    14    13    1
    17    14    16    2
    18    13    12   ar
    19     6     7    2
    20     6     8   am
    21    10     8    1
    22    10    11   ar
    23     8     9    1
    24    12    11   ar
