@<TRIPOS>MOLECULE
1rt4_UC1_A_1.pdb
 22 23 0 0 0
SMALL
GASTEIGER

@<TRIPOS>ATOM
      1  C2        -1.6830  -34.7560   23.8460 C.ar  999  UC1999      0.0543
      2  C4        -3.8530  -33.7430   24.1460 C.ar  999  UC1999      0.0916
      3  C5        -4.0900  -33.8630   22.7780 C.ar  999  UC1999      0.0158
      4  C6        -3.1510  -34.4270   21.9600 C.ar  999  UC1999      0.0176
      5  O7         1.3610  -37.8030   24.9380 O.2   999  UC1999     -0.4546
      6  C8         1.4930  -37.1170   23.7080 C.ar  999  UC1999      0.1251
      7  C9         0.2990  -36.8910   23.1400 C.ar  999  UC1999      0.0553
      8  C10       -0.7030  -37.4910   24.0900 C.ar  999  UC1999      0.0452
      9  C11        0.0020  -38.0040   25.1150 C.ar  999  UC1999      0.1792
     10  CA         2.9200  -36.7730   23.2910 C.3   999  UC1999      0.0725
     11  C          0.1060  -36.2200   21.7920 C.2   999  UC1999      0.1085
     12  S          1.1910  -36.4450   20.5170 S.2   999  UC1999     -0.0327
     13  N         -1.0340  -35.4560   21.5430 N.am  999  UC1999     -0.2053
     14  C1        -1.9350  -34.8870   22.4810 C.ar  999  UC1999      0.0741
     15  C3        -2.6420  -34.1860   24.6880 C.ar  999  UC1999      0.1508
     16 CL         -5.0960  -33.1050   25.1280 Cl    999  UC1999     -0.0791
     17  OB        -2.4120  -34.0860   26.0500 O.3   999  UC1999     -0.4698
     18  CC        -1.3060  -34.8010   26.6530 C.3   999  UC1999      0.2312
     19  CD        -0.0130  -34.0990   26.2820 C.2   999  UC1999      0.0122
     20  CE         0.5410  -33.1000   26.9720 C.2   999  UC1999     -0.0443
     21  CF         1.8080  -32.4510   26.5560 C.3   999  UC1999      0.0261
     22  CG        -0.0550  -32.5570   28.2180 C.3   999  UC1999      0.0261
@<TRIPOS>BOND
     1    12    11    2
     2    13    11    1
     3    13    14    1
     4    11     7    1
     5     4    14   ar
     6     4     3   ar
     7    14     1   ar
     8     3     2   ar
     9     7     6   ar
    10     7     8   ar
    11    10     6    1
    12     6     5   ar
    13     1    15   ar
    14     8     9   ar
    15     2    15   ar
    16     2    16    1
    17    15    17    1
    18     5     9   ar
    19    17    18    1
    20    19    18    1
    21    19    20    2
    22    21    20    1
    23    20    22    1
