@<TRIPOS>MOLECULE
1rt5_UC2_A_1.pdb
 23 24 0 0 0
SMALL
GASTEIGER

@<TRIPOS>ATOM
      1  O7         1.3880  -37.4790   25.0750 O.2   999  UC2999     -0.4546
      2  C8         1.5770  -36.8810   23.8190 C.ar  999  UC2999      0.1251
      3  C9         0.4130  -36.7450   23.1630 C.ar  999  UC2999      0.0553
      4  C10       -0.6300  -37.3070   24.0880 C.ar  999  UC2999      0.0452
      5  C11        0.0190  -37.7160   25.1850 C.ar  999  UC2999      0.1792
      6  CA         3.0220  -36.5220   23.4660 C.3   999  UC2999      0.0725
      7  C          0.2740  -36.1780   21.7630 C.2   999  UC2999      0.1085
      8  S          1.4840  -36.3340   20.6100 S.2   999  UC2999     -0.0327
      9  N         -0.8850  -35.5090   21.4010 N.am  999  UC2999     -0.2054
     10  C1        -1.7920  -34.8680   22.2790 C.ar  999  UC2999      0.0712
     11  C2        -1.4840  -34.5800   23.6020 C.ar  999  UC2999      0.0190
     12  C3        -2.4270  -34.0010   24.4330 C.ar  999  UC2999      0.0343
     13  C4        -3.6890  -33.6980   23.9370 C.ar  999  UC2999      0.0593
     14  C5        -3.9940  -33.9690   22.6040 C.ar  999  UC2999      0.0128
     15  C6        -3.0590  -34.5470   21.7860 C.ar  999  UC2999      0.0174
     16 CL         -4.9010  -33.0820   24.9460 Cl    999  UC2999     -0.0822
     17  CB        -2.0760  -33.7270   25.8230 C.2   999  UC2999      0.1409
     18  NC        -0.7380  -33.3830   26.0710 N.2   999  UC2999     -0.0816
     19  OD        -0.3640  -33.1570   27.1420 O.2   999  UC2999     -0.3848
     20  CE         1.0280  -33.2370   27.2630 C.3   999  UC2999      0.1614
     21  CF         1.3670  -33.1640   28.7010 C.3   999  UC2999      0.0464
     22  CG         1.6700  -32.1060   26.5370 C.3   999  UC2999      0.0464
     23  CH         1.5290  -34.5200   26.7050 C.3   999  UC2999      0.0464
@<TRIPOS>BOND
     1     8     7    2
     2     9     7    1
     3     9    10    1
     4     7     3    1
     5    15    10   ar
     6    15    14   ar
     7    10    11   ar
     8    14    13   ar
     9     3     2   ar
    10     3     4   ar
    11     6     2    1
    12    11    12   ar
    13     2     1   ar
    14    13    12   ar
    15    13    16    1
    16     4     5   ar
    17    12    17    1
    18     1     5   ar
    19    17    18    2
    20    18    19    1
    21    22    20    1
    22    23    20    1
    23    19    20    1
    24    20    21    1
