@<TRIPOS>MOLECULE
1rt6_UC3_A_1.pdb
 20 20 0 0 0
SMALL
GASTEIGER

@<TRIPOS>ATOM
      1  C         -0.0230  -35.6750   21.0390 C.2   999  UC3999      0.2533
      2  S          0.9110  -35.9430   19.6510 S.2   999  UC3999      0.0079
      3  N         -1.1070  -34.7630   21.0100 N.am  999  UC3999     -0.1731
      4  C1        -1.9580  -34.2930   22.0900 C.ar  999  UC3999      0.0743
      5  C2        -1.5100  -34.3230   23.4310 C.ar  999  UC3999      0.0239
      6  C3        -2.3210  -33.8670   24.4810 C.ar  999  UC3999      0.0875
      7  C4        -3.6160  -33.3800   24.1820 C.ar  999  UC3999      0.0640
      8 CL4        -4.6980  -32.8530   25.4730 Cl    999  UC3999     -0.0820
      9  C5        -4.0730  -33.3340   22.8520 C.ar  999  UC3999      0.0129
     10  C6        -3.2510  -33.7920   21.8130 C.ar  999  UC3999      0.0175
     11  CA        -1.7430  -33.9350   25.9080 C.2   999  UC3999      0.3420
     12  OB        -1.4760  -32.6780   26.4190 O.3   999  UC3999     -0.4492
     13  OA        -1.5400  -34.9660   26.5260 O.2   999  UC3999     -0.2449
     14  CC        -0.1460  -32.5590   26.9630 C.3   999  UC3999      0.1694
     15  CD         0.4270  -31.1980   26.5320 C.3   999  UC3999      0.0473
     16  CE        -0.2300  -32.6810   28.4920 C.3   999  UC3999      0.0473
     17  OF         0.1220  -36.2580   22.2850 O.3   999  UC3999     -0.4608
     18  CG         1.4380  -36.2030   22.9020 C.3   999  UC3999      0.1681
     19  CH         1.3860  -36.9670   24.2490 C.3   999  UC3999      0.0473
     20  CI         2.4750  -36.8220   21.9280 C.3   999  UC3999      0.0473
@<TRIPOS>BOND
     1     2     1    2
     2     3     1    1
     3     3     4    1
     4     1    17    1
     5    10     4   ar
     6    10     9   ar
     7    20    18    1
     8     4     5   ar
     9    17    18    1
    10     9     7   ar
    11    18    19    1
    12     5     6   ar
    13     7     6   ar
    14     7     8    1
    15     6    11    1
    16    11    12    1
    17    11    13    2
    18    12    14    1
    19    15    14    1
    20    14    16    1
