@<TRIPOS>MOLECULE
1rt7_UC4_A_1.pdb
 23 24 0 0 0
SMALL
GASTEIGER

@<TRIPOS>ATOM
      1 CL         -4.4230  -32.9080   25.7810 Cl    999  UC4999     -0.0820
      2  C1        -2.0130  -34.0240   24.8410 C.ar  999  UC4999      0.0875
      3  C2        -3.2920  -33.4770   24.5560 C.ar  999  UC4999      0.0640
      4  C3        -3.7250  -33.3850   23.2310 C.ar  999  UC4999      0.0129
      5  C4        -2.9440  -33.8260   22.2070 C.ar  999  UC4999      0.0175
      6  C5        -1.6840  -34.3790   22.4610 C.ar  999  UC4999      0.0740
      7  C6        -1.2280  -34.4590   23.7780 C.ar  999  UC4999      0.0239
      8  O7        -0.9390  -35.2910   26.5580 O.2   999  UC4999     -0.2449
      9  C7        -1.3830  -34.2340   26.2040 C.2   999  UC4999      0.3420
     10  O8        -1.3720  -33.1530   26.9370 O.3   999  UC4999     -0.4492
     11  C8        -0.0810  -32.5380   27.2190 C.3   999  UC4999      0.1694
     12  C9        -0.1270  -31.1850   26.6040 C.3   999  UC4999      0.0473
     13  C10        0.0610  -32.5450   28.7000 C.3   999  UC4999      0.0473
     14  OA        -0.6150  -38.0540   24.3130 O.2   999  UC4999     -0.4781
     15  CB        -0.7070  -37.3620   23.1400 C.2   999  UC4999      0.1265
     16  CC         0.3340  -36.7460   22.5490 C.2   999  UC4999      0.1105
     17  S          2.0070  -37.0370   23.0550 S.3   999  UC4999     -0.1026
     18  CD         1.7540  -37.8400   24.6450 C.3   999  UC4999      0.1096
     19  CE         0.5810  -38.7200   24.6340 C.3   999  UC4999      0.2169
     20  CF        -2.0830  -37.4260   22.6760 C.3   999  UC4999      0.0725
     21  OG         0.9980  -35.7200   20.4590 O.2   999  UC4999     -0.2674
     22  CG         0.1890  -35.7570   21.3720 C.2   999  UC4999      0.2773
     23  N         -0.9090  -34.8940   21.3830 N.am  999  UC4999     -0.1749
@<TRIPOS>BOND
     1    21    22    2
     2    22    23   am
     3    22    16    1
     4    23     6    1
     5     5     6   ar
     6     5     4   ar
     7     6     7   ar
     8    16    17    1
     9    16    15    2
    10    20    15    1
    11    17    18    1
    12    15    14    1
    13     4     3   ar
    14     7     2   ar
    15    14    19    1
    16     3     2   ar
    17     3     1    1
    18    19    18    1
    19     2     9    1
    20     9     8    2
    21     9    10    1
    22    12    11    1
    23    10    11    1
    24    11    13    1
