@<TRIPOS>MOLECULE
1rt9_IMH_A_1.pdb
 19 21 0 0 0
SMALL
GASTEIGER

@<TRIPOS>ATOM
      1  O5'        1.9690   21.5960   23.5140 O.3   300  IMH300     -0.2188
      2  C5'        1.8330   20.2210   23.1900 C.3   300  IMH300      0.2020
      3  C4'        3.1680   19.5870   23.2690 C.3   300  IMH300      0.1389
      4  N4'        3.7740   19.7160   24.5680 N.3   300  IMH300     -0.2083
      5  C3'        3.0670   18.1310   22.9340 C.3   300  IMH300      0.2023
      6  O3'        3.8370   17.9750   21.7320 O.3   300  IMH300     -0.2188
      7  C2'        3.6800   17.4240   24.1050 C.3   300  IMH300      0.2036
      8  O2'        4.8190   16.6650   23.6690 O.3   300  IMH300     -0.2185
      9  C1'        4.1040   18.4620   25.1840 C.3   300  IMH300      0.1309
     10  C9         3.2740   18.3960   26.4820 C.2   300  IMH300      0.0348
     11  C8         3.1840   19.4330   27.4110 C.2   300  IMH300      0.0984
     12  N7         2.4170   19.1890   28.4370 N.2   300  IMH300     -0.2310
     13  C5         1.9350   17.9010   28.2310 C.2   300  IMH300      0.1804
     14  C6         1.0370   17.1220   29.0360 C.1   300  IMH300      0.1716
     15  O6         0.5190   17.4600   30.0930 O.2   300  IMH300     -0.2206
     16  N1         0.7700   15.8470   28.5070 N.2   300  IMH300     -0.1739
     17  C2         1.3060   15.3630   27.3090 C.3   300  IMH300      0.2626
     18  N3         2.1550   16.1010   26.5330 N.2   300  IMH300     -0.2415
     19  C4         2.4360   17.3720   27.0380 C.2   300  IMH300      0.1059
@<TRIPOS>BOND
     1     6     5    1
     2     5     3    1
     3     5     7    1
     4     2     3    1
     5     2     1    1
     6     3     4    1
     7     8     7    1
     8     7     9    1
     9     4     9    1
    10     9    10    1
    11    10    19    1
    12    10    11    2
    13    18    19    2
    14    18    17    1
    15    19    13    1
    16    17    16    1
    17    11    12    1
    18    13    12    2
    19    13    14    1
    20    16    14    2
    21    14    15    2
