@<TRIPOS>MOLECULE
1rtd_TTP_A_1.pdb
 29 30 0 0 0
SMALL
GASTEIGER

@<TRIPOS>ATOM
      1  PA        50.0260   26.5450   35.3880 P.3   700  TTP700      0.2189
      2  O1A       48.8390   25.9780   36.0690 O.3   700  TTP700     -0.4371
      3  O2A       50.7640   27.6710   36.0190 O.2   700  TTP700     -0.5170
      4  O3A       50.8760   25.3020   34.6420 O.3   700  TTP700     -0.2700
      5  PB        50.2330   23.8520   34.2100 P.3   700  TTP700      0.2277
      6  O1B       50.4710   23.3410   32.8320 O.2   700  TTP700     -0.5168
      7  O2B       48.8870   23.7300   34.8180 O.3   700  TTP700     -0.4368
      8  O3B       51.0130   22.8820   35.0690 O.3   700  TTP700     -0.2258
      9  PG        51.2980   22.7840   36.6260 P.3   700  TTP700      0.5373
     10  O1G       50.0080   22.8450   37.3540 O.3   700  TTP700     -0.1143
     11  O2G       52.0320   21.4870   36.5400 O.2   700  TTP700     -0.2221
     12  O3G       52.1610   24.3140   37.0220 O.3   700  TTP700     -0.1143
     13  O5'       49.5060   27.0130   33.9590 O.3   700  TTP700     -0.3112
     14  C5'       48.2360   26.5890   33.4930 C.3   700  TTP700      0.1812
     15  C4'       48.1440   26.7870   32.0090 C.3   700  TTP700      0.1773
     16  O4'       48.3580   28.1880   31.7310 O.3   700  TTP700     -0.3339
     17  C3'       49.2060   26.0760   31.1990 C.3   700  TTP700      0.1857
     18  O3'       48.7540   24.7670   30.8560 O.3   700  TTP700     -0.2203
     19  C2'       49.2880   26.9230   29.9460 C.3   700  TTP700      0.0874
     20  C1'       48.9650   28.3230   30.4600 C.3   700  TTP700      0.2090
     21  N1        50.1570   29.1380   30.6200 N.am  700  TTP700     -0.1794
     22  C2        50.9680   29.3240   29.5300 C.1   700  TTP700      0.2844
     23  O2        50.6860   28.9320   28.4140 O.2   700  TTP700     -0.1918
     24  N3        52.1200   30.0090   29.7990 N.2   700  TTP700     -0.2455
     25  C4        52.5120   30.5380   31.0150 C.1   700  TTP700      0.2134
     26  O4        53.5980   31.0880   31.1250 O.2   700  TTP700     -0.2088
     27  C5        51.5650   30.3710   32.0890 C.2   700  TTP700      0.0891
     28  C5M       51.8540   30.9920   33.4160 C.3   700  TTP700      0.0462
     29  C6        50.4560   29.6760   31.8490 C.2   700  TTP700      0.0877
@<TRIPOS>BOND
     1    23    22    2
     2    22    24    2
     3    22    21   am
     4    24    25    2
     5    19    20    1
     6    19    17    1
     7    20    21    1
     8    20    16    1
     9    21    29    1
    10    18    17    1
    11    25    26    2
    12    25    27    1
    13    17    15    1
    14    16    15    1
    15    29    27    2
    16    15    14    1
    17    27    28    1
    18     6     5    2
    19    14    13    1
    20    13     1    1
    21     5     4    1
    22     5     7    1
    23     5     8    1
    24     4     1    1
    25     8     9    1
    26     1     3    2
    27     1     2    1
    28    11     9    2
    29     9    12    1
    30     9    10    1
