@<TRIPOS>MOLECULE
1rte_HEM_A_1.pdb
 43 50 0 0 0
SMALL
GASTEIGER

@<TRIPOS>ATOM
      1 FE         27.7390   12.0030   62.1910 Fe    144  HEM144      0.0000
      2  CHA       28.5320    9.7700   64.5720 C.2   144  HEM144      0.0000
      3  CHB       29.8360   10.3800   59.9950 C.2   144  HEM144      0.0000
      4  CHC       26.6070   13.9770   59.6680 C.2   144  HEM144      0.0000
      5  CHD       26.0970   13.9620   64.4570 C.2   144  HEM144      0.0000
      6  NA        28.9070   10.3520   62.2130 N.ar  144  HEM144      0.0000
      7  C1A       29.1690    9.6050   63.3610 C.ar  144  HEM144      0.0000
      8  C2A       30.2260    8.6720   63.0930 C.ar  144  HEM144      0.0000
      9  C3A       30.5950    8.8450   61.8250 C.ar  144  HEM144      0.0000
     10  C4A       29.7830    9.8990   61.2580 C.ar  144  HEM144      0.0000
     11  CMA       31.7120    8.0450   61.1180 C.3   144  HEM144      0.0000
     12  CAA       30.8620    7.6480   64.0590 C.3   144  HEM144      0.0000
     13  CBA       29.9360    6.4460   64.1910 C.3   144  HEM144      0.0000
     14  CGA       30.4080    5.4790   65.2410 C.2   144  HEM144      0.0000
     15  O1A       30.4120    4.2630   64.9460 O.co2 144  HEM144      0.0000
     16  O2A       30.7650    5.9110   66.3620 O.co2 144  HEM144      0.0000
     17  NB        28.1650   12.1710   60.2220 N.2   144  HEM144      0.0000
     18  C1B       29.0460   11.3820   59.5230 C.2   144  HEM144      0.0000
     19  C2B       28.9940   11.7650   58.1420 C.2   144  HEM144      0.0000
     20  C3B       28.1280   12.7710   58.0410 C.2   144  HEM144      0.0000
     21  C4B       27.5650   13.0320   59.3470 C.2   144  HEM144      0.0000
     22  CMB       29.8590   11.1440   57.0380 C.3   144  HEM144      0.0000
     23  CAB       27.7640   13.4860   56.7350 C.2   144  HEM144      0.0000
     24  CBB       27.7610   14.8100   56.7100 C.2   144  HEM144      0.0000
     25  NC        26.5660   13.6630   62.0940 N.ar  144  HEM144      0.0000
     26  C1C       26.2130   14.3320   60.9500 C.ar  144  HEM144      0.0000
     27  C2C       25.3710   15.4500   61.3340 C.ar  144  HEM144      0.0000
     28  C3C       25.2330   15.4510   62.6640 C.ar  144  HEM144      0.0000
     29  C4C       25.9770   14.3250   63.1520 C.ar  144  HEM144      0.0000
     30  CMC       24.7380   16.4500   60.3640 C.3   144  HEM144      0.0000
     31  CAC       24.4250   16.4530   63.5120 C.2   144  HEM144      0.0000
     32  CBC       24.1340   17.6660   63.0080 C.2   144  HEM144      0.0000
     33  ND        27.3950   11.9190   64.1840 N.2   144  HEM144      0.0000
     34  C1D       26.6520   12.8160   64.9150 C.2   144  HEM144      0.0000
     35  C2D       26.5500   12.3520   66.2800 C.2   144  HEM144      0.0000
     36  C3D       27.3140   11.0440   66.3170 C.2   144  HEM144      0.0000
     37  C4D       27.8040   10.8540   64.9710 C.2   144  HEM144      0.0000
     38  CMD       25.8130   13.0600   67.4310 C.3   144  HEM144      0.0000
     39  CAD       27.5010   10.0590   67.4980 C.3   144  HEM144      0.0000
     40  CBD       28.4870   10.5460   68.5210 C.3   144  HEM144      0.0000
     41  CGD       28.1880    9.6680   69.7220 C.2   144  HEM144      0.0000
     42  O1D       27.9480   10.2340   70.7940 O.co2 144  HEM144      0.0000
     43  O2D       28.1500    8.4180   69.5870 O.co2 144  HEM144      0.0000
@<TRIPOS>BOND
     1    24    23    2
     2    23    20    1
     3    22    19    1
     4    20    19    2
     5    20    21    1
     6    19    18    1
     7    21     4    2
     8    21    17    1
     9    18     3    1
    10    18    17    2
    11     4    26    1
    12     3    10    2
    13    17     1    1
    14    30    27    1
    15    26    27   ar
    16    26    25   ar
    17    11     9    1
    18    10     9   ar
    19    10     6   ar
    20    27    28   ar
    21     9     8   ar
    22    25     1    1
    23    25    29   ar
    24     1     6    1
    25     1    33    1
    26     6     7   ar
    27    28    29   ar
    28    28    31    1
    29    32    31    2
    30     8     7   ar
    31     8    12    1
    32    29     5    1
    33     7     2    2
    34    12    13    1
    35    33    34    1
    36    33    37    2
    37    13    14    1
    38     5    34    2
    39     2    37    1
    40    34    35    1
    41    15    14   ar
    42    37    36    1
    43    14    16   ar
    44    35    36    2
    45    35    38    1
    46    36    39    1
    47    39    40    1
    48    40    41    1
    49    43    41   ar
    50    41    42   ar
