@<TRIPOS>MOLECULE
1rtf_BEN_B_1.pdb
 13 13 0 0 0
SMALL
GASTEIGER

@<TRIPOS>ATOM
      1  C1        -6.9210   31.2060   33.8930 C.ar  245  BEN245      0.0774
      2  C2        -8.1890   30.8360   34.3440 C.ar  245  BEN245      0.0072
      3  C3        -8.3350   29.8630   35.3420 C.ar  245  BEN245      0.0002
      4  C4        -7.2060   29.2540   35.8930 C.ar  245  BEN245      0.0000
      5  C5        -5.9320   29.6180   35.4450 C.ar  245  BEN245      0.0002
      6  C6        -5.7940   30.5890   34.4500 C.ar  245  BEN245      0.0072
      7  C         -6.7670   32.2490   32.8590 C.2   245  BEN245      0.2674
      8  N1        -5.5700   32.6410   32.4970 N.pl3 245  BEN245     -0.2497
      9  N2        -7.8240   32.7850   32.2990 N.2   245  BEN245     -0.2884
     10  HN1       -4.7580   32.2370   32.9190 H     245  BEN245      0.2883
     11 HN21       -8.7350   32.4810   32.5720 H     245  BEN245      0.3009
     12 HN22       -7.7180   33.4900   31.5990 H     245  BEN245      0.3009
     13 HN12       -5.4700   33.3480   31.7970 H     245  BEN245      0.2883
@<TRIPOS>BOND
     1    12     9    1
     2    13     8    1
     3     9    11    1
     4     9     7    2
     5     8     7    1
     6     8    10    1
     7     7     1    1
     8     1     2   ar
     9     1     6   ar
    10     2     3   ar
    11     6     5   ar
    12     3     4   ar
    13     5     4   ar
