@<TRIPOS>MOLECULE
1rth_U05_A_1.pdb
 22 24 0 0 0
SMALL
GASTEIGER

@<TRIPOS>ATOM
      1  N1        -1.5530  -35.6200   23.1860 N.ar  999  U05999     -0.2287
      2  C2        -2.4820  -35.0520   22.3410 C.ar  999  U05999      0.1003
      3  C3        -3.4460  -34.1360   22.8040 C.ar  999  U05999      0.0209
      4  C4        -3.4460  -33.7790   24.2040 C.ar  999  U05999      0.0089
      5  C4A       -2.4880  -34.3490   25.0450 C.ar  999  U05999      0.0858
      6  C5        -2.4630  -33.9540   26.5200 C.2   999  U05999      0.2555
      7  O13       -3.5450  -33.6850   27.0400 O.2   999  U05999     -0.2695
      8  N6        -1.3080  -33.8460   27.2310 N.am  999  U05999     -0.2521
      9  C12       -1.4150  -33.5610   28.6910 C.3   999  U05999      0.1204
     10  C6A        0.0770  -34.0530   26.7760 C.ar  999  U05999      0.0679
     11  C7         1.1310  -33.2750   27.2920 C.ar  999  U05999      0.0179
     12  C8         2.4600  -33.4350   26.7960 C.ar  999  U05999      0.0254
     13  C9         2.7370  -34.3700   25.7890 C.ar  999  U05999      0.1442
     14  N          4.1550  -34.5340   25.2150 N.pl3 999  U05999      0.0577
     15  O1         4.3450  -35.3100   24.2770 O.2   999  U05999     -0.1261
     16  O2         5.0340  -33.9020   25.7420 O.2   999  U05999     -0.1261
     17  C10        1.6850  -35.1500   25.3050 C.ar  999  U05999      0.0402
     18  C11        0.3740  -34.9970   25.8070 C.ar  999  U05999      0.0682
     19  N11       -0.6670  -35.8440   25.4330 N.pl3 999  U05999     -0.2712
     20  C14       -0.3720  -37.3680   25.4130 C.3   999  U05999      0.0970
     21  C15       -0.1980  -37.9540   24.0750 C.3   999  U05999      0.0236
     22  C1A       -1.5670  -35.2720   24.5080 C.ar  999  U05999      0.1398
@<TRIPOS>BOND
     1     2     3   ar
     2     2     1   ar
     3     3     4   ar
     4     1    22   ar
     5    21    20    1
     6     4     5   ar
     7    15    14    2
     8    22     5   ar
     9    22    19    1
    10     5     6    1
    11    14    16    2
    12    14    13    1
    13    17    13   ar
    14    17    18   ar
    15    20    19    1
    16    19    18    1
    17    13    12   ar
    18    18    10   ar
    19     6     7    2
    20     6     8   am
    21    10     8    1
    22    10    11   ar
    23    12    11   ar
    24     8     9    1
