@<TRIPOS>MOLECULE
1rti_HEF_A_1.pdb
 21 22 0 0 0
SMALL
GASTEIGER

@<TRIPOS>ATOM
      1  N1        -2.8330  -34.6540   23.8230 N.am  999  HEF999     -0.1713
      2  C2        -2.6900  -34.8940   22.4570 C.1   999  HEF999      0.2849
      3  O2        -3.3270  -34.2730   21.6050 O.2   999  HEF999     -0.1918
      4  N3        -1.7770  -35.8800   22.1120 N.2   999  HEF999     -0.2455
      5  C4        -1.0110  -36.6310   22.9960 C.1   999  HEF999      0.2139
      6  O4        -0.2350  -37.4840   22.5690 O.2   999  HEF999     -0.2088
      7  C5        -1.2230  -36.3100   24.4010 C.2   999  HEF999      0.0940
      8  C6        -2.1080  -35.3500   24.7600 C.2   999  HEF999      0.1030
      9  CM5       -0.4640  -37.0920   25.4750 C.3   999  HEF999      0.0467
     10  CM        -3.8170  -33.6410   24.2480 C.3   999  HEF999      0.2558
     11  OM        -5.1570  -34.0970   24.0420 O.3   999  HEF999     -0.3308
     12  CE1       -6.0100  -33.7270   25.1320 C.3   999  HEF999      0.1797
     13  CE2       -7.4820  -33.9480   24.7960 C.3   999  HEF999      0.2141
     14  OE        -7.6900  -35.1870   24.1380 O.3   999  HEF999     -0.2176
     15  S'        -2.3540  -34.9350   26.5170 S.3   999  HEF999     -0.0709
     16  C1'       -0.8930  -33.9680   27.0150 C.ar  999  HEF999      0.0307
     17  C2'       -0.7480  -33.5680   28.3380 C.ar  999  HEF999      0.0065
     18  C3'        0.3860  -32.8690   28.7370 C.ar  999  HEF999      0.0005
     19  C4'        1.3790  -32.5660   27.8110 C.ar  999  HEF999      0.0000
     20  C5'        1.2360  -32.9650   26.4880 C.ar  999  HEF999      0.0005
     21  C6'        0.0980  -33.6650   26.0900 C.ar  999  HEF999      0.0065
@<TRIPOS>BOND
     1     3     2    2
     2     4     2    2
     3     4     5    2
     4     2     1   am
     5     6     5    2
     6     5     7    1
     7     1    10    1
     8     1     8    1
     9    11    10    1
    10    11    12    1
    11    14    13    1
    12     7     8    2
    13     7     9    1
    14     8    15    1
    15    13    12    1
    16    21    20   ar
    17    21    16   ar
    18    20    19   ar
    19    15    16    1
    20    16    17   ar
    21    19    18   ar
    22    17    18   ar
