@<TRIPOS>MOLECULE
1rtk_GBS_A_1.pdb
 12 12 0 0 0
SMALL
GASTEIGER

@<TRIPOS>ATOM
      1  CD        69.1260   18.0210   -8.3460 C.3   750  GBS750      0.2086
      2  OD        68.1370   17.4480   -8.9930 O.3   750  GBS750     -0.2152
      3  C1        70.0210   17.1420   -7.5010 C.ar  750  GBS750      0.0108
      4  C21       71.0880   17.7520   -6.7670 C.ar  750  GBS750      0.0013
      5  C22       69.8490   15.7270   -7.4090 C.ar  750  GBS750      0.0013
      6  C31       71.9790   16.9850   -5.9530 C.ar  750  GBS750      0.0369
      7  C32       70.7210   14.9750   -6.6130 C.ar  750  GBS750      0.0369
      8  C4        71.7980   15.5790   -5.8820 C.ar  750  GBS750      0.1592
      9  NE        72.6330   14.7690   -5.0920 N.pl3 750  GBS750     -0.0605
     10  CZ        73.0590   13.5260   -5.3520 C.cat 750  GBS750      0.5393
     11  NH1       72.7480   12.8490   -6.4470 N.pl3 750  GBS750      0.1358
     12  NH2       73.8390   12.9210   -4.4620 N.pl3 750  GBS750      0.1358
@<TRIPOS>BOND
     1     2     1    1
     2     1     3    1
     3     3     5   ar
     4     3     4   ar
     5     5     7   ar
     6     4     6   ar
     7     7     8   ar
     8    11    10    1
     9     6     8   ar
    10     8     9    1
    11    10     9    2
    12    10    12    1
