@<TRIPOS>MOLECULE
1rtl_CPX_A_1.pdb
 32 35 0 0 0
SMALL
GASTEIGER

@<TRIPOS>ATOM
      1  O27        4.8260   30.8300   12.2650 O.2   201  CPX201     -0.2492
      2  C17        6.6250   23.4690   16.7460 C.3   201  CPX201      0.0096
      3  C16        5.3020   22.8850   16.3040 C.3   201  CPX201      0.0096
      4  C12        6.5370   22.6110   15.4880 C.3   201  CPX201      0.0782
      5  C26        5.8020   31.4630   11.7920 C.2   201  CPX201      0.3396
      6  N4         6.2450   32.7490   11.9290 N.am  201  CPX201     -0.1890
      7  C29        6.0400   34.1040   12.4640 C.3   201  CPX201      0.0969
      8  C30        7.2020   34.6780   13.4240 C.3   201  CPX201      0.0217
      9  C32        8.1220   35.6180   12.6150 C.3   201  CPX201      0.0018
     10  C31        7.4970   35.7500   11.2190 C.3   201  CPX201      0.0018
     11  C28        6.0610   35.1680   11.3020 C.3   201  CPX201      0.0217
     12  N3         6.6750   30.7830   10.9390 N.am  201  CPX201     -0.1796
     13  C13        6.8190   29.4480   10.4320 C.3   201  CPX201      0.1728
     14  C19        7.6070   29.7190    9.1350 C.3   201  CPX201      0.0290
     15  C22        8.5570   28.5730    8.7830 C.3   201  CPX201      0.0023
     16  C18        6.5860   30.0850    8.0690 C.3   201  CPX201      0.0023
     17  C14        7.5140   28.5430   11.4820 C.2   201  CPX201      0.2455
     18  O15        8.2960   29.1290   12.2850 O.2   201  CPX201     -0.2730
     19  N2         7.2520   27.1940   11.5600 N.am  201  CPX201     -0.2780
     20  C6         7.8580   26.3970   12.5960 C.3   201  CPX201      0.0976
     21  C8         6.7460   25.1940   12.6910 C.3   201  CPX201      0.1151
     22  C9         5.7580   25.7870   12.0260 C.3   201  CPX201      0.0448
     23  C7         6.4090   26.3280   10.7190 C.3   201  CPX201      0.0953
     24  N1         6.2670   24.6760   14.0570 N.am  201  CPX201     -0.2054
     25  C10        6.8340   23.4070   14.2340 C.2   201  CPX201      0.2409
     26  O11        7.6390   22.8180   13.4420 O.2   201  CPX201     -0.2734
     27  C25        9.2430   26.0840   12.8890 C.3   201  CPX201      0.0490
     28  C24        9.5660   25.2840   14.1790 C.3   201  CPX201      0.1836
     29  O5         9.8210   24.0930   13.6900 O.3   201  CPX201     -0.2204
     30  C23       10.4380   27.0010   12.9140 C.3   201  CPX201      0.0042
     31  C21       10.9070   26.6140   11.5360 C.3   201  CPX201      0.0003
     32  C20       10.0520   25.3670   11.7440 C.3   201  CPX201      0.0042
@<TRIPOS>BOND
     1    16    14    1
     2    15    14    1
     3    14    13    1
     4    13    12    1
     5    13    17    1
     6    23    19    1
     7    23    22    1
     8    12     5   am
     9    10    11    1
    10    10     9    1
    11    11     7    1
    12    17    19   am
    13    17    18    2
    14    31    32    1
    15    31    30    1
    16    19    20    1
    17    32    27    1
    18     5     6   am
    19     5     1    2
    20     6     7    1
    21    22    21    1
    22     7     8    1
    23    20    21    1
    24    20    27    1
    25     9     8    1
    26    21    24    1
    27    27    30    1
    28    27    28    1
    29    26    25    2
    30    29    28    1
    31    24    25   am
    32    25     4    1
    33     4     3    1
    34     4     2    1
    35     3     2    1
