@<TRIPOS>MOLECULE
1rts_UMP_A_1.pdb
 20 21 0 0 0
SMALL
GASTEIGER

@<TRIPOS>ATOM
      1  N1        96.6260  -11.3340   34.6050 N.am  308  UMP308     -0.1790
      2  C2        97.3930  -12.2880   35.2570 C.1   308  UMP308      0.2844
      3  N3        96.9240  -13.5730   35.1550 N.2   308  UMP308     -0.2452
      4  C4        95.8030  -13.9970   34.4740 C.1   308  UMP308      0.2182
      5  C5        95.0880  -12.9610   33.7960 C.2   308  UMP308      0.1242
      6  C6        95.5110  -11.6970   33.8830 C.2   308  UMP308      0.0928
      7  O2        98.4130  -12.0200   35.8710 O.2   308  UMP308     -0.1918
      8  O4        95.4690  -15.1790   34.5420 O.2   308  UMP308     -0.2085
      9  C1'       97.0290   -9.9230   34.7320 C.3   308  UMP308      0.2090
     10  C2'       98.4460   -9.6160   34.2820 C.3   308  UMP308      0.0874
     11  C3'       98.3450   -8.1670   33.8450 C.3   308  UMP308      0.1857
     12  C4'       96.9170   -8.0550   33.3120 C.3   308  UMP308      0.1774
     13  O3'       98.4800   -7.3220   34.9920 O.3   308  UMP308     -0.2203
     14  O4'       96.1750   -9.1450   33.9080 O.3   308  UMP308     -0.3339
     15  C5'       96.8080   -8.1240   31.8070 C.3   308  UMP308      0.1858
     16  O5'       97.3650   -6.9340   31.2070 O.3   308  UMP308     -0.2675
     17  P         97.7680   -6.9040   29.6280 P.3   308  UMP308      0.5327
     18  OP1       96.5240   -7.3300   28.8640 O.2   308  UMP308     -0.2224
     19  OP2       98.1790   -5.4750   29.3120 O.3   308  UMP308     -0.1145
     20  OP3       98.9150   -7.8950   29.5160 O.3   308  UMP308     -0.1145
@<TRIPOS>BOND
     1    18    17    2
     2    19    17    1
     3    20    17    1
     4    17    16    1
     5    16    15    1
     6    15    12    1
     7    12    11    1
     8    12    14    1
     9     5     6    2
    10     5     4    1
    11    11    10    1
    12    11    13    1
    13     6     1    1
    14    14     9    1
    15    10     9    1
    16     4     8    2
    17     4     3    2
    18     1     9    1
    19     1     2   am
    20     3     2    2
    21     2     7    2
