@<TRIPOS>MOLECULE
1rts_D16_A_1.pdb
 32 34 0 0 0
SMALL
GASTEIGER

@<TRIPOS>ATOM
      1  N1        93.9740   -7.7410   36.4260 N.2   309  D16309     -0.3420
      2  C2        95.2410   -7.4520   37.0300 C.1   309  D16309      0.1269
      3  CM2       95.7990   -6.0660   37.0170 C.3   309  D16309      0.1438
      4  N3        95.9630   -8.4970   37.6440 N.2   309  D16309     -0.2706
      5  C4        95.4880   -9.8270   37.6900 C.1   309  D16309      0.2165
      6  O4        96.1250  -10.7050   38.2230 O.2   309  D16309     -0.2085
      7  C4A       94.1300  -10.0840   37.0310 C.ar  309  D16309      0.1258
      8  C5        93.5230  -11.3560   36.9960 C.ar  309  D16309      0.0166
      9  C6        92.2490  -11.6100   36.3800 C.ar  309  D16309      0.0158
     10  C7        91.5830  -10.4850   35.7760 C.ar  309  D16309      0.0040
     11  C8        92.1650   -9.1830   35.7920 C.ar  309  D16309      0.0338
     12  C8A       93.4180   -9.0170   36.4170 C.ar  309  D16309      0.1554
     13  C9        91.6010  -13.0520   36.3610 C.2   309  D16309      0.0658
     14  N10       92.1870  -14.1510   37.2760 N.pl3 309  D16309     -0.2792
     15  C11       91.2240  -13.5560   41.0000 C.ar  309  D16309      0.0856
     16  S13       91.0960  -12.8020   39.4580 S.2   309  D16309     -0.0674
     17  C14       91.9830  -14.0530   38.6820 C.ar  309  D16309      0.0822
     18  C15       92.3730  -14.9670   39.6160 C.ar  309  D16309      0.0222
     19  C16       91.9320  -14.7100   40.9190 C.ar  309  D16309      0.0129
     20  C         90.5460  -12.8360   42.1640 C.2   309  D16309      0.2713
     21  O         89.8670  -11.8260   41.9060 O.2   309  D16309     -0.2678
     22  N         90.6070  -13.4040   43.4020 N.am  309  D16309     -0.1914
     23  CA        89.9060  -12.7250   44.4930 C.3   309  D16309      0.1986
     24  CB        88.3080  -12.8320   44.4510 C.3   309  D16309      0.0451
     25  CG        87.4980  -14.2090   44.4060 C.3   309  D16309      0.1164
     26  CD        87.2300  -14.8570   45.8320 C.2   309  D16309      0.3649
     27  OE1       86.0300  -15.0660   46.1230 O.co2 309  D16309     -0.2457
     28  OE2       88.2430  -15.1040   46.5320 O.co2 309  D16309     -0.2457
     29  CT        90.6610  -13.0850   45.8260 C.2   309  D16309      0.3842
     30  O1        90.6000  -12.2400   46.7350 O.co2 309  D16309     -0.2437
     31  O2        91.2610  -14.1790   45.8260 O.co2 309  D16309     -0.2437
     32  CP1       92.2420  -15.4810   36.6680 C.3   309  D16309      0.1178
@<TRIPOS>BOND
     1    10    11   ar
     2    10     9   ar
     3    11    12   ar
     4    13     9    2
     5    13    14    1
     6     9     8   ar
     7    12     1    2
     8    12     7   ar
     9     1     2    2
    10    32    14    1
    11     8     7   ar
    12     3     2    1
    13     2     4    2
    14     7     5    1
    15    14    17    1
    16     4     5    2
    17     5     6    2
    18    17    16   ar
    19    17    18   ar
    20    16    15   ar
    21    18    19   ar
    22    19    15   ar
    23    15    20    1
    24    21    20    2
    25    20    22   am
    26    22    23    1
    27    25    24    1
    28    25    26    1
    29    24    23    1
    30    23    29    1
    31    29    31   ar
    32    29    30   ar
    33    26    27   ar
    34    26    28   ar
