@<TRIPOS>MOLECULE
1rtw_MP5_A_1.pdb
 14 14 0 0 0
SMALL
GASTEIGER

@<TRIPOS>ATOM
      1  C1        23.2380   43.3170   58.9440 C.2   1213  MP51213     0.0756
      2  C2        24.3140   43.9570   59.6280 C.2   1213  MP51213     0.2300
      3  C3        22.4650   44.0200   57.9260 C.3   1213  MP51213     0.1858
      4  N1        24.6590   45.2510   59.3530 N.pl3 1213  MP51213    -0.0924
      5  N2        25.0470   43.2680   60.6050 N.2   1213  MP51213    -0.3368
      6  C4        24.7250   41.9730   60.9010 C.1   1213  MP51213     0.0663
      7  C5        25.5540   41.2570   61.9770 C.3   1213  MP51213     0.1291
      8  N3        23.6680   41.2740   60.2620 N.2   1213  MP51213    -0.1861
      9  C6        22.9560   41.9810   59.2970 C.2   1213  MP51213     0.1123
     10  O1        22.9820   43.8870   56.6670 O.3   1213  MP51213    -0.2652
     11  P1        23.3010   45.2170   55.8190 P.3   1213  MP51213     0.5329
     12  O2        24.5270   44.5340   55.0670 O.3   1213  MP51213    -0.1145
     13  O3        24.0400   46.3880   56.6410 O.3   1213  MP51213    -0.1145
     14  O4        22.2190   45.6500   55.0290 O.2   1213  MP51213    -0.2224
@<TRIPOS>BOND
     1    14    11    2
     2    12    11    1
     3    11    13    1
     4    11    10    1
     5    10     3    1
     6     3     1    1
     7     1     9    2
     8     1     2    1
     9     9     8    1
    10     4     2    1
    11     2     5    2
    12     8     6    2
    13     5     6    2
    14     6     7    1
