@<TRIPOS>MOLECULE
1rtx_HEM_A_1.pdb
 43 50 0 0 0
SMALL
GASTEIGER

@<TRIPOS>ATOM
      1  CHA        4.7450    6.5360    5.9820 C.2   125  HEM125      0.0000
      2  CHB        9.3510    5.6800    6.5150 C.2   125  HEM125      0.0000
      3  CHC        9.6600    9.1710    9.6650 C.2   125  HEM125      0.0000
      4  CHD        5.0290    9.7910    9.4020 C.2   125  HEM125      0.0000
      5  C1A        6.0290    5.9780    5.7850 C.ar  125  HEM125      0.0000
      6  C2A        6.2820    4.9080    4.8510 C.ar  125  HEM125      0.0000
      7  C3A        7.5950    4.6480    5.0060 C.ar  125  HEM125      0.0000
      8  C4A        8.0310    5.5770    6.0360 C.ar  125  HEM125      0.0000
      9  CMA        8.3840    3.5340    4.3430 C.3   125  HEM125      0.0000
     10  CAA        5.3090    4.2600    3.9020 C.3   125  HEM125      0.0000
     11  CBA        4.3520    3.2120    4.4650 C.3   125  HEM125      0.0000
     12  CGA        3.5940    2.6850    3.2940 C.2   125  HEM125      0.0000
     13  O1A        3.7710    3.2040    2.1500 O.co2 125  HEM125      0.0000
     14  O2A        2.8290    1.7130    3.4860 O.co2 125  HEM125      0.0000
     15  C1B        9.9230    6.5560    7.4660 C.2   125  HEM125      0.0000
     16  C2B       11.3190    6.5700    7.8520 C.2   125  HEM125      0.0000
     17  C3B       11.3990    7.5790    8.7300 C.2   125  HEM125      0.0000
     18  C4B       10.0620    8.1230    8.7980 C.2   125  HEM125      0.0000
     19  CMB       12.4030    5.6570    7.3400 C.3   125  HEM125      0.0000
     20  CAB       12.4940    8.0590    9.4700 C.3   125  HEM125      0.0000
     21  CBB       13.3290    7.1960   10.2020 C.3   125  HEM125      0.0000
     22  C1C        8.3920    9.7270    9.9080 C.ar  125  HEM125      0.0000
     23  C2C        8.1230   10.7920   10.8550 C.ar  125  HEM125      0.0000
     24  C3C        6.7960   10.9450   10.8140 C.ar  125  HEM125      0.0000
     25  C4C        6.3580    9.9760    9.8330 C.ar  125  HEM125      0.0000
     26  CMC        9.1510   11.4770   11.6930 C.3   125  HEM125      0.0000
     27  CAC        6.0070   11.8580   11.5110 C.2   125  HEM125      0.0000
     28  CBC        4.8160   11.4660   12.0730 C.2   125  HEM125      0.0000
     29  C1D        4.4580    8.9390    8.4140 C.2   125  HEM125      0.0000
     30  C2D        3.0540    8.9210    8.0030 C.2   125  HEM125      0.0000
     31  C3D        2.9720    7.9890    7.0170 C.2   125  HEM125      0.0000
     32  C4D        4.3500    7.5490    6.8780 C.2   125  HEM125      0.0000
     33  CMD        1.8920    9.6610    8.6220 C.3   125  HEM125      0.0000
     34  CAD        1.7570    7.5430    6.2210 C.3   125  HEM125      0.0000
     35  CBD        0.8630    6.4500    6.8200 C.3   125  HEM125      0.0000
     36  CGD        0.0850    5.7990    5.6920 C.2   125  HEM125      0.0000
     37  O1D        0.2260    4.5490    5.4950 O.co2 125  HEM125      0.0000
     38  O2D       -0.6790    6.5240    4.9850 O.co2 125  HEM125      0.0000
     39  NA         7.0860    6.4730    6.5460 N.ar  125  HEM125      0.0000
     40  NB         9.0790    7.4770    8.0830 N.2   125  HEM125      0.0000
     41  NC         7.3200    9.1870    9.2360 N.ar  125  HEM125      0.0000
     42  ND         5.3180    8.1060    7.7160 N.2   125  HEM125      0.0000
     43 FE          7.2070    7.8260    7.9030 Fe    125  HEM125      0.0000
@<TRIPOS>BOND
     1    13    12   ar
     2    12    14   ar
     3    12    11    1
     4    10    11    1
     5    10     6    1
     6     9     7    1
     7     6     7   ar
     8     6     5   ar
     9    38    36   ar
    10     7     8   ar
    11    37    36   ar
    12    36    35    1
    13     5     1    2
    14     5    39   ar
    15     1    32    1
    16     8     2    2
    17     8    39   ar
    18    34    35    1
    19    34    31    1
    20     2    15    1
    21    39    43    1
    22    32    31    1
    23    32    42    2
    24    31    30    2
    25    19    16    1
    26    15    16    1
    27    15    40    2
    28    42    43    1
    29    42    29    1
    30    16    17    2
    31    43    40    1
    32    43    41    1
    33    30    29    1
    34    30    33    1
    35    40    18    1
    36    29     4    2
    37    17    18    1
    38    17    20    1
    39    18     3    2
    40    41    25   ar
    41    41    22   ar
    42     4    25    1
    43    20    21    1
    44     3    22    1
    45    25    24   ar
    46    22    23   ar
    47    24    23   ar
    48    24    27    1
    49    23    26    1
    50    27    28    2
