@<TRIPOS>MOLECULE
1ru1_APC_A_1.pdb
 31 33 0 0 0
SMALL
GASTEIGER

@<TRIPOS>ATOM
      1  PG         9.7880   -3.5710    9.9220 P.3   171  APC171      0.5389
      2  O1G       10.1840   -2.2190   10.3700 O.3   171  APC171     -0.1143
      3  O2G       10.8670   -4.3210    9.1410 O.3   171  APC171     -0.1143
      4  O3G        8.4910   -3.5320    9.1350 O.2   171  APC171     -0.2220
      5  PB         8.4870   -4.1590   12.3790 P.3   171  APC171      0.3895
      6  O1B        7.3730   -3.3240   11.7950 O.2   171  APC171     -0.2544
      7  O2B        8.1280   -5.4270   13.1010 O.3   171  APC171     -0.1388
      8  O3B        9.5400   -4.5170   11.2260 O.3   171  APC171     -0.2026
      9  PA         8.4450   -2.7690   15.0150 P.3   171  APC171      0.3820
     10  O1A        6.9870   -2.6150   14.6580 O.2   171  APC171     -0.2548
     11  O2A        8.7380   -3.7350   16.1200 O.3   171  APC171     -0.1392
     12  C3A        9.4070   -3.1740   13.5620 C.3   171  APC171      0.2357
     13  O5'        8.8340   -1.2880   15.4460 O.3   171  APC171     -0.2896
     14  C5'       10.0490   -0.8860   16.1610 C.3   171  APC171      0.1836
     15  C4'       10.1790    0.6090   16.1260 C.3   171  APC171      0.1822
     16  O4'       10.1930    1.0640   14.7590 O.3   171  APC171     -0.3135
     17  C3'        9.2310    1.4640   16.8610 C.3   171  APC171      0.2184
     18  O3'        9.4760    1.5580   18.2330 O.3   171  APC171     -0.2174
     19  C2'        9.3590    2.7890   16.1370 C.3   171  APC171      0.2570
     20  O2'       10.0240    3.7890   16.9660 O.3   171  APC171     -0.2130
     21  C1'       10.2650    2.5070   14.9290 C.3   171  APC171      0.3186
     22  N9         9.8510    3.0540   13.6420 N.pl3 171  APC171     -0.1439
     23  C8        10.7740    3.7340   12.7960 C.3   171  APC171      0.3377
     24  N7        10.1770    4.1450   11.6790 N.2   171  APC171     -0.2095
     25  C5         8.8410    3.7060   11.8330 C.2   171  APC171      0.2526
     26  C6         7.7680    3.8730   10.9400 C.2   171  APC171      0.4393
     27  N6         7.8960    4.4900    9.8030 N.pl3 171  APC171      0.2180
     28  N1         6.5280    3.3360   11.3380 N.2   171  APC171      0.0021
     29  C2         6.4150    2.7180   12.4880 C.3   171  APC171      0.5254
     30  N3         7.4350    2.4980   13.4560 N.2   171  APC171     -0.0055
     31  C4         8.6510    3.0480   13.0200 C.2   171  APC171      0.3518
@<TRIPOS>BOND
     1     4     1    2
     2     3     1    1
     3    27    26    1
     4     1     2    1
     5     1     8    1
     6    26    28    2
     7    26    25    1
     8     8     5    1
     9    28    29    1
    10    24    25    2
    11    24    23    1
    12     6     5    2
    13    25    31    1
    14     5     7    1
    15     5    12    1
    16    29    30    1
    17    23    22    1
    18    31    30    2
    19    31    22    1
    20    12     9    1
    21    22    21    1
    22    10     9    2
    23    16    21    1
    24    16    15    1
    25    21    19    1
    26     9    13    1
    27     9    11    1
    28    13    14    1
    29    15    14    1
    30    15    17    1
    31    19    17    1
    32    19    20    1
    33    17    18    1
