@<TRIPOS>MOLECULE
1ru1_PH2_A_1.pdb
 14 15 0 0 0
SMALL
GASTEIGER

@<TRIPOS>ATOM
      1  N1         5.7250   -7.6510    8.1510 N.2   181  PH2181     -0.3830
      2  C2         6.9030   -7.8200    8.7060 C.2   181  PH2181      0.1470
      3  C3         7.8060   -9.0360    8.2780 C.3   181  PH2181      0.1940
      4  N4         7.1770   -9.7610    7.3420 N.2   181  PH2181     -0.1992
      5  N5         5.4940  -10.4760    5.7990 N.2   181  PH2181     -0.2672
      6  C6         4.3500  -10.3660    5.2170 C.1   181  PH2181      0.2609
      7  N6         3.9070  -11.1390    4.3520 N.pl3 181  PH2181     -0.0220
      8  N7         3.5350   -9.2180    5.6430 N.2   181  PH2181     -0.2466
      9  C8         3.9650   -8.3400    6.5830 C.1   181  PH2181      0.2569
     10  O8         3.1710   -7.3770    6.8760 O.2   181  PH2181     -0.2052
     11  C9         5.1960   -8.4910    7.1830 C.2   181  PH2181      0.2989
     12  C10        6.0140   -9.6870    6.7210 C.1   181  PH2181      0.1401
     13  C11        7.4790   -6.9100    9.7570 C.3   181  PH2181      0.2380
     14  O4         6.8230   -5.7800   10.1620 O.3   181  PH2181     -0.2126
@<TRIPOS>BOND
     1     7     6    1
     2     6     8    2
     3     6     5    2
     4     8     9    2
     5     5    12    2
     6     9    10    2
     7     9    11    1
     8    12    11    1
     9    12     4    2
    10    11     1    2
    11     4     3    1
    12     1     2    2
    13     3     2    1
    14     2    13    1
    15    13    14    1
