@<TRIPOS>MOLECULE
1ru2_APC_A_1.pdb
 31 33 0 0 0
SMALL
GASTEIGER

@<TRIPOS>ATOM
      1  PG         3.2350   18.3530   10.0550 P.3   171  APC171      0.5389
      2  O1G        2.8070   16.9570   10.3160 O.3   171  APC171     -0.1143
      3  O2G        2.1900   19.1380    9.2910 O.2   171  APC171     -0.2220
      4  O3G        4.6110   18.3660    9.4160 O.3   171  APC171     -0.1143
      5  PB         4.4380   18.9410   12.6020 P.3   171  APC171      0.3895
      6  O1B        5.6410   18.3420   11.9300 O.2   171  APC171     -0.2544
      7  O2B        4.6100   20.2030   13.3730 O.3   171  APC171     -0.1388
      8  O3B        3.3830   19.1800   11.4330 O.3   171  APC171     -0.2026
      9  PA         4.4800   17.5920   15.2320 P.3   171  APC171      0.3820
     10  O1A        5.9790   17.6070   14.9680 O.2   171  APC171     -0.2548
     11  O2A        4.0130   18.5470   16.2640 O.3   171  APC171     -0.1392
     12  C3A        3.6500   17.7420   13.6720 C.3   171  APC171      0.2357
     13  O5'        4.2550   16.0990   15.7650 O.3   171  APC171     -0.2896
     14  C5'        2.9430   15.7130   16.3100 C.3   171  APC171      0.1836
     15  C4'        2.7550   14.2360   16.1380 C.3   171  APC171      0.1822
     16  O4'        2.8020   13.7880   14.7830 O.3   171  APC171     -0.3135
     17  C3'        3.6570   13.3680   16.9320 C.3   171  APC171      0.2184
     18  O3'        3.2610   13.3650   18.2700 O.3   171  APC171     -0.2174
     19  C2'        3.5640   12.0510   16.2350 C.3   171  APC171      0.2570
     20  O2'        2.8660   11.0080   16.9780 O.3   171  APC171     -0.2130
     21  C1'        2.7960   12.3360   14.9640 C.3   171  APC171      0.3186
     22  N9         3.2680   11.8230   13.6890 N.pl3 171  APC171     -0.1439
     23  C8         2.3350   11.1650   12.8250 C.3   171  APC171      0.3377
     24  N7         2.9630   10.7790   11.7260 N.2   171  APC171     -0.2095
     25  C5         4.3070   11.1970   11.8980 C.2   171  APC171      0.2526
     26  C6         5.3800   11.0380   11.0340 C.2   171  APC171      0.4393
     27  N6         5.3540   10.4590    9.8750 N.pl3 171  APC171      0.2180
     28  N1         6.6290   11.5540   11.4500 N.2   171  APC171      0.0021
     29  C2         6.7290   12.1540   12.6180 C.3   171  APC171      0.5254
     30  N3         5.6760   12.3680   13.5810 N.2   171  APC171     -0.0055
     31  C4         4.4750   11.8330   13.1020 C.2   171  APC171      0.3518
@<TRIPOS>BOND
     1     3     1    2
     2     4     1    1
     3    27    26    1
     4     1     2    1
     5     1     8    1
     6    26    28    2
     7    26    25    1
     8     8     5    1
     9    28    29    1
    10    24    25    2
    11    24    23    1
    12    25    31    1
    13     6     5    2
    14     5     7    1
    15     5    12    1
    16    29    30    1
    17    23    22    1
    18    31    30    2
    19    31    22    1
    20    12     9    1
    21    22    21    1
    22    16    21    1
    23    16    15    1
    24    21    19    1
    25    10     9    2
    26     9    13    1
    27     9    11    1
    28    13    14    1
    29    15    14    1
    30    15    17    1
    31    19    17    1
    32    19    20    1
    33    17    18    1
