@<TRIPOS>MOLECULE
1ru2_HHR_A_1.pdb
 14 15 0 0 0
SMALL
GASTEIGER

@<TRIPOS>ATOM
      1  C7         5.0470   23.8280    8.2970 C.3   181  HHR181      0.1940
      2  N8         5.5200   24.6780    7.3830 N.2   181  HHR181     -0.1992
      3  C9         6.7680   24.4650    6.9030 C.1   181  HHR181      0.1401
      4  N1         7.3170   25.3340    5.9350 N.2   181  HHR181     -0.2672
      5  C2         8.5200   25.1350    5.4680 C.1   181  HHR181      0.2609
      6  N2         9.1490   25.9130    4.5290 N.pl3 181  HHR181     -0.0220
      7  C10        7.4970   23.3570    7.3970 C.2   181  HHR181      0.2989
      8  C4         8.8540   23.1570    6.8510 C.1   181  HHR181      0.2569
      9  N3         9.2310   24.0790    5.9290 N.2   181  HHR181     -0.2466
     10  O4         9.6090   22.2540    7.1700 O.2   181  HHR181     -0.2052
     11  N5         6.9970   22.5140    8.3190 N.2   181  HHR181     -0.3830
     12  C6         5.7830   22.7250    8.7830 C.2   181  HHR181      0.1470
     13  C6A        5.2390   21.7750    9.8130 C.3   181  HHR181      0.2380
     14  O6A        6.1310   20.7640   10.2740 O.3   181  HHR181     -0.2126
@<TRIPOS>BOND
     1     6     5    1
     2     5     9    2
     3     5     4    2
     4     9     8    2
     5     4     3    2
     6     8    10    2
     7     8     7    1
     8     3     2    2
     9     3     7    1
    10     2     1    1
    11     7    11    2
    12     1    12    1
    13    11    12    2
    14    12    13    1
    15    13    14    1
