@<TRIPOS>MOLECULE
1rue_W35_1_1.pdb
 23 25 0 0 0
SMALL
GASTEIGER

@<TRIPOS>ATOM
      1  O1        37.9150    3.4810  125.6390 O.2   290  W35290     -0.3537
      2  N2        36.9210    4.4960  125.6220 N.ar  290  W35290     -0.0813
      3  C3        37.4680    5.5180  125.0550 C.ar  290  W35290      0.1011
      4  C31       36.6860    6.7730  124.8730 C.3   290  W35290      0.0557
      5  C4        38.7920    5.2460  124.6880 C.ar  290  W35290      0.0581
      6  C5        39.0270    3.9800  125.0610 C.ar  290  W35290      0.1763
      7  C1C       40.1740    3.0960  124.6700 C.2   290  W35290      0.0357
      8  C2C       39.8950    2.1370  123.5320 C.2   290  W35290     -0.0228
      9  C3C       40.9820    1.3100  122.8610 C.3   290  W35290      0.0300
     10  C4C       40.6740   -0.1520  122.7170 C.3   290  W35290      0.0520
     11  C5C       41.5550   -1.0640  123.5690 C.3   290  W35290      0.2057
     12  O1B       42.9160   -0.5500  123.5120 O.3   290  W35290     -0.4755
     13  C1B       43.9630   -1.4070  123.2390 C.ar  290  W35290      0.1386
     14  C2B       43.8720   -2.5610  122.4550 C.ar  290  W35290      0.0371
     15  C3B       44.9890   -3.3440  122.2460 C.ar  290  W35290      0.0078
     16  C4B       46.2150   -3.0020  122.8070 C.ar  290  W35290      0.0538
     17  C5B       46.3000   -1.8450  123.5950 C.ar  290  W35290      0.0078
     18  C6B       45.1890   -1.0600  123.8060 C.ar  290  W35290      0.0371
     19  C2A       47.4100   -3.8180  122.5880 C.ar  290  W35290      0.2299
     20  N3A       47.4610   -5.0780  121.9090 N.ar  290  W35290     -0.2065
     21  C4A       48.7160   -5.6010  121.8610 C.ar  290  W35290      0.1427
     22  C5A       49.4490   -4.4990  122.6030 C.ar  290  W35290      0.2021
     23  O1A       48.5930   -3.4880  122.9930 O.2   290  W35290     -0.4314
@<TRIPOS>BOND
     1    21    20   ar
     2    21    22   ar
     3    20    19   ar
     4    15    14   ar
     5    15    16   ar
     6    14    13   ar
     7    19    16    1
     8    19    23   ar
     9    22    23   ar
    10    10     9    1
    11    10    11    1
    12    16    17   ar
    13     9     8    1
    14    13    12    1
    15    13    18   ar
    16    12    11    1
    17     8     7    2
    18    17    18   ar
    19     7     6    1
    20     5     3   ar
    21     5     6   ar
    22     4     3    1
    23     3     2   ar
    24     6     1   ar
    25     2     1   ar
