@<TRIPOS>MOLECULE
1ruh_W84_1_1.pdb
 26 28 0 0 0
SMALL
GASTEIGER

@<TRIPOS>ATOM
      1  O1        46.5410   -4.1400  121.7330 O.2   290  W84290     -0.3581
      2  N2        47.6710   -4.9380  121.4250 N.ar  290  W84290     -0.0817
      3  C3        48.5210   -4.7280  122.3720 C.ar  290  W84290      0.1007
      4  C31       49.8340   -5.4250  122.3500 C.3   290  W84290      0.0557
      5  C4        48.0190   -3.8210  123.3150 C.ar  290  W84290      0.0536
      6  C5        46.7990   -3.4840  122.8830 C.ar  290  W84290      0.1541
      7  C1C       45.7280   -2.5960  123.3670 C.3   290  W84290      0.0673
      8  C2C       44.4750   -2.6660  122.5220 C.3   290  W84290      0.0081
      9  C3C       43.6450   -1.4040  122.6180 C.3   290  W84290      0.0005
     10  C4C       42.4640   -1.4960  123.5350 C.3   290  W84290      0.0001
     11  C5C       41.9350   -0.1440  123.9960 C.3   290  W84290      0.0038
     12  C6C       40.6650    0.2570  123.2680 C.3   290  W84290      0.0473
     13  C7C       40.3970    1.7390  123.2300 C.3   290  W84290      0.2054
     14  O1B       40.1760    2.1610  124.6750 O.3   290  W84290     -0.4755
     15  C1B       39.3230    3.1820  125.0290 C.ar  290  W84290      0.1386
     16  C2B       38.9840    3.4940  126.3460 C.ar  290  W84290      0.0370
     17  C3B       38.1400    4.5520  126.6060 C.ar  290  W84290      0.0077
     18  C4B       37.6130    5.3150  125.5760 C.ar  290  W84290      0.0530
     19  C5B       37.9290    4.9830  124.2500 C.ar  290  W84290      0.0077
     20  C6B       38.7780    3.9270  123.9810 C.ar  290  W84290      0.0370
     21  C2A       36.8000    6.4910  125.8760 C.2   290  W84290      0.2204
     22  N3A       36.3130    6.8610  127.1640 N.2   290  W84290     -0.2360
     23  C4A       35.6260    8.0250  127.1550 C.3   290  W84290      0.1500
     24  CM1       35.8300    9.3320  127.8230 C.3   290  W84290      0.0304
     25  C5A       35.7210    8.3320  125.6670 C.3   290  W84290      0.2312
     26  O1A       36.4290    7.3580  124.9940 O.2   290  W84290     -0.4583
@<TRIPOS>BOND
     1     2     1   ar
     2     2     3   ar
     3     1     6   ar
     4     4     3    1
     5     3     5   ar
     6     8     9    1
     7     8     7    1
     8     9    10    1
     9     6     5   ar
    10     6     7    1
    11    13    12    1
    12    13    14    1
    13    12    11    1
    14    10    11    1
    15    20    19   ar
    16    20    15   ar
    17    19    18   ar
    18    14    15    1
    19    26    25    1
    20    26    21    1
    21    15    16   ar
    22    18    21    1
    23    18    17   ar
    24    25    23    1
    25    21    22    2
    26    16    17   ar
    27    23    22    1
    28    23    24    1
