@<TRIPOS>MOLECULE
1rui_W84_1_1.pdb
 26 28 0 0 0
SMALL
GASTEIGER

@<TRIPOS>ATOM
      1  O1        46.5410   -4.1400  121.7330 O.2   290  W84290     -0.3581
      2  N2        47.6710   -4.9380  121.4250 N.ar  290  W84290     -0.0817
      3  C3        48.5210   -4.7280  122.3720 C.ar  290  W84290      0.1007
      4  C31       49.8340   -5.4250  122.3500 C.3   290  W84290      0.0557
      5  C4        48.0190   -3.8210  123.3150 C.ar  290  W84290      0.0536
      6  C5        46.7990   -3.4840  122.8830 C.ar  290  W84290      0.1541
      7  C1C       45.7280   -2.5960  123.3670 C.3   290  W84290      0.0673
      8  C2C       44.4750   -2.6660  122.5220 C.3   290  W84290      0.0081
      9  C3C       43.6450   -1.4040  122.6180 C.3   290  W84290      0.0005
     10  C4C       42.4640   -1.4960  123.5350 C.3   290  W84290      0.0001
     11  C5C       41.9350   -0.1440  123.9960 C.3   290  W84290      0.0038
     12  C6C       40.6650    0.2570  123.2680 C.3   290  W84290      0.0473
     13  C7C       40.3970    1.7390  123.2300 C.3   290  W84290      0.2054
     14  O1B       40.1520    2.1350  124.5880 O.3   290  W84290     -0.4755
     15  C1B       39.3720    3.2260  124.9000 C.ar  290  W84290      0.1386
     16  C2B       39.0530    3.6090  126.2030 C.ar  290  W84290      0.0370
     17  C3B       38.2840    4.7320  126.4200 C.ar  290  W84290      0.0077
     18  C4B       37.8140    5.4910  125.3610 C.ar  290  W84290      0.0530
     19  C5B       38.1080    5.0890  124.0490 C.ar  290  W84290      0.0077
     20  C6B       38.8820    3.9670  123.8230 C.ar  290  W84290      0.0370
     21  C2A       37.0840    6.7310  125.6130 C.2   290  W84290      0.2204
     22  N3A       36.6230    7.1820  126.8850 N.2   290  W84290     -0.2360
     23  C4A       36.0190    8.3900  126.8300 C.3   290  W84290      0.1500
     24  CM1       36.3120    9.7040  127.4500 C.3   290  W84290      0.0304
     25  C5A       36.1380    8.6340  125.3320 C.3   290  W84290      0.2312
     26  O1A       36.7760    7.5890  124.6980 O.2   290  W84290     -0.4583
@<TRIPOS>BOND
     1     2     1   ar
     2     2     3   ar
     3     1     6   ar
     4     4     3    1
     5     3     5   ar
     6     8     9    1
     7     8     7    1
     8     9    10    1
     9     6     5   ar
    10     6     7    1
    11    13    12    1
    12    13    14    1
    13    12    11    1
    14    10    11    1
    15    20    19   ar
    16    20    15   ar
    17    19    18   ar
    18    14    15    1
    19    26    25    1
    20    26    21    1
    21    15    16   ar
    22    25    23    1
    23    18    21    1
    24    18    17   ar
    25    21    22    2
    26    16    17   ar
    27    23    22    1
    28    23    24    1
