@<TRIPOS>MOLECULE
1run_CMP_A_1.pdb
 22 25 0 0 0
SMALL
GASTEIGER

@<TRIPOS>ATOM
      1  P         23.3310   65.8400    7.2820 P.3   679  CMP679      0.2141
      2  O1P       22.0960   66.6420    7.4820 O.2   679  CMP679     -0.5172
      3  O2P       24.4100   65.8750    8.2850 O.3   679  CMP679     -0.4373
      4  O5'       24.0630   66.2190    5.9130 O.3   679  CMP679     -0.3114
      5  C5'       23.5900   65.7660    4.6340 C.3   679  CMP679      0.1812
      6  C4'       22.8670   64.4540    4.7760 C.3   679  CMP679      0.1793
      7  O4'       23.1450   63.5640    3.6600 O.3   679  CMP679     -0.3136
      8  C3'       23.3780   63.6410    5.9410 C.3   679  CMP679      0.1884
      9  O3'       22.8930   64.3170    7.0780 O.3   679  CMP679     -0.3111
     10  C2'       22.7980   62.2750    5.6180 C.3   679  CMP679      0.2541
     11  O2'       21.3960   62.2500    5.8370 O.3   679  CMP679     -0.2131
     12  C1'       23.0730   62.2180    4.1130 C.3   679  CMP679      0.3185
     13  N9        24.3030   61.5280    3.7190 N.pl3 679  CMP679     -0.1439
     14  C8        25.6230   61.9480    3.7540 C.3   679  CMP679      0.3377
     15  N7        26.4730   61.0670    3.2590 N.2   679  CMP679     -0.2095
     16  C5        25.6600   59.9930    2.8990 C.2   679  CMP679      0.2526
     17  C6        25.9390   58.7580    2.3340 C.2   679  CMP679      0.4393
     18  N6        27.1730   58.3680    2.0150 N.pl3 679  CMP679      0.2180
     19  N1        24.9120   57.9220    2.0970 N.2   679  CMP679      0.0021
     20  C2        23.6930   58.2980    2.4130 C.3   679  CMP679      0.5254
     21  N3        23.2820   59.4380    2.9600 N.2   679  CMP679     -0.0055
     22  C4        24.3290   60.2590    3.1820 C.2   679  CMP679      0.3518
@<TRIPOS>BOND
     1    18    17    1
     2    19    17    2
     3    19    20    1
     4    17    16    1
     5    20    21    1
     6    16    22    1
     7    16    15    2
     8    21    22    2
     9    22    13    1
    10    15    14    1
    11     7    12    1
    12     7     6    1
    13    13    14    1
    14    13    12    1
    15    12    10    1
    16     5     6    1
    17     5     4    1
    18     6     8    1
    19    10    11    1
    20    10     8    1
    21     4     1    1
    22     8     9    1
    23     9     1    1
    24     1     2    2
    25     1     3    1
