@<TRIPOS>MOLECULE
1ruo_CMP_A_1.pdb
 22 25 0 0 0
SMALL
GASTEIGER

@<TRIPOS>ATOM
      1  P         23.4420   65.8550    7.3740 P.3   210  CMP210      0.2141
      2  O1P       22.3520   66.7490    7.9160 O.2   210  CMP210     -0.5172
      3  O2P       24.7860   65.7630    8.0210 O.3   210  CMP210     -0.4373
      4  O5'       23.8320   66.4210    5.9280 O.3   210  CMP210     -0.3114
      5  C5'       23.8750   65.5930    4.7140 C.3   210  CMP210      0.1812
      6  C4'       22.7440   64.6130    4.7330 C.3   210  CMP210      0.1793
      7  O4'       22.7590   63.7460    3.5820 O.3   210  CMP210     -0.3136
      8  C3'       23.0190   63.7280    5.9190 C.3   210  CMP210      0.1884
      9  O3'       22.6970   64.4470    7.1210 O.3   210  CMP210     -0.3111
     10  C2'       22.4670   62.3640    5.5330 C.3   210  CMP210      0.2541
     11  O2'       21.1640   62.0630    5.9860 O.3   210  CMP210     -0.2131
     12  C1'       22.6210   62.3990    4.0020 C.3   210  CMP210      0.3185
     13  N9        23.8420   61.6980    3.6330 N.pl3 210  CMP210     -0.1439
     14  C8        25.1190   62.1460    3.7590 C.3   210  CMP210      0.3377
     15  N7        26.0200   61.2700    3.3970 N.2   210  CMP210     -0.2095
     16  C5        25.2680   60.1670    3.0010 C.2   210  CMP210      0.2526
     17  C6        25.6150   58.9250    2.5190 C.2   210  CMP210      0.4393
     18  N6        26.8620   58.5340    2.3570 N.pl3 210  CMP210      0.2180
     19  N1        24.6330   58.0750    2.1970 N.2   210  CMP210      0.0021
     20  C2        23.3830   58.4440    2.3540 C.3   210  CMP210      0.5254
     21  N3        22.9220   59.5730    2.7970 N.2   210  CMP210     -0.0055
     22  C4        23.9340   60.4220    3.1150 C.2   210  CMP210      0.3518
@<TRIPOS>BOND
     1    19    20    1
     2    19    17    2
     3    20    21    1
     4    18    17    1
     5    17    16    1
     6    21    22    2
     7    16    22    1
     8    16    15    2
     9    22    13    1
    10    15    14    1
    11     7    12    1
    12     7     6    1
    13    13    14    1
    14    13    12    1
    15    12    10    1
    16     5     6    1
    17     5     4    1
    18     6     8    1
    19    10     8    1
    20    10    11    1
    21     8     9    1
    22     4     1    1
    23     9     1    1
    24     1     2    2
    25     1     3    1
