@<TRIPOS>MOLECULE
1rus_3PG_A_1.pdb
 11 10 0 0 0
SMALL
GASTEIGER

@<TRIPOS>ATOM
      1  C1        32.1250   15.3660   34.2690 C.2   500  3PG500      0.3972
      2  O1        33.3200   15.8890   34.2610 O.co2 500  3PG500     -0.2427
      3  O2        31.4100   15.5060   35.3380 O.co2 500  3PG500     -0.2427
      4  C2        31.6910   14.5860   33.0250 C.3   500  3PG500      0.2838
      5  O3        31.7390   15.6510   32.0330 O.3   500  3PG500     -0.2081
      6  C3        30.3720   13.4800   33.0970 C.3   500  3PG500      0.1983
      7  O1P       30.6030   11.9110   33.0060 O.3   500  3PG500     -0.2669
      8  P         30.3070   10.4840   34.1630 P.3   500  3PG500      0.5327
      9  O2P       28.8730   10.4180   34.9160 O.3   500  3PG500     -0.1145
     10  O3P       31.3930   10.2890   35.3600 O.3   500  3PG500     -0.1145
     11  O4P       30.3600    9.0180   33.4240 O.2   500  3PG500     -0.2224
@<TRIPOS>BOND
     1     5     4    1
     2     7     6    1
     3     7     8    1
     4     4     6    1
     5     4     1    1
     6    11     8    2
     7     8     9    1
     8     8    10    1
     9     2     1   ar
    10     1     3   ar
