@<TRIPOS>MOLECULE
1ruv_UVC_A_1.pdb
 21 23 0 0 0
SMALL
GASTEIGER

@<TRIPOS>ATOM
      1  N1        31.7980   13.5160    9.2800 N.am  125  UVC125      0.0000
      2  C2        31.4000   13.9450   10.6540 C.1   125  UVC125      0.0000
      3  N3        32.4010   13.6430   11.4820 N.2   125  UVC125      0.0000
      4  C4        33.5890   13.0970   11.3750 C.1   125  UVC125      0.0000
      5  C5        33.9200   12.7230    9.9680 C.2   125  UVC125      0.0000
      6  C6        32.9560   12.9690    9.0710 C.2   125  UVC125      0.0000
      7  O2        30.3830   14.4050   10.7560 O.2   125  UVC125      0.0000
      8  O4        34.4300   12.9140   12.3060 O.2   125  UVC125      0.0000
      9  C1'       30.7260   13.8090    8.3080 C.3   125  UVC125      0.0000
     10  C2'       30.8600   15.2330    7.7590 C.3   125  UVC125      0.0000
     11  O2'       29.5330   15.4670    7.4080 O.3   125  UVC125      0.0000
     12  C3'       31.7100   14.9720    6.5590 C.3   125  UVC125      0.0000
     13  C4'       31.3620   13.6170    6.0440 C.3   125  UVC125      0.0000
     14  O3'       31.2490   15.9470    5.6740 O.3   125  UVC125      0.0000
     15  O4'       30.9890   12.7830    7.2430 O.3   125  UVC125      0.0000
     16  C5'       32.2530   12.6190    5.2610 C.3   125  UVC125      0.0000
     17  O5'       33.4740   12.6590    5.9290 O.3   125  UVC125      0.0000
     18  V         29.5860   16.9730    6.0980 V     125  UVC125      0.0000
     19  O1V       29.5790   18.4470    7.0930 O.3   125  UVC125      0.0000
     20  O2V       28.3070   16.8640    5.7080 O.3   125  UVC125      0.0000
     21  O3V       30.3600   17.7820    4.5470 O.3   125  UVC125      0.0000
@<TRIPOS>BOND
     1    21    18    1
     2    16    17    1
     3    16    13    1
     4    14    18    1
     5    14    12    1
     6    20    18    1
     7    13    12    1
     8    13    15    1
     9    18    19    1
    10    18    11    1
    11    12    10    1
    12    15     9    1
    13    11    10    1
    14    10     9    1
    15     9     1    1
    16     6     1    1
    17     6     5    2
    18     1     2   am
    19     5     4    1
    20     2     7    2
    21     2     3    2
    22     4     3    2
    23     4     8    2
