@<TRIPOS>MOLECULE
1ruv_TBU_A_1.pdb
 15 14 0 0 0
SMALL
GASTEIGER

@<TRIPOS>ATOM
      1  O         26.4780    6.0560   24.7600 O.3   126  TBU126     -0.3894
      2  C         26.6510    7.1200   25.6930 C.3   126  TBU126      0.0577
      3  C1        27.8380    6.8110   26.6050 C.3   126  TBU126     -0.0366
      4  C2        25.4100    7.2510   26.5700 C.3   126  TBU126     -0.0366
      5  C3        26.9090    8.4110   24.9030 C.3   126  TBU126     -0.0366
      6  HO        25.7590    5.5210   24.7410 H     126  TBU126      0.2101
      7  H11       28.5880    6.7260   26.1000 H     126  TBU126      0.0257
      8  H12       27.9440    7.4960   27.1920 H     126  TBU126      0.0257
      9  H13       27.6770    6.0390   27.0520 H     126  TBU126      0.0257
     10  H21       24.7390    7.6190   26.0820 H     126  TBU126      0.0257
     11  H22       25.1640    6.4280   26.8660 H     126  TBU126      0.0257
     12  H23       25.5910    7.7930   27.2770 H     126  TBU126      0.0257
     13  H31       26.1470    8.6580   24.4740 H     126  TBU126      0.0257
     14  H32       27.1680    9.0670   25.4750 H     126  TBU126      0.0257
     15  H33       27.5690    8.2580   24.2980 H     126  TBU126      0.0257
@<TRIPOS>BOND
     1    15     5    1
     2    13     5    1
     3     6     1    1
     4     1     2    1
     5     5    14    1
     6     5     2    1
     7     2     4    1
     8     2     3    1
     9    10     4    1
    10     7     3    1
    11     4    11    1
    12     4    12    1
    13     3     9    1
    14     3     8    1
