@<TRIPOS>MOLECULE
1rv0_DAN_L_1.pdb
 20 20 0 0 0
SMALL
GASTEIGER

@<TRIPOS>ATOM
      1  C1        42.2590    0.7560  -21.5420 C.2   701  DAN701      0.3914
      2  C2        42.2650    1.1270  -23.0990 C.3   701  DAN701      0.2203
      3  C3        41.1330    2.2140  -23.4690 C.3   701  DAN701      0.0760
      4  C4        41.4720    3.5960  -22.7910 C.3   701  DAN701      0.1773
      5  C5        42.8550    4.0960  -23.3090 C.3   701  DAN701      0.1552
      6  C6        43.9780    3.0340  -22.9200 C.3   701  DAN701      0.1710
      7  C7        45.4080    3.4360  -23.4240 C.3   701  DAN701      0.2134
      8  C8        46.5200    2.3480  -23.2280 C.3   701  DAN701      0.2173
      9  C9        47.8790    3.0200  -23.3790 C.3   701  DAN701      0.2175
     10  C10       43.6580    6.5100  -23.3180 C.2   701  DAN701      0.2420
     11  C11       43.9800    7.7070  -22.4380 C.3   701  DAN701      0.0964
     12  N5        43.2260    5.4060  -22.6870 N.am  701  DAN701     -0.2020
     13  O1A       41.1930    0.2800  -21.0150 O.co2 701  DAN701     -0.2430
     14  O1B       43.3180    0.9470  -20.8650 O.co2 701  DAN701     -0.2430
     15  O4        40.4680    4.5420  -23.1480 O.3   701  DAN701     -0.2211
     16  O6        43.6190    1.6790  -23.4970 O.3   701  DAN701     -0.3429
     17  O7        45.3260    3.7460  -24.8270 O.3   701  DAN701     -0.2176
     18  O8        46.4350    1.7900  -21.9080 O.3   701  DAN701     -0.2175
     19  O9        48.8230    2.1470  -23.9810 O.3   701  DAN701     -0.2175
     20  O10       43.8130    6.5960  -24.5370 O.2   701  DAN701     -0.2733
@<TRIPOS>BOND
     1    17     7    1
     2    20    10    2
     3    19     9    1
     4    16     2    1
     5    16     6    1
     6     3     2    1
     7     3     4    1
     8     7     8    1
     9     7     6    1
    10     9     8    1
    11    10    12   am
    12    10    11    1
    13     5     6    1
    14     5     4    1
    15     5    12    1
    16     8    18    1
    17    15     4    1
    18     2     1    1
    19     1    13   ar
    20     1    14   ar
