@<TRIPOS>MOLECULE
1rv1_IMZ_A_1.pdb
 41 45 0 0 0
SMALL
GASTEIGER

@<TRIPOS>ATOM
      1  C4        12.2280    8.6240   13.6240 C.3   110  IMZ110      0.2840
      2  C40       12.8510    8.9460   14.9790 C.ar  110  IMZ110      0.0305
      3  C45       12.0550    9.3540   16.0490 C.ar  110  IMZ110      0.0005
      4  C44       12.6320    9.6520   17.2950 C.ar  110  IMZ110      0.0065
      5  C41       14.2290    8.8410   15.1600 C.ar  110  IMZ110      0.0005
      6  C42       14.8070    9.1350   16.3850 C.ar  110  IMZ110      0.0065
      7  C43       14.0090    9.5350   17.4490 C.ar  110  IMZ110      0.0345
      8 BR43       14.7790    9.8260   19.1110 Br    110  IMZ110     -0.0490
      9  N3        10.9310    9.2340   13.4740 N.2   110  IMZ110     -0.0600
     10  C2        10.0650    8.3550   12.8880 C.2   110  IMZ110      0.3296
     11  C20        8.6620    8.6530   12.5560 C.ar  110  IMZ110      0.1164
     12  C26        7.6100    7.6900   12.6200 C.ar  110  IMZ110      0.1486
     13  O26        7.9380    6.3730   12.8810 O.3   110  IMZ110     -0.4751
     14  C27        6.9030    5.6050   13.4720 C.3   110  IMZ110      0.2055
     15  C28        7.4580    4.3070   13.9540 C.3   110  IMZ110      0.0512
     16  C25        6.3000    8.0540   12.3790 C.ar  110  IMZ110      0.0740
     17  C21        8.3180    9.9750   12.2220 C.ar  110  IMZ110      0.0136
     18  C22        6.9840   10.3350   11.9760 C.ar  110  IMZ110      0.0374
     19  C23        5.9760    9.3620   12.0610 C.ar  110  IMZ110      0.1418
     20  O23        4.6550    9.6950   11.8340 O.3   110  IMZ110     -0.4713
     21  C24        4.4580   10.8450   10.9880 C.3   110  IMZ110      0.2525
     22  N1        10.7080    7.1140   12.6170 N.am  110  IMZ110     -0.1196
     23  C10       10.2210    6.1400   11.8090 C.2   110  IMZ110      0.3990
     24  O10       10.3110    4.9580   12.1250 O.2   110  IMZ110     -0.2234
     25  N10        9.5790    6.5030   10.6780 N.am  110  IMZ110     -0.2411
     26  C15        8.6520    5.5510   10.0230 C.3   110  IMZ110      0.1144
     27  C14        7.3870    6.2560    9.5610 C.3   110  IMZ110      0.0941
     28  N13        7.7360    7.5210    8.8490 N.3   110  IMZ110     -0.2675
     29  C13        7.7600    7.5260    7.3830 C.3   110  IMZ110      0.1082
     30  C16        6.5910    6.7500    6.8410 C.3   110  IMZ110      0.1993
     31  O17        5.4180    7.1650    7.5190 O.3   110  IMZ110     -0.2189
     32  C11        9.9240    7.7300    9.9280 C.3   110  IMZ110      0.1144
     33  C12        8.6490    8.4490    9.5400 C.3   110  IMZ110      0.0941
     34  C5        11.9950    7.0870   13.3310 C.3   110  IMZ110      0.2446
     35  C50       11.8920    6.2580   14.6360 C.ar  110  IMZ110      0.0252
     36  C51       10.7880    6.3830   15.4780 C.ar  110  IMZ110      0.0002
     37  C52       10.7390    5.7060   16.7070 C.ar  110  IMZ110      0.0065
     38  C55       12.9470    5.4260   15.0270 C.ar  110  IMZ110      0.0002
     39  C54       12.9020    4.7420   16.2520 C.ar  110  IMZ110      0.0065
     40  C53       11.8020    4.8940   17.0880 C.ar  110  IMZ110      0.0345
     41 BR53       11.8210    4.1460   18.7870 Br    110  IMZ110     -0.0490
@<TRIPOS>BOND
     1    30    29    1
     2    30    31    1
     3    29    28    1
     4    28    33    1
     5    28    27    1
     6    33    32    1
     7    27    26    1
     8    32    25    1
     9    26    25    1
    10    25    23   am
    11    21    20    1
    12    23    24    2
    13    23    22   am
    14    20    19    1
    15    18    19   ar
    16    18    17   ar
    17    19    16   ar
    18    17    11   ar
    19    16    12   ar
    20    11    12   ar
    21    11    10    1
    22    22    10    1
    23    22    34    1
    24    12    13    1
    25    13    14    1
    26    10     9    2
    27    34     1    1
    28    34    35    1
    29    14    15    1
    30     9     1    1
    31     1     2    1
    32    35    38   ar
    33    35    36   ar
    34     2     5   ar
    35     2     3   ar
    36    38    39   ar
    37     5     6   ar
    38    36    37   ar
    39     3     4   ar
    40    39    40   ar
    41     6     7   ar
    42    37    40   ar
    43    40    41    1
    44     4     7   ar
    45     7     8    1
