@<TRIPOS>MOLECULE
1rv3_PLP_A_1.pdb
 15 15 0 0 0
SMALL
GASTEIGER

@<TRIPOS>ATOM
      1  N1        52.2160   80.4040   69.7850 N.ar  500  PLP500     -0.2452
      2  C2        52.8010   81.6880   69.7230 C.ar  500  PLP500      0.0978
      3  C2A       54.2190   81.8420   69.2610 C.3   500  PLP500      0.0555
      4  C3        51.9570   82.8710   70.1260 C.ar  500  PLP500      0.2049
      5  O3        52.3580   84.1560   70.1240 O.3   500  PLP500     -0.2857
      6  C4        50.5050   82.6010   70.5880 C.ar  500  PLP500      0.0182
      7  C4A       49.6170   83.6140   70.9870 C.3   500  PLP500      0.0342
      8  C5        50.0270   81.2010   70.6110 C.ar  500  PLP500      0.0261
      9  C6        50.9170   80.1140   70.1970 C.ar  500  PLP500      0.0965
     10  C5A       48.6290   80.8320   71.0740 C.3   500  PLP500      0.1815
     11  O4P       47.5980   80.6740   70.1060 O.3   500  PLP500     -0.2653
     12  P         46.3810   80.0310   70.3380 P.3   500  PLP500      0.5329
     13  O1P       45.7380   80.9040   71.3990 O.3   500  PLP500     -0.1145
     14  O2P       45.6810   80.1410   69.0820 O.2   500  PLP500     -0.2224
     15  O3P       46.1790   78.7260   70.8270 O.3   500  PLP500     -0.1145
@<TRIPOS>BOND
     1    14    12    2
     2     3     2    1
     3     2     1   ar
     4     2     4   ar
     5     1     9   ar
     6    11    12    1
     7    11    10    1
     8     5     4    1
     9     4     6   ar
    10     9     8   ar
    11    12    15    1
    12    12    13    1
    13     6     8   ar
    14     6     7    1
    15     8    10    1
