@<TRIPOS>MOLECULE
1rv4_PLP_A_1.pdb
 15 15 0 0 0
SMALL
GASTEIGER

@<TRIPOS>ATOM
      1  N1        52.5560   80.4740   69.6040 N.ar  500  PLP500     -0.2452
      2  C2        53.1000   81.7730   69.5790 C.ar  500  PLP500      0.0978
      3  C2A       54.5170   81.9760   69.1700 C.3   500  PLP500      0.0555
      4  C3        52.2230   82.9150   69.9720 C.ar  500  PLP500      0.2049
      5  O3        52.6080   84.2130   69.9980 O.3   500  PLP500     -0.2857
      6  C4        50.7610   82.5880   70.3840 C.ar  500  PLP500      0.0182
      7  C4A       49.8680   83.5430   70.7620 C.3   500  PLP500      0.0342
      8  C5        50.3110   81.1720   70.3790 C.ar  500  PLP500      0.0261
      9  C6        51.2530   80.1290   69.9730 C.ar  500  PLP500      0.0965
     10  C5A       48.8980   80.7180   70.8140 C.3   500  PLP500      0.1815
     11  O4P       47.7430   80.8130   69.9660 O.3   500  PLP500     -0.2653
     12  P         46.4400   80.3260   70.3110 P.3   500  PLP500      0.5329
     13  O1P       46.0280   81.1990   71.4980 O.3   500  PLP500     -0.1145
     14  O2P       45.6250   80.6370   69.1750 O.2   500  PLP500     -0.2224
     15  O3P       46.0880   79.0310   70.7260 O.3   500  PLP500     -0.1145
@<TRIPOS>BOND
     1     3     2    1
     2    14    12    2
     3     2     1   ar
     4     2     4   ar
     5     1     9   ar
     6    11    12    1
     7    11    10    1
     8     4     5    1
     9     4     6   ar
    10     9     8   ar
    11    12    15    1
    12    12    13    1
    13     8     6   ar
    14     8    10    1
    15     6     7    1
