@<TRIPOS>MOLECULE
1rv7_AB1_B_1.pdb
 46 49 0 0 0
SMALL
GASTEIGER

@<TRIPOS>ATOM
      1  C1        16.4820   32.8820    7.0130 C.3   1001  AB11001     0.1409
      2  C2        17.0210   32.6360    4.3850 C.3   1001  AB11001     0.1053
      3  N1        16.9340   34.1300    4.3090 N.am  1001  AB11001    -0.2295
      4  C3        16.8350   34.9100    5.3790 C.1   1001  AB11001     0.2113
      5  N2        16.5740   34.2950    6.5480 N.2   1001  AB11001    -0.1900
      6  C4        17.3280   35.3150   -2.8290 C.ar  1001  AB11001    -0.0204
      7  C5        16.6990   35.1430   -4.2240 C.ar  1001  AB11001    -0.0042
      8  C6        17.3100   34.2000   -5.2030 C.ar  1001  AB11001    -0.0003
      9  C7        18.5330   33.5240   -4.9350 C.ar  1001  AB11001    -0.0000
     10  C8        19.1460   33.6560   -3.5920 C.ar  1001  AB11001    -0.0003
     11  C9        18.5770   34.4630   -2.4920 C.ar  1001  AB11001    -0.0042
     12  O1        16.8790   36.1020    5.4050 O.2   1001  AB11001    -0.2063
     13  C10       17.2930   34.6810    2.9710 C.3   1001  AB11001     0.1614
     14  C11       16.0700   34.5270    2.1590 C.2   1001  AB11001     0.2600
     15  N3        15.3000   35.5300    2.3510 N.am  1001  AB11001    -0.2054
     16  C12       14.0770   35.6330    1.4730 C.3   1001  AB11001     0.1023
     17  C13       18.5720   33.8970    2.2980 C.3   1001  AB11001     0.0278
     18  C14       18.6880   34.0330    0.7080 C.3   1001  AB11001     0.0022
     19  C15       20.0160   34.2110    3.0220 C.3   1001  AB11001     0.0022
     20  O2        15.9790   33.5740    1.4750 O.2   1001  AB11001    -0.2715
     21  C16       12.8640   31.8170    3.5210 C.ar  1001  AB11001    -0.0003
     22  C17       12.9040   31.9500    5.0410 C.ar  1001  AB11001    -0.0000
     23  C18       12.9520   33.1930    5.6170 C.ar  1001  AB11001    -0.0003
     24  C19       13.0210   34.2800    4.6850 C.ar  1001  AB11001    -0.0042
     25  C20       12.9610   34.1840    3.1770 C.ar  1001  AB11001    -0.0205
     26  C21       12.7310   32.8820    2.5600 C.ar  1001  AB11001    -0.0042
     27  C22       12.7610   35.3720    2.1670 C.3   1001  AB11001     0.0481
     28  C23       13.9800   36.9940    0.6760 C.3   1001  AB11001     0.0567
     29  C24       15.2670   37.4130   -0.0430 C.3   1001  AB11001     0.1738
     30  C25       15.6280   36.3060   -0.9950 C.3   1001  AB11001     0.1300
     31  N4        14.4930   36.0290   -1.9000 N.am  1001  AB11001    -0.2011
     32  C26       13.8020   34.8030   -1.7590 C.2   1001  AB11001     0.2859
     33  C27       12.6640   34.7600   -2.8810 C.3   1001  AB11001     0.2911
     34  O3        13.0730   35.5290   -4.1020 O.3   1001  AB11001    -0.4662
     35  C28       12.3230   36.4720   -4.9300 C.ar  1001  AB11001     0.1312
     36  O4        15.0640   38.5490   -0.7660 O.3   1001  AB11001    -0.2212
     37  C29       16.8500   36.5500   -1.8740 C.3   1001  AB11001     0.0506
     38  O5        13.9430   33.9320   -0.8380 O.2   1001  AB11001    -0.2693
     39  C30       11.7520   37.8570   -4.3270 C.ar  1001  AB11001     0.0118
     40  C31       11.4560   38.7510   -5.2470 C.ar  1001  AB11001    -0.0013
     41  C32       11.5460   38.4410   -6.7020 C.ar  1001  AB11001    -0.0004
     42  C33       11.9810   37.2470   -7.4360 C.ar  1001  AB11001    -0.0013
     43  C34       12.4300   36.2500   -6.5940 C.ar  1001  AB11001     0.0118
     44  C35       12.9580   35.1020   -7.2300 C.3   1001  AB11001     0.0342
     45  C36       11.5490   38.2980   -2.8820 C.3   1001  AB11001     0.0342
     46  C37       16.9650   32.1780    5.8400 C.3   1001  AB11001     0.0495
@<TRIPOS>BOND
     1    42    41   ar
     2    42    43   ar
     3    44    43    1
     4    41    40   ar
     5    43    35   ar
     6    40    39   ar
     7     8     9   ar
     8     8     7   ar
     9     9    10   ar
    10    35    39   ar
    11    35    34    1
    12    39    45    1
    13     7     6   ar
    14    34    33    1
    15    10    11   ar
    16    33    32    1
    17     6    11   ar
    18     6    37    1
    19    31    32   am
    20    31    30    1
    21    37    30    1
    22    32    38    2
    23    30    29    1
    24    36    29    1
    25    29    28    1
    26    28    16    1
    27    18    17    1
    28    16    27    1
    29    16    15    1
    30    20    14    2
    31    14    15   am
    32    14    13    1
    33    27    25    1
    34    17    13    1
    35    17    19    1
    36    26    25   ar
    37    26    21   ar
    38    13     3    1
    39    25    24   ar
    40    21    22   ar
    41     3     2    1
    42     3     4   am
    43     2    46    1
    44    24    23   ar
    45    22    23   ar
    46     4    12    2
    47     4     5    2
    48    46     1    1
    49     5     1    1
