@<TRIPOS>MOLECULE
1rvd_DBG_A_1.pdb
 33 35 0 0 0
SMALL
GASTEIGER

@<TRIPOS>ATOM
      1  C10        5.7150   33.2670   24.9580 C.3   167  DBG167      0.1189
      2  N3G        5.4170   33.2540   23.3860 N.3   167  DBG167     -0.1283
      3  PG         5.5810   32.5240   22.0610 P.3   167  DBG167      0.4131
      4  O1G        5.3880   31.0870   22.2950 O.3   167  DBG167     -0.1348
      5  O2G        4.5600   33.0410   21.1550 O.2   167  DBG167     -0.2487
      6  N3B        7.0320   32.7800   21.4900 N.3   167  DBG167     -0.0283
      7  PB         7.4350   32.2450   20.0560 P.3   167  DBG167      0.4661
      8  O1B        7.4710   30.7760   20.0090 O.3   167  DBG167     -0.1253
      9  O2B        6.6180   32.8410   19.0150 O.2   167  DBG167     -0.2352
     10  O3A        8.9270   32.8030   19.8730 O.3   167  DBG167     -0.2360
     11  PA         9.4640   34.3280   19.6140 P.3   167  DBG167      0.2220
     12  O1A        9.5390   34.6340   18.1540 O.2   167  DBG167     -0.5170
     13  O2A        8.6560   35.2990   20.4040 O.3   167  DBG167     -0.4370
     14  O5'       10.9560   34.2360   20.1890 O.3   167  DBG167     -0.3111
     15  C5'       11.2800   34.2100   21.5610 C.3   167  DBG167      0.1813
     16  C4'       12.6900   34.6730   21.7500 C.3   167  DBG167      0.1799
     17  O4'       13.6090   33.8870   20.9490 O.3   167  DBG167     -0.3326
     18  C2'       13.5090   35.9860   19.8880 C.3   167  DBG167      0.2310
     19  O2'       14.3030   37.0920   19.5170 O.3   167  DBG167     -0.2158
     20  C3'       12.9290   36.1510   21.3050 C.3   167  DBG167      0.2158
     21  O3'       13.8510   36.7970   22.1550 O.3   167  DBG167     -0.2175
     22  C1'       14.3650   34.7300   20.0590 C.3   167  DBG167      0.2293
     23  N9        14.5650   33.9770   18.8220 N.pl3 167  DBG167     -0.2354
     24  C4        15.7230   33.5220   18.3410 C.2   167  DBG167      0.2300
     25  N3        16.9180   33.7280   18.8700 N.2   167  DBG167     -0.3074
     26  C2        17.9440   33.3040   18.1200 C.1   167  DBG167      0.2531
     27  N2        19.2140   33.5610   18.4860 N.pl3 167  DBG167     -0.0226
     28  N1        17.7330   32.5770   16.9550 N.2   167  DBG167     -0.2485
     29  C6        16.5240   32.5160   16.3050 C.1   167  DBG167      0.2372
     30  O6        16.4630   31.9950   15.2010 O.2   167  DBG167     -0.2069
     31  C5        15.4450   32.9540   17.1510 C.2   167  DBG167      0.2182
     32  N7        14.0680   32.9240   16.9380 N.2   167  DBG167     -0.2322
     33  C8        13.6220   33.4680   17.9890 C.3   167  DBG167      0.2246
@<TRIPOS>BOND
     1    30    29    2
     2    29    28    2
     3    29    31    1
     4    32    31    2
     5    32    33    1
     6    28    26    2
     7    31    24    1
     8    33    23    1
     9    26    27    1
    10    26    25    2
    11    12    11    2
    12    24    23    1
    13    24    25    2
    14    23    22    1
    15     9     7    2
    16    19    18    1
    17    11    10    1
    18    11    14    1
    19    11    13    1
    20    10     7    1
    21    18    22    1
    22    18    20    1
    23     8     7    1
    24     7     6    1
    25    22    17    1
    26    14    15    1
    27    17    16    1
    28     5     3    2
    29    20    16    1
    30    20    21    1
    31     6     3    1
    32    15    16    1
    33     3     4    1
    34     3     2    1
    35     2     1    1
