@<TRIPOS>MOLECULE
1rvj_U10_L_1.pdb
 44 44 0 0 0
SMALL
GASTEIGER

@<TRIPOS>ATOM
      1  C1       -22.7890   52.8260   63.0960 C.2   859  U10859      0.0198
      2  C2       -23.9340   52.9510   62.2870 C.2   859  U10859      0.2282
      3  C3       -23.8440   53.0770   60.8930 C.2   859  U10859      0.2140
      4  C4       -22.5800   53.0470   60.2860 C.2   859  U10859      0.2140
      5  C5       -21.4250   52.9020   61.0870 C.2   859  U10859      0.2285
      6  C6       -21.5050   52.8010   62.4930 C.2   859  U10859      0.0235
      7  C1M      -22.9810   52.7840   64.6130 C.3   859  U10859      0.0343
      8  C3M      -25.5500   52.5470   59.1360 C.3   859  U10859      0.2528
      9  C4M      -22.1250   52.1680   58.0370 C.3   859  U10859      0.2528
     10  C7       -20.1970   52.7620   63.3050 C.3   859  U10859      0.0548
     11  C8       -20.0040   51.4980   64.0130 C.2   859  U10859     -0.0298
     12  C9       -19.6120   51.4440   65.3540 C.2   859  U10859     -0.0475
     13  C10      -19.3530   52.7260   66.1400 C.3   859  U10859      0.0260
     14  C11      -19.4180   50.1240   66.1040 C.3   859  U10859      0.0264
     15  C12      -20.5550   49.1060   65.9930 C.3   859  U10859      0.0297
     16  C13      -21.7060   49.4900   66.8020 C.2   859  U10859     -0.0342
     17  C14      -22.3460   48.6400   67.6910 C.2   859  U10859     -0.0478
     18  C15      -21.8600   47.2080   67.9130 C.3   859  U10859      0.0260
     19  C16      -23.5420   49.1320   68.4970 C.3   859  U10859      0.0263
     20  C17      -24.7580   49.5450   67.6670 C.3   859  U10859      0.0297
     21  C18      -25.9760   49.0540   68.3120 C.2   859  U10859     -0.0342
     22  C19      -26.9060   49.8620   68.9640 C.2   859  U10859     -0.0478
     23  C20      -26.7070   51.3720   69.0600 C.3   859  U10859      0.0260
     24  C21      -28.1490   49.2920   69.6470 C.3   859  U10859      0.0263
     25  C22      -28.5300   47.8430   69.3480 C.3   859  U10859      0.0297
     26  C23      -29.9690   47.7160   69.5260 C.2   859  U10859     -0.0342
     27  C24      -30.6540   46.5170   69.6280 C.2   859  U10859     -0.0478
     28  C25      -29.9040   45.1880   69.5730 C.3   859  U10859      0.0260
     29  C26      -32.1680   46.5510   69.8290 C.3   859  U10859      0.0263
     30  C27      -32.9700   45.5300   69.0260 C.3   859  U10859      0.0297
     31  C28      -34.3900   45.5750   69.3940 C.2   859  U10859     -0.0342
     32  C29      -35.1120   44.5000   69.9080 C.2   859  U10859     -0.0478
     33  C30      -34.4250   43.1510   70.1210 C.3   859  U10859      0.0260
     34  C31      -36.6050   44.6600   70.2230 C.3   859  U10859      0.0263
     35  C32      -37.2010   43.7840   71.3340 C.3   859  U10859      0.0297
     36  C33      -38.0070   42.7010   70.7670 C.2   859  U10859     -0.0343
     37  C34      -37.9780   41.3910   71.2280 C.2   859  U10859     -0.0482
     38  C35      -37.0870   40.9880   72.4040 C.3   859  U10859      0.0260
     39  C36      -38.8510   40.3320   70.5580 C.3   859  U10859      0.0217
     40  C37      -38.1870   38.9650   70.3980 C.3   859  U10859      0.0047
     41  O2       -25.0460   52.9160   62.8180 O.2   859  U10859     -0.2836
     42  O3       -25.0040   53.3580   60.1630 O.2   859  U10859     -0.4652
     43  O4       -22.4850   53.2290   58.9030 O.2   859  U10859     -0.4652
     44  O5       -20.3140   52.8530   60.5490 O.2   859  U10859     -0.2835
@<TRIPOS>BOND
     1     9    43    1
     2    43     4    1
     3     8    42    1
     4    42     3    1
     5     4     3    2
     6     4     5    1
     7    44     5    2
     8     3     2    1
     9     5     6    1
    10     2    41    2
    11     2     1    1
    12     6     1    2
    13     6    10    1
    14     1     7    1
    15    10    11    1
    16    11    12    2
    17    12    14    1
    18    12    13    1
    19    15    14    1
    20    15    16    1
    21    16    17    2
    22    20    21    1
    23    20    19    1
    24    17    18    1
    25    17    19    1
    26    21    22    2
    27    22    23    1
    28    22    24    1
    29    30    31    1
    30    30    29    1
    31    25    26    1
    32    25    24    1
    33    31    32    2
    34    26    27    2
    35    28    27    1
    36    27    29    1
    37    32    33    1
    38    32    34    1
    39    34    35    1
    40    40    39    1
    41    39    37    1
    42    36    37    2
    43    36    35    1
    44    37    38    1
