@<TRIPOS>MOLECULE
1rvj_SPO_M_1.pdb
 42 42 0 0 0
SMALL
GASTEIGER

@<TRIPOS>ATOM
      1  CM1      -18.4890   41.2610   86.3990 C.3   860  SPO860      0.1739
      2  O1       -19.5270   40.7070   85.3910 O.3   860  SPO860     -0.3559
      3  C1       -19.3770   39.2570   84.7930 C.3   860  SPO860      0.0933
      4  C2       -20.2280   38.7710   83.6540 C.3   860  SPO860      0.0299
      5  C3       -18.1460   38.3870   85.1630 C.3   860  SPO860      0.0296
      6  C4       -18.6360   39.9210   83.5520 C.3   860  SPO860      0.0316
      7  C5       -17.1780   40.2980   83.5850 C.3   860  SPO860      0.0281
      8  C6       -16.3270   40.1630   82.2990 C.2   860  SPO860     -0.0303
      9  C7       -15.1890   40.9420   82.0320 C.2   860  SPO860     -0.0261
     10  C8       -14.6640   42.0300   83.0190 C.3   860  SPO860      0.0307
     11  C9       -14.5680   40.6520   80.8030 C.2   860  SPO860     -0.0046
     12  C10      -13.3380   41.3870   80.2780 C.2   860  SPO860     -0.0007
     13  C11      -12.7480   40.9830   78.9010 C.2   860  SPO860     -0.0043
     14  C12      -11.6450   41.6520   78.3620 C.2   860  SPO860     -0.0222
     15  C13      -10.9670   42.8340   79.1230 C.3   860  SPO860      0.0310
     16  C14      -11.1930   41.2100   77.1040 C.2   860  SPO860     -0.0085
     17  C15      -10.0360   41.9310   76.4580 C.2   860  SPO860     -0.0221
     18  C16       -9.3740   41.5560   75.1240 C.3   860  SPO860      0.0476
     19  C17       -8.3310   42.4050   74.6700 C.2   860  SPO860     -0.0438
     20  C18       -7.9330   43.6550   75.4710 C.3   860  SPO860      0.0264
     21  C19       -7.6260   42.1370   73.4840 C.2   860  SPO860     -0.0339
     22  C20       -7.8800   40.9840   72.6270 C.3   860  SPO860      0.0300
     23  C21       -6.8350   40.4540   71.7040 C.3   860  SPO860      0.0303
     24  C22       -7.1890   39.1340   71.2100 C.2   860  SPO860     -0.0300
     25  C23       -6.8150   38.5270   70.0270 C.2   860  SPO860     -0.0261
     26  C24       -5.8240   39.1340   68.9880 C.3   860  SPO860      0.0307
     27  C25       -7.3900   37.2550   69.9210 C.2   860  SPO860     -0.0046
     28  C26       -7.2520   36.3500   68.7670 C.2   860  SPO860     -0.0010
     29  C27       -7.9220   34.9910   68.8380 C.2   860  SPO860     -0.0085
     30  C28       -7.8650   34.1020   67.7580 C.2   860  SPO860     -0.0436
     31  C29       -7.1700   34.3750   66.4030 C.3   860  SPO860      0.0264
     32  C30       -8.5020   32.7210   67.8160 C.3   860  SPO860      0.0267
     33  C31       -7.5650   31.7630   68.5200 C.3   860  SPO860      0.0297
     34  C32       -8.1810   30.5090   68.8780 C.2   860  SPO860     -0.0343
     35  C33       -7.6400   29.4140   69.5490 C.2   860  SPO860     -0.0482
     36  C34       -6.2020   29.3860   70.1090 C.3   860  SPO860      0.0260
     37  C35       -8.4530   28.1180   69.8550 C.3   860  SPO860      0.0217
     38  C36       -7.7810   26.8130   69.4110 C.3   860  SPO860      0.0043
     39  C37       -8.7720   25.8140   68.9420 C.3   860  SPO860      0.0003
     40  C38       -8.9340   25.2080   67.6910 C.3   860  SPO860      0.0000
     41  C39       -8.4220   23.7910   67.3420 C.3   860  SPO860      0.0000
     42  C40       -9.6460   25.8820   66.4900 C.3   860  SPO860      0.0000
@<TRIPOS>BOND
     1    31    30    1
     2    42    40    1
     3    41    40    1
     4    40    39    1
     5    30    32    1
     6    30    29    2
     7    32    33    1
     8    33    34    1
     9    28    29    1
    10    28    27    2
    11    34    35    2
    12    39    38    1
    13    26    25    1
    14    38    37    1
    15    35    37    1
    16    35    36    1
    17    27    25    1
    18    25    24    2
    19    24    23    1
    20    23    22    1
    21    22    21    1
    22    21    19    2
    23    19    18    1
    24    19    20    1
    25    18    17    1
    26    17    16    2
    27    16    14    1
    28    14    13    2
    29    14    15    1
    30    13    12    1
    31    12    11    2
    32    11     9    1
    33     9     8    2
    34     9    10    1
    35     8     7    1
    36     6     7    1
    37     6     4    1
    38     6     3    1
    39     4     3    1
    40     3     5    1
    41     3     2    1
    42     2     1    1
