@<TRIPOS>MOLECULE
1rvt_BGC_J_1.pdb
 12 12 0 0 0
SMALL
GASTEIGER

@<TRIPOS>ATOM
      1  C2        73.6370   31.5020  -35.0080 C.3   805  BGC805      0.2434
      2  C3        72.8940   31.9070  -33.6480 C.3   805  BGC805      0.2199
      3  C4        73.3880   33.3330  -33.2210 C.3   805  BGC805      0.2144
      4  C5        73.0440   34.3630  -34.4130 C.3   805  BGC805      0.1836
      5  C6        73.5240   35.8000  -34.1150 C.3   805  BGC805      0.2142
      6  C1        73.3110   32.5690  -36.1240 C.3   805  BGC805      0.3024
      7  O1        73.9700   32.2270  -37.3210 O.3   805  BGC805     -0.1869
      8  O2        73.2350   30.1740  -35.4650 O.3   805  BGC805     -0.2148
      9  O3        73.1720   30.9380  -32.6260 O.3   805  BGC805     -0.2174
     10  O4        72.6930   33.7280  -31.9060 O.3   805  BGC805     -0.2176
     11  O5        73.7070   33.9510  -35.6830 O.3   805  BGC805     -0.3236
     12  O6        74.9380   35.8320  -33.7060 O.3   805  BGC805     -0.2176
@<TRIPOS>BOND
     1     7     6    1
     2     6    11    1
     3     6     1    1
     4    11     4    1
     5     8     1    1
     6     1     2    1
     7     4     5    1
     8     4     3    1
     9     5    12    1
    10     2     3    1
    11     2     9    1
    12     3    10    1
