@<TRIPOS>MOLECULE
1rvt_GAL_H_1.pdb
 11 11 0 0 0
SMALL
GASTEIGER

@<TRIPOS>ATOM
      1  C1        91.9370   -5.1680  -32.6800 C.3   807  GAL807      0.1777
      2  C2        92.5060   -4.2380  -31.4710 C.3   807  GAL807      0.2141
      3  C3        93.1620   -5.0910  -30.3320 C.3   807  GAL807      0.2173
      4  C4        92.0350   -6.0660  -29.7590 C.3   807  GAL807      0.2142
      5  C5        91.5840   -7.0460  -30.9440 C.3   807  GAL807      0.1810
      6  C6        90.5130   -7.9570  -30.4840 C.3   807  GAL807      0.2141
      7  O2        93.4110   -3.3180  -32.0510 O.3   807  GAL807     -0.2176
      8  O3        93.6260   -4.1970  -29.2980 O.3   807  GAL807     -0.2175
      9  O4        90.9000   -5.2630  -29.3010 O.3   807  GAL807     -0.2176
     10  O5        91.0140   -6.1670  -32.0650 O.3   807  GAL807     -0.3481
     11  O6        90.1440   -8.9360  -31.5260 O.3   807  GAL807     -0.2176
@<TRIPOS>BOND
     1     1    10    1
     2     1     2    1
     3    10     5    1
     4     7     2    1
     5    11     6    1
     6     2     3    1
     7     5     6    1
     8     5     4    1
     9     3     4    1
    10     3     8    1
    11     4     9    1
