@<TRIPOS>MOLECULE
1rvt_SIA_H_1.pdb
 20 20 0 0 0
SMALL
GASTEIGER

@<TRIPOS>ATOM
      1  C1        89.2600  -10.4420  -29.5840 C.2   806  SIA806      0.3914
      2  C2        88.9380   -9.8140  -31.0720 C.3   806  SIA806      0.2203
      3  C3        88.6340  -10.8440  -32.1000 C.3   806  SIA806      0.0760
      4  C4        87.1580  -11.4340  -31.8020 C.3   806  SIA806      0.1773
      5  C5        86.0920  -10.2560  -31.8860 C.3   806  SIA806      0.1552
      6  C6        86.3880   -9.1590  -30.7170 C.3   806  SIA806      0.1710
      7  C7        85.4480   -7.9750  -30.7380 C.3   806  SIA806      0.2134
      8  C8        85.8770   -6.8300  -29.8200 C.3   806  SIA806      0.2173
      9  C9        84.8310   -5.7050  -29.9010 C.3   806  SIA806      0.2175
     10  C10       83.6590  -10.8830  -32.3830 C.2   806  SIA806      0.2420
     11  C11       83.5810  -10.3620  -33.8160 C.3   806  SIA806      0.0964
     12  N5        84.7710  -10.8040  -31.6190 N.am  806  SIA806     -0.2020
     13  O1A       90.2660  -11.1900  -29.5330 O.co2 806  SIA806     -0.2430
     14  O1B       88.5760  -10.2310  -28.5640 O.co2 806  SIA806     -0.2430
     15  O4        86.9750  -12.3050  -32.7180 O.3   806  SIA806     -0.2211
     16  O6        87.7350   -8.9890  -31.0060 O.3   806  SIA806     -0.3429
     17  O7        85.3850   -7.4770  -32.0870 O.3   806  SIA806     -0.2176
     18  O8        85.9710   -7.2860  -28.4710 O.3   806  SIA806     -0.2175
     19  O9        85.1610   -4.6180  -29.0670 O.3   806  SIA806     -0.2175
     20  O10       82.6600  -11.3970  -31.9010 O.2   806  SIA806     -0.2733
@<TRIPOS>BOND
     1    11    10    1
     2    15     4    1
     3    10    20    2
     4    10    12   am
     5     3     4    1
     6     3     2    1
     7    17     7    1
     8     5     4    1
     9     5    12    1
    10     5     6    1
    11     2    16    1
    12     2     1    1
    13    16     6    1
    14     7     6    1
    15     7     8    1
    16     9     8    1
    17     9    19    1
    18     8    18    1
    19     1    13   ar
    20     1    14   ar
