@<TRIPOS>MOLECULE
1rvu_PLP_A_1.pdb
 15 15 0 0 0
SMALL
GASTEIGER

@<TRIPOS>ATOM
      1  N1        52.5590   80.1650   69.0170 N.2   500  PLP500     -0.2499
      2  C2        53.0470   81.4870   68.9500 C.2   500  PLP500      0.0714
      3  C2A       54.4900   81.7360   68.6170 C.3   500  PLP500      0.0503
      4  C3        52.0890   82.6020   69.2190 C.3   500  PLP500      0.2097
      5  O3        52.3960   83.9150   69.1950 O.3   500  PLP500     -0.2121
      6  C4        50.6320   82.2260   69.5550 C.2   500  PLP500      0.0130
      7  C4A       49.7020   83.1410   69.8160 C.2   500  PLP500     -0.0019
      8  C5        50.2410   80.7900   69.6070 C.2   500  PLP500      0.0257
      9  C6        51.2500   79.7770   69.3230 C.2   500  PLP500      0.0961
     10  C5A       48.8300   80.2850   69.9770 C.3   500  PLP500      0.1815
     11  O4P       47.6910   80.4230   69.1240 O.3   500  PLP500     -0.2653
     12  P         46.3670   80.0250   69.4920 P.3   500  PLP500      0.5329
     13  O1P       46.0110   80.9560   70.6300 O.3   500  PLP500     -0.1145
     14  O2P       45.5440   80.3210   68.3570 O.2   500  PLP500     -0.2224
     15  O3P       45.9710   78.7860   69.9940 O.3   500  PLP500     -0.1145
@<TRIPOS>BOND
     1    14    12    2
     2     3     2    1
     3     2     1    2
     4     2     4    1
     5     1     9    1
     6    11    12    1
     7    11    10    1
     8     5     4    1
     9     4     6    1
    10     9     8    2
    11    12    15    1
    12    12    13    1
    13     6     8    1
    14     6     7    2
    15     8    10    1
