@<TRIPOS>MOLECULE
1rvv_INI_1_1.pdb
 21 21 0 0 0
SMALL
GASTEIGER

@<TRIPOS>ATOM
      1  N1       -38.4160  -37.2400   10.2020 N.2   200  INI200     -0.2923
      2  C2       -38.0710  -37.3600    8.8650 C.1   200  INI200      0.3663
      3  O2       -38.5370  -38.3420    8.2480 O.2   200  INI200     -0.1745
      4  N3       -37.2700  -36.3970    8.3620 N.2   200  INI200     -0.2344
      5  C4       -36.7980  -35.3140    9.0710 C.1   200  INI200      0.2293
      6  O4       -36.0520  -34.5580    8.4280 O.2   200  INI200     -0.2107
      7  C5       -37.2430  -35.1820   10.5150 C.3   200  INI200      0.3505
      8  N5       -36.8810  -33.9730   11.1980 N.pl3 200  INI200      0.0583
      9  O51      -36.3500  -33.0820   10.6070 O.2   200  INI200     -0.1294
     10  O52      -37.1100  -33.8920   12.3900 O.2   200  INI200     -0.1294
     11  C6       -38.1870  -36.1280   10.9960 C.2   200  INI200      0.2365
     12  N7       -38.9840  -35.9830   12.1130 N.pl3 200  INI200     -0.2071
     13  C8       -38.2930  -36.5180   13.3560 C.3   200  INI200      0.1501
     14  C9       -38.7600  -37.9900   13.7610 C.3   200  INI200      0.2063
     15  O9       -38.5610  -38.8080   12.6230 O.3   200  INI200     -0.2184
     16  C10      -40.1630  -38.4110   14.4060 C.3   200  INI200      0.2166
     17  O10      -41.2000  -38.2670   13.4580 O.3   200  INI200     -0.2175
     18  C11      -40.6560  -37.9690   15.9270 C.3   200  INI200      0.2175
     19  O11      -39.4640  -37.2100   16.2210 O.3   200  INI200     -0.2175
     20  C12      -40.8040  -38.8620   17.2610 C.3   200  INI200      0.2175
     21  O12      -40.7890  -40.2090   16.7980 O.3   200  INI200     -0.2175
@<TRIPOS>BOND
     1     3     2    2
     2     4     2    2
     3     4     5    2
     4     6     5    2
     5     2     1    2
     6     5     7    1
     7     1    11    2
     8     7    11    1
     9     7     8    1
    10     9     8    2
    11    11    12    1
    12     8    10    2
    13    12    13    1
    14    15    14    1
    15    13    14    1
    16    17    16    1
    17    14    16    1
    18    16    18    1
    19    18    19    1
    20    18    20    1
    21    21    20    1
