@<TRIPOS>MOLECULE
1rvw_HEM_A_1.pdb
 43 50 0 0 0
SMALL
GASTEIGER

@<TRIPOS>ATOM
      1 FE         13.6450   51.6940   33.0870 Fe    201  HEM201      0.0000
      2  CHA       16.4270   52.7460   31.5750 C.2   201  HEM201      0.0000
      3  CHB       14.2970   48.4940   32.2150 C.2   201  HEM201      0.0000
      4  CHC       11.2310   50.6320   35.2350 C.2   201  HEM201      0.0000
      5  CHD       12.8150   54.9590   33.8760 C.2   201  HEM201      0.0000
      6  NA        15.0850   50.7870   32.1220 N.ar  201  HEM201      0.0000
      7  C1A       16.1140   51.3820   31.4490 C.ar  201  HEM201      0.0000
      8  C2A       16.7030   50.4100   30.5230 C.ar  201  HEM201      0.0000
      9  C3A       16.1240   49.2100   30.7490 C.ar  201  HEM201      0.0000
     10  C4A       15.1500   49.4600   31.7640 C.ar  201  HEM201      0.0000
     11  CMA       16.3760   47.8510   30.0840 C.3   201  HEM201      0.0000
     12  CAA       17.7450   50.6970   29.4560 C.3   201  HEM201      0.0000
     13  CBA       19.0050   51.1000   30.1900 C.3   201  HEM201      0.0000
     14  CGA       20.2730   50.7670   29.4260 C.2   201  HEM201      0.0000
     15  O1A       21.1990   50.1740   30.0300 O.co2 201  HEM201      0.0000
     16  O2A       20.3430   51.1060   28.2250 O.co2 201  HEM201      0.0000
     17  NB        12.9250   49.9320   33.5940 N.2   201  HEM201      0.0000
     18  C1B       13.2580   48.7010   33.0610 C.2   201  HEM201      0.0000
     19  C2B       12.5080   47.6210   33.6490 C.2   201  HEM201      0.0000
     20  C3B       11.6960   48.2160   34.5860 C.2   201  HEM201      0.0000
     21  C4B       11.9510   49.6580   34.5380 C.2   201  HEM201      0.0000
     22  CMB       12.7120   46.1440   33.3210 C.3   201  HEM201      0.0000
     23  CAB       10.8400   47.5940   35.4830 C.3   201  HEM201      0.0000
     24  CBB        9.7290   46.8350   35.0250 C.3   201  HEM201      0.0000
     25  NC        12.2830   52.6090   34.2380 N.ar  201  HEM201      0.0000
     26  C1C       11.3530   52.0140   35.0780 C.ar  201  HEM201      0.0000
     27  C2C       10.5460   53.0210   35.7430 C.ar  201  HEM201      0.0000
     28  C3C       11.0020   54.2150   35.2910 C.ar  201  HEM201      0.0000
     29  C4C       12.0580   53.9550   34.3900 C.ar  201  HEM201      0.0000
     30  CMC        9.4460   52.7980   36.7740 C.3   201  HEM201      0.0000
     31  CAC       10.5840   55.4980   35.6140 C.3   201  HEM201      0.0000
     32  CBC        9.2490   55.9750   35.3120 C.3   201  HEM201      0.0000
     33  ND        14.4730   53.4730   32.8620 N.2   201  HEM201      0.0000
     34  C1D       13.9540   54.7490   33.1740 C.2   201  HEM201      0.0000
     35  C2D       14.7830   55.8330   32.6930 C.2   201  HEM201      0.0000
     36  C3D       15.8230   55.1970   32.1190 C.2   201  HEM201      0.0000
     37  C4D       15.6640   53.7340   32.2300 C.2   201  HEM201      0.0000
     38  CMD       14.4640   57.3330   32.6740 C.3   201  HEM201      0.0000
     39  CAD       16.8550   55.8980   31.2960 C.3   201  HEM201      0.0000
     40  CBD       16.3320   56.1700   29.8950 C.3   201  HEM201      0.0000
     41  CGD       17.4080   56.7270   28.9910 C.2   201  HEM201      0.0000
     42  O1D       18.2670   55.9470   28.5440 O.co2 201  HEM201      0.0000
     43  O2D       17.4060   57.9460   28.7350 O.co2 201  HEM201      0.0000
@<TRIPOS>BOND
     1    16    14   ar
     2    42    41   ar
     3    43    41   ar
     4    41    40    1
     5    14    15   ar
     6    14    13    1
     7    12    13    1
     8    12     8    1
     9    40    39    1
    10    11     9    1
    11     8     9   ar
    12     8     7   ar
    13     9    10   ar
    14    39    36    1
    15     7     2    2
    16     7     6   ar
    17     2    37    1
    18    10     6   ar
    19    10     3    2
    20    36    37    1
    21    36    35    2
    22     6     1    1
    23     3    18    1
    24    37    33    2
    25    38    35    1
    26    35    34    1
    27    33     1    1
    28    33    34    1
    29    18    17    2
    30    18    19    1
    31     1    17    1
    32     1    25    1
    33    34     5    2
    34    22    19    1
    35    17    21    1
    36    19    20    2
    37     5    29    1
    38    25    29   ar
    39    25    26   ar
    40    29    28   ar
    41    21    20    1
    42    21     4    2
    43    20    23    1
    44    24    23    1
    45    26     4    1
    46    26    27   ar
    47    28    31    1
    48    28    27   ar
    49    32    31    1
    50    27    30    1
