@<TRIPOS>MOLECULE
1rvx_SIA_A_1.pdb
 20 20 0 0 0
SMALL
GASTEIGER

@<TRIPOS>ATOM
      1  C1        52.3320   14.5810  -25.8040 C.2   3021  SIA3021     0.3914
      2  C2        52.2620   14.2680  -27.3550 C.3   3021  SIA3021     0.2203
      3  C3        52.0170   15.5950  -28.1910 C.3   3021  SIA3021     0.0760
      4  C4        53.2640   16.5320  -28.0580 C.3   3021  SIA3021     0.1773
      5  C5        54.4960   15.7900  -28.6370 C.3   3021  SIA3021     0.1552
      6  C6        54.7270   14.4750  -27.8000 C.3   3021  SIA3021     0.1710
      7  C7        55.9060   13.6010  -28.2930 C.3   3021  SIA3021     0.2134
      8  C8        55.8320   12.1570  -27.7430 C.3   3021  SIA3021     0.2173
      9  C9        57.1780   11.5020  -27.8910 C.3   3021  SIA3021     0.2175
     10  C10       56.6680   16.7160  -29.4690 C.2   3021  SIA3021     0.2420
     11  C11       57.8210   17.6600  -29.1850 C.3   3021  SIA3021     0.0964
     12  N5        55.7030   16.6470  -28.5490 N.am  3021  SIA3021    -0.2020
     13  O1A       51.3390   15.1330  -25.2540 O.co2 3021  SIA3021    -0.2430
     14  O1B       53.3630   14.2710  -25.1470 O.co2 3021  SIA3021    -0.2430
     15  O4        53.0470   17.7190  -28.8040 O.3   3021  SIA3021    -0.2211
     16  O6        53.5120   13.6320  -27.8160 O.3   3021  SIA3021    -0.3429
     17  O7        55.8870   13.5300  -29.7220 O.3   3021  SIA3021    -0.2176
     18  O8        55.4700   12.1620  -26.3540 O.3   3021  SIA3021    -0.2175
     19  O9        57.0650   10.1370  -27.5170 O.3   3021  SIA3021    -0.2175
     20  O10       56.6690   16.0630  -30.5080 O.2   3021  SIA3021    -0.2733
@<TRIPOS>BOND
     1    20    10    2
     2    17     7    1
     3    10    11    1
     4    10    12   am
     5    15     4    1
     6     5    12    1
     7     5     4    1
     8     5     6    1
     9     7     6    1
    10     7     8    1
    11     3     4    1
    12     3     2    1
    13     9     8    1
    14     9    19    1
    15    16     6    1
    16    16     2    1
    17     8    18    1
    18     2     1    1
    19     1    13   ar
    20     1    14   ar
