@<TRIPOS>MOLECULE
1rvy_PLG_A_1.pdb
 20 20 0 0 0
SMALL
GASTEIGER

@<TRIPOS>ATOM
      1  N1        52.6240   80.0530   68.6910 N.ar  500  PLG500     -0.2452
      2  C2        53.1400   81.3610   68.6380 C.ar  500  PLG500      0.0978
      3  C2A       54.5700   81.5900   68.2800 C.3   500  PLG500      0.0555
      4  C3        52.2140   82.4880   68.9440 C.ar  500  PLG500      0.2062
      5  O3        52.5550   83.7950   68.9290 O.3   500  PLG500     -0.2856
      6  C4        50.7430   82.1390   69.3050 C.ar  500  PLG500      0.0353
      7  C4A       49.6940   83.2420   69.6310 C.3   500  PLG500      0.1186
      8  C5        50.3200   80.7200   69.3420 C.ar  500  PLG500      0.0275
      9  C6        51.3080   79.6880   69.0170 C.ar  500  PLG500      0.0965
     10  C5A       48.8900   80.2360   69.7260 C.3   500  PLG500      0.1816
     11  OP4       47.7090   80.5190   68.9390 O.3   500  PLG500     -0.2653
     12  P         46.3820   80.1620   69.3210 P.3   500  PLG500      0.5329
     13  OP1       46.1680   80.9970   70.5620 O.3   500  PLG500     -0.1145
     14  OP2       45.5240   80.6320   68.2770 O.2   500  PLG500     -0.2224
     15  OP3       45.9020   78.9050   69.6990 O.3   500  PLG500     -0.1145
     16  C         50.1750   85.6920   72.4560 C.2   500  PLG500      0.3823
     17  O         51.0060   86.3140   73.0860 O.co2 500  PLG500     -0.2440
     18  OXT       48.9570   85.7810   72.8200 O.co2 500  PLG500     -0.2440
     19  CA        50.6320   84.8060   71.2180 C.3   500  PLG500      0.2032
     20  N         49.7300   83.6160   71.0400 N.3   500  PLG500     -0.2017
@<TRIPOS>BOND
     1    14    12    2
     2     3     2    1
     3     2     1   ar
     4     2     4   ar
     5     1     9   ar
     6     5     4    1
     7    11    12    1
     8    11    10    1
     9     4     6   ar
    10     9     8   ar
    11     6     8   ar
    12     6     7    1
    13    12    15    1
    14    12    13    1
    15     8    10    1
    16     7    20    1
    17    20    19    1
    18    19    16    1
    19    16    18   ar
    20    16    17   ar
