@<TRIPOS>MOLECULE
1rvy_PLP_B_1.pdb
 15 15 0 0 0
SMALL
GASTEIGER

@<TRIPOS>ATOM
      1  N1        33.7170   61.9270   69.9930 N.2   600  PLP600     -0.2499
      2  C2        32.5170   61.2150   69.7920 C.2   600  PLP600      0.0714
      3  C2A       32.0470   60.2390   70.8050 C.3   600  PLP600      0.0503
      4  C3        31.7520   61.4750   68.5540 C.3   600  PLP600      0.2097
      5  O3        30.5910   60.8740   68.2250 O.3   600  PLP600     -0.2121
      6  C4        32.3380   62.5150   67.5680 C.2   600  PLP600      0.0130
      7  C4A       31.7480   62.8500   66.4220 C.2   600  PLP600     -0.0019
      8  C5        33.6060   63.1840   67.8840 C.2   600  PLP600      0.0257
      9  C6        34.2820   62.8660   69.1250 C.2   600  PLP600      0.0961
     10  C5A       34.2510   64.1960   66.9390 C.3   600  PLP600      0.1815
     11  O4P       34.0520   65.5820   67.1610 O.3   600  PLP600     -0.2653
     12  P         34.8230   66.5880   66.5760 P.3   600  PLP600      0.5329
     13  O1P       34.5180   66.4480   65.1170 O.2   600  PLP600     -0.2224
     14  O2P       34.2670   67.7880   67.0800 O.3   600  PLP600     -0.1145
     15  O3P       36.2100   66.7260   66.5670 O.3   600  PLP600     -0.1145
@<TRIPOS>BOND
     1    13    12    2
     2     7     6    2
     3    15    12    1
     4    12    14    1
     5    12    11    1
     6    10    11    1
     7    10     8    1
     8     6     8    1
     9     6     4    1
    10     8     9    2
    11     5     4    1
    12     4     2    1
    13     9     1    1
    14     2     1    2
    15     2     3    1
