@<TRIPOS>MOLECULE
1rvz_SIA_A_1.pdb
 20 20 0 0 0
SMALL
GASTEIGER

@<TRIPOS>ATOM
      1  C1         7.4740  -17.8700  -67.4490 C.2   3201  SIA3201     0.3914
      2  C2         7.5260  -18.1460  -69.0450 C.3   3201  SIA3201     0.2203
      3  C3         7.4720  -16.9280  -69.8600 C.3   3201  SIA3201     0.0760
      4  C4         8.8410  -16.1260  -69.7320 C.3   3201  SIA3201     0.1773
      5  C5        10.0470  -17.0140  -70.2310 C.3   3201  SIA3201     0.1552
      6  C6        10.1790  -18.3150  -69.3030 C.3   3201  SIA3201     0.1710
      7  C7        11.3160  -19.2590  -69.7060 C.3   3201  SIA3201     0.2134
      8  C8        11.1950  -20.6600  -69.0990 C.3   3201  SIA3201     0.2173
      9  C9        12.3930  -21.5010  -69.5350 C.3   3201  SIA3201     0.2175
     10  C10       12.2280  -15.9410  -70.9990 C.2   3201  SIA3201     0.2420
     11  C11       12.0050  -16.1810  -72.4880 C.3   3201  SIA3201     0.0964
     12  N5        11.2560  -16.1900  -70.0840 N.am  3201  SIA3201    -0.2020
     13  O1A        6.4040  -17.3610  -67.0420 O.co2 3201  SIA3201    -0.2430
     14  O1B        8.3860  -18.1330  -66.6630 O.co2 3201  SIA3201    -0.2430
     15  O4         8.6530  -15.1120  -70.4510 O.3   3201  SIA3201    -0.2211
     16  O6         8.8470  -18.7260  -69.3430 O.3   3201  SIA3201    -0.3429
     17  O7        11.3380  -19.3750  -71.1350 O.3   3201  SIA3201    -0.2176
     18  O8        11.1720  -20.5440  -67.6840 O.3   3201  SIA3201    -0.2175
     19  O9        12.3170  -22.8030  -69.0010 O.3   3201  SIA3201    -0.2175
     20  O10       13.3170  -15.4930  -70.6410 O.2   3201  SIA3201    -0.2733
@<TRIPOS>BOND
     1    11    10    1
     2    17     7    1
     3    10    20    2
     4    10    12   am
     5    15     4    1
     6     5    12    1
     7     5     4    1
     8     5     6    1
     9     3     4    1
    10     3     2    1
    11     7     6    1
    12     7     8    1
    13     9     8    1
    14     9    19    1
    15    16     6    1
    16    16     2    1
    17     8    18    1
    18     2     1    1
    19     1    13   ar
    20     1    14   ar
