@<TRIPOS>MOLECULE
1rvz_GAL_A_1.pdb
 11 11 0 0 0
SMALL
GASTEIGER

@<TRIPOS>ATOM
      1  C1         4.3930  -22.6830  -70.8050 C.3   3202  GAL3202     0.1777
      2  C2         4.3790  -23.9270  -69.8480 C.3   3202  GAL3202     0.2141
      3  C3         4.1900  -23.4710  -68.3610 C.3   3202  GAL3202     0.2173
      4  C4         5.3880  -22.5820  -67.9580 C.3   3202  GAL3202     0.2142
      5  C5         5.3910  -21.3320  -68.8890 C.3   3202  GAL3202     0.1810
      6  C6         6.5630  -20.4320  -68.5320 C.3   3202  GAL3202     0.2141
      7  O2         3.3090  -24.7670  -70.2620 O.3   3202  GAL3202    -0.2176
      8  O3         4.1760  -24.6260  -67.5290 O.3   3202  GAL3202    -0.2175
      9  O4         6.6160  -23.3100  -68.1030 O.3   3202  GAL3202    -0.2176
     10  O5         5.5010  -21.7870  -70.3410 O.3   3202  GAL3202    -0.3481
     11  O6         6.6000  -19.2070  -69.3480 O.3   3202  GAL3202    -0.2176
@<TRIPOS>BOND
     1     1    10    1
     2     1     2    1
     3    10     5    1
     4     7     2    1
     5     2     3    1
     6    11     6    1
     7     5     6    1
     8     5     4    1
     9     3     4    1
    10     3     8    1
    11     9     4    1
