@<TRIPOS>MOLECULE
1rw8_580_A_1.pdb
 22 25 0 0 0
SMALL
GASTEIGER

@<TRIPOS>ATOM
      1  C1         5.6040   15.4780   10.8420 C.3   501  580501      0.1065
      2  C2         4.5310   15.1030    9.8480 C.2   501  580501      0.1138
      3  N3         4.3320   13.7430    9.8440 N.2   501  580501     -0.1668
      4  N4         5.2360   13.3190   10.7860 N.ar  501  580501     -0.2318
      5  C5         5.9700   14.2530   11.3730 C.ar  501  580501      0.0700
      6  C6         5.4860   11.9500   11.2320 C.ar  501  580501      0.1001
      7  C7         6.6030   12.1950   12.2890 C.ar  501  580501      0.0219
      8  C8         6.9280   13.7080   12.3840 C.ar  501  580501      0.0170
      9  C15        3.7310   15.9850    8.9620 C.2   501  580501      0.1287
     10  C16        6.1690   16.8260   11.2090 C.ar  501  580501     -0.0110
     11  C17        5.3090   17.8820   11.5710 C.ar  501  580501     -0.0012
     12  C18        5.8120   19.1620   11.9120 C.ar  501  580501      0.0293
     13  C19        7.1960   19.3770   11.8900 C.ar  501  580501      0.1401
     14  C20        8.0920   18.3420   11.5360 C.ar  501  580501      0.0293
     15  C21        7.5670   17.0650   11.1940 C.ar  501  580501     -0.0012
     16  C26        4.2780   17.0550    8.2200 C.3   501  580501      0.0863
     17  C27        3.4200   17.8330    7.4080 C.2   501  580501     -0.0163
     18  C28        2.0350   17.5410    7.3340 C.2   501  580501      0.0234
     19  C29        1.5520   16.4590    8.0990 C.2   501  580501      0.1087
     20  N30        2.3740   15.7310    8.8660 N.2   501  580501     -0.4089
     21  F34        7.6650   20.5720   12.2050 F     501  580501     -0.2042
     22  C35        0.1140   16.0570    8.1040 C.3   501  580501      0.0664
@<TRIPOS>BOND
     1    18    17    2
     2    18    19    1
     3    17    16    1
     4    19    22    1
     5    19    20    2
     6    16     9    1
     7    20     9    2
     8     9     2    1
     9     3     2    2
    10     3     4    1
    11     2     1    1
    12     4     6   ar
    13     4     5   ar
    14     1    10    1
    15     1     5    1
    16    15    10   ar
    17    15    14   ar
    18    10    11   ar
    19     6     7   ar
    20     5     8   ar
    21    14    13   ar
    22    11    12   ar
    23    13    12   ar
    24    13    21    1
    25     7     8   ar
