@<TRIPOS>MOLECULE
1rwb_NAD_A_1.pdb
 44 48 0 0 0
SMALL
GASTEIGER

@<TRIPOS>ATOM
      1  PA        35.9050   12.6490   -7.5420 P.3   601  NAD601      0.2189
      2  O1A       35.4060   13.0630   -6.2150 O.3   601  NAD601     -0.4371
      3  O2A       35.5610   13.5840   -8.6550 O.2   601  NAD601     -0.5170
      4  O5B       35.4610   11.1610   -7.9670 O.3   601  NAD601     -0.3112
      5  C5B       35.0550   10.2160   -6.9630 C.3   601  NAD601      0.1813
      6  C4B       33.6520    9.7860   -7.3110 C.3   601  NAD601      0.1821
      7  O4B       33.2910    8.8470   -6.2810 O.3   601  NAD601     -0.3135
      8  C3B       32.6200   10.9190   -7.2510 C.3   601  NAD601      0.2184
      9  O3B       31.9940   11.0660   -8.5300 O.3   601  NAD601     -0.2174
     10  C2B       31.7260   10.4820   -6.1110 C.3   601  NAD601      0.2570
     11  O2B       30.3560   10.9020   -6.2670 O.3   601  NAD601     -0.2130
     12  C1B       31.9290    8.9870   -6.0710 C.3   601  NAD601      0.3186
     13  N9A       31.6340    8.4070   -4.7830 N.pl3 601  NAD601     -0.1439
     14  C8A       32.0620    8.8460   -3.5610 C.3   601  NAD601      0.3377
     15  N7A       31.6290    8.1120   -2.5560 N.2   601  NAD601     -0.2095
     16  C5A       30.8740    7.1370   -3.1660 C.2   601  NAD601      0.2526
     17  C6A       30.1470    6.0590   -2.6390 C.2   601  NAD601      0.4393
     18  N6A       30.0410    5.7490   -1.3650 N.pl3 601  NAD601      0.2180
     19  N1A       29.4790    5.2410   -3.5250 N.2   601  NAD601      0.0021
     20  C2A       29.5730    5.5420   -4.8650 C.3   601  NAD601      0.5254
     21  N3A       30.2230    6.5230   -5.4600 N.2   601  NAD601     -0.0055
     22  C4A       30.8640    7.3010   -4.5480 C.2   601  NAD601      0.3518
     23  O3        37.4300   12.4910   -7.4400 O.3   601  NAD601     -0.2703
     24  PN        38.5450   12.0630   -8.5240 P.3   601  NAD601      0.2189
     25  O1N       39.5190   13.1400   -8.5650 O.3   601  NAD601     -0.4371
     26  O2N       37.8950   11.7890   -9.8280 O.2   601  NAD601     -0.5170
     27  O5D       39.1390   10.8170   -7.7550 O.3   601  NAD601     -0.3112
     28  C5D       38.9990    9.5200   -8.3530 C.3   601  NAD601      0.1813
     29  C4D       39.6590    8.5060   -7.4600 C.3   601  NAD601      0.1799
     30  O4D       41.0820    8.7970   -7.6440 O.3   601  NAD601     -0.3327
     31  C3D       39.4470    8.6130   -5.9470 C.3   601  NAD601      0.2158
     32  O3D       39.4750    7.2900   -5.3550 O.3   601  NAD601     -0.2175
     33  C2D       40.5960    9.4810   -5.4910 C.3   601  NAD601      0.2309
     34  O2D       40.8650    9.2750   -4.0910 O.3   601  NAD601     -0.2158
     35  C1D       41.6990    9.0580   -6.4190 C.3   601  NAD601      0.2263
     36  N1N       42.7020   10.0880   -6.6250 N.pl3 601  NAD601     -0.2787
     37  C2N       42.4210   11.3260   -7.2460 C.3   601  NAD601      0.1244
     38  C3N       43.4970   12.3440   -7.4290 C.2   601  NAD601      0.0544
     39  C7N       43.1430   13.6170   -8.0830 C.2   601  NAD601      0.2818
     40  O7N       44.0560   14.4460   -8.2220 O.2   601  NAD601     -0.2670
     41  N7N       41.9220   13.9060   -8.5180 N.am  601  NAD601     -0.0839
     42  C4N       44.8900   12.0270   -6.9410 C.2   601  NAD601      0.0033
     43  C5N       45.0090   10.6860   -6.3190 C.2   601  NAD601      0.0157
     44  C6N       44.0240    9.8230   -6.1810 C.2   601  NAD601      0.0633
@<TRIPOS>BOND
     1    26    24    2
     2     3     1    2
     3    25    24    1
     4     9     8    1
     5    24    27    1
     6    24    23    1
     7    41    39   am
     8    28    27    1
     9    28    29    1
    10    40    39    2
    11    39    38    1
    12     4     1    1
    13     4     5    1
    14    30    29    1
    15    30    35    1
    16     1    23    1
    17     1     2    1
    18    29    31    1
    19    38    37    1
    20    38    42    2
    21     6     8    1
    22     6     5    1
    23     6     7    1
    24     8    10    1
    25    37    36    1
    26    42    43    1
    27    36    35    1
    28    36    44    1
    29    35    33    1
    30    43    44    2
    31     7    12    1
    32    11    10    1
    33    10    12    1
    34    12    13    1
    35    31    33    1
    36    31    32    1
    37    33    34    1
    38    21    20    1
    39    21    22    2
    40    20    19    1
    41    13    22    1
    42    13    14    1
    43    22    16    1
    44    14    15    1
    45    19    17    2
    46    16    17    1
    47    16    15    2
    48    17    18    1
