@<TRIPOS>MOLECULE
1rwc_GAD_A_1.pdb
 11 11 0 0 0
SMALL
GASTEIGER

@<TRIPOS>ATOM
      1  C1        -3.7230   37.2460   76.3850 C.3   809  GAD809      0.2413
      2  C2        -4.1040   36.3940   75.1640 C.3   809  GAD809      0.2297
      3  O2        -3.5210   36.8810   73.9800 O.3   809  GAD809     -0.2160
      4  C3        -5.6140   36.4270   74.9260 C.3   809  GAD809      0.2111
      5  O3        -6.0850   35.1260   74.5250 O.3   809  GAD809     -0.2153
      6  C4        -6.3920   37.1370   76.0780 C.2   809  GAD809      0.0526
      7  C5        -5.9050   37.0950   77.3240 C.2   809  GAD809      0.2164
      8  C6        -6.5800   37.5390   78.6330 C.2   809  GAD809      0.4208
      9  O6A       -7.7340   38.0890   78.6930 O.co2 809  GAD809     -0.2371
     10  O6B       -5.8500   37.2560   79.6220 O.co2 809  GAD809     -0.2371
     11  O5        -4.5430   36.6370   77.4110 O.2   809  GAD809     -0.4664
@<TRIPOS>BOND
     1     3     2    1
     2     5     4    1
     3     4     2    1
     4     4     6    1
     5     2     1    1
     6     6     7    2
     7     1    11    1
     8     7    11    1
     9     7     8    1
    10     8     9   ar
    11     8    10   ar
