@<TRIPOS>MOLECULE
1rwf_GAD_A_1.pdb
 11 11 0 0 0
SMALL
GASTEIGER

@<TRIPOS>ATOM
      1  C1        -3.8810   38.0010   75.8660 C.3   809  GAD809      0.2413
      2  C2        -4.2320   37.0280   74.6700 C.3   809  GAD809      0.2297
      3  O2        -3.6070   37.2720   73.3240 O.3   809  GAD809     -0.2160
      4  C3        -5.7590   36.9220   74.5590 C.3   809  GAD809      0.2111
      5  O3        -6.1770   35.5900   74.1580 O.3   809  GAD809     -0.2153
      6  C4        -6.5060   37.2410   75.8790 C.2   809  GAD809      0.0526
      7  C5        -5.9470   37.6040   77.0700 C.2   809  GAD809      0.2164
      8  C6        -6.6200   37.9500   78.3540 C.2   809  GAD809      0.4208
      9  O6A       -7.7910   38.3930   78.2400 O.co2 809  GAD809     -0.2371
     10  O6B       -5.9390   37.8850   79.4500 O.co2 809  GAD809     -0.2371
     11  O5        -4.5280   37.7240   77.1180 O.2   809  GAD809     -0.4664
@<TRIPOS>BOND
     1     3     2    1
     2     5     4    1
     3     4     2    1
     4     4     6    1
     5     2     1    1
     6     1    11    1
     7     6     7    2
     8     7    11    1
     9     7     8    1
    10     9     8   ar
    11     8    10   ar
