@<TRIPOS>MOLECULE
1rwf_GCT_A_1.pdb
 11 11 0 0 0
SMALL
GASTEIGER

@<TRIPOS>ATOM
      1  C1         2.9570   44.8640   77.8430 C.3   811  GCT811      0.1781
      2  C2         2.6280   44.1200   79.1320 C.3   811  GCT811      0.2116
      3  O2         3.8790   43.9030   79.7130 O.3   811  GCT811     -0.2177
      4  C3         2.0410   42.7810   78.7560 C.3   811  GCT811      0.1877
      5  O3         1.7800   41.9390   79.8680 O.3   811  GCT811     -0.2202
      6  C4         0.7270   43.1080   78.0440 C.3   811  GCT811      0.0769
      7  C5         0.7680   44.1700   76.9390 C.3   811  GCT811      0.2204
      8  C6        -0.3440   45.2210   77.0110 C.2   811  GCT811      0.3914
      9  O6A       -0.1600   46.3750   76.5210 O.co2 811  GCT811     -0.2430
     10  O6B       -1.4150   44.8590   77.5430 O.co2 811  GCT811     -0.2430
     11  O5         2.0590   44.7220   76.7550 O.3   811  GCT811     -0.3422
@<TRIPOS>BOND
     1     9     8   ar
     2    11     7    1
     3    11     1    1
     4     7     8    1
     5     7     6    1
     6     8    10   ar
     7     1     2    1
     8     6     4    1
     9     4     2    1
    10     4     5    1
    11     2     3    1
