@<TRIPOS>MOLECULE
1rwf_ASG_A_1.pdb
 19 19 0 0 0
SMALL
GASTEIGER

@<TRIPOS>ATOM
      1  C1         6.1090   48.3180   77.1440 C.3   812  ASG812      0.2917
      2  C2         5.1410   47.5160   78.0130 C.3   812  ASG812      0.1871
      3  C3         4.0860   46.8170   77.1810 C.3   812  ASG812      0.2086
      4  C4         3.4150   47.8630   76.3130 C.3   812  ASG812      0.2048
      5  C5         4.4960   48.5750   75.4770 C.3   812  ASG812      0.1826
      6  C6         3.9700   49.5170   74.4100 C.3   812  ASG812      0.2142
      7  C7         6.2390   46.5340   79.9830 C.2   812  ASG812      0.2421
      8  C8         6.7260   45.1850   80.5040 C.3   812  ASG812      0.0964
      9  O1         7.0040   48.9990   78.0210 O.3   812  ASG812     -0.1879
     10  N          5.8900   46.4860   78.6840 N.am  812  ASG812     -0.1991
     11  O3         3.1910   46.2370   78.1460 O.3   812  ASG812     -0.2183
     12  O4         2.7320   48.7460   77.2130 O.3   812  ASG812     -0.2384
     13  O5         5.3950   49.2690   76.3750 O.3   812  ASG812     -0.3243
     14  O6         5.0600   49.9150   73.5780 O.3   812  ASG812     -0.2176
     15  O7         6.1650   47.6190   80.6250 O.2   812  ASG812     -0.2733
     16  OSA        0.7350   49.0940   75.7200 O.2   812  ASG812     -0.3452
     17  OSB        0.5870   49.8910   77.8970 O.3   812  ASG812     -0.2682
     18  OSC        2.0520   51.1210   76.2940 O.2   812  ASG812     -0.3452
     19  S          1.4660   49.6960   76.7940 S.3   812  ASG812     -0.0001
@<TRIPOS>BOND
     1    14     6    1
     2     6     5    1
     3     5     4    1
     4     5    13    1
     5    16    19    2
     6    18    19    2
     7     4     3    1
     8     4    12    1
     9    13     1    1
    10    19    12    1
    11    19    17    1
    12     1     2    1
    13     1     9    1
    14     3     2    1
    15     3    11    1
    16     2    10    1
    17    10     7   am
    18     7     8    1
    19     7    15    2
