@<TRIPOS>MOLECULE
1rwg_GCT_A_1.pdb
 11 11 0 0 0
SMALL
GASTEIGER

@<TRIPOS>ATOM
      1  C1         3.4220   44.6600   76.9880 C.3   811  GCT811      0.1781
      2  C2         3.0670   43.9040   78.2560 C.3   811  GCT811      0.2116
      3  O2         4.2690   43.6620   78.9270 O.3   811  GCT811     -0.2177
      4  C3         2.3950   42.6010   77.8810 C.3   811  GCT811      0.1877
      5  O3         2.1980   41.8100   79.0370 O.3   811  GCT811     -0.2202
      6  C4         1.0350   43.0080   77.3070 C.3   811  GCT811      0.0769
      7  C5         1.1030   44.0570   76.1940 C.3   811  GCT811      0.2204
      8  C6         0.1870   45.2520   76.4520 C.2   811  GCT811      0.3914
      9  O6A        0.4500   46.4060   75.9760 O.co2 811  GCT811     -0.2430
     10  O6B       -0.8510   45.0440   77.1390 O.co2 811  GCT811     -0.2430
     11  O5         2.4750   44.4680   75.9300 O.3   811  GCT811     -0.3422
@<TRIPOS>BOND
     1    11     7    1
     2    11     1    1
     3     9     8   ar
     4     7     8    1
     5     7     6    1
     6     8    10   ar
     7     1     2    1
     8     6     4    1
     9     4     2    1
    10     4     5    1
    11     2     3    1
