@<TRIPOS>MOLECULE
1rwg_GAD_A_1.pdb
 11 11 0 0 0
SMALL
GASTEIGER

@<TRIPOS>ATOM
      1  C1        -3.4560   37.7140   75.0260 C.3   809  GAD809      0.2413
      2  C2        -3.8520   36.7680   73.8660 C.3   809  GAD809      0.2297
      3  O2        -3.2450   37.0710   72.5710 O.3   809  GAD809     -0.2160
      4  C3        -5.3760   36.7280   73.7490 C.3   809  GAD809      0.2111
      5  O3        -5.8310   35.4010   73.3740 O.3   809  GAD809     -0.2153
      6  C4        -6.0940   37.2620   75.0190 C.2   809  GAD809      0.0526
      7  C5        -5.5060   37.4330   76.2180 C.2   809  GAD809      0.2164
      8  C6        -6.2070   37.8000   77.5350 C.2   809  GAD809      0.4208
      9  O6A       -7.4220   38.0230   77.4660 O.co2 809  GAD809     -0.2371
     10  O6B       -5.4990   37.8860   78.5980 O.co2 809  GAD809     -0.2371
     11  O5        -4.0780   37.3290   76.2650 O.2   809  GAD809     -0.4664
@<TRIPOS>BOND
     1     3     2    1
     2     5     4    1
     3     4     2    1
     4     4     6    1
     5     2     1    1
     6     6     7    2
     7     1    11    1
     8     7    11    1
     9     7     8    1
    10     9     8   ar
    11     8    10   ar
