@<TRIPOS>MOLECULE
1rwg_ASG_A_1.pdb
 19 19 0 0 0
SMALL
GASTEIGER

@<TRIPOS>ATOM
      1  C1         6.5240   48.0450   76.3710 C.3   812  ASG812      0.2917
      2  C2         5.5450   47.2340   77.2200 C.3   812  ASG812      0.1871
      3  C3         4.4860   46.5800   76.3590 C.3   812  ASG812      0.2086
      4  C4         3.8180   47.6000   75.4720 C.3   812  ASG812      0.2048
      5  C5         4.9400   48.3350   74.7220 C.3   812  ASG812      0.1826
      6  C6         4.4380   49.2270   73.6040 C.3   812  ASG812      0.2142
      7  C7         6.5450   46.3530   79.2520 C.2   812  ASG812      0.2421
      8  C8         6.9130   45.0610   79.9470 C.3   812  ASG812      0.0964
      9  O1         7.4620   48.7080   77.2070 O.3   812  ASG812     -0.1879
     10  N          6.1930   46.1930   77.9710 N.am  812  ASG812     -0.1991
     11  O3         3.5870   46.0300   77.3110 O.3   812  ASG812     -0.2183
     12  O4         3.0780   48.4350   76.3660 O.3   812  ASG812     -0.2384
     13  O5         5.7580   49.0220   75.6960 O.3   812  ASG812     -0.3243
     14  O6         5.4940   49.8080   72.8420 O.3   812  ASG812     -0.2176
     15  O7         6.5810   47.4740   79.7730 O.2   812  ASG812     -0.2733
     16  OSA        1.1950   48.9620   74.7530 O.2   812  ASG812     -0.3452
     17  OSB        0.9760   49.6110   76.9770 O.3   812  ASG812     -0.2682
     18  OSC        2.5200   50.8750   75.5410 O.2   812  ASG812     -0.3452
     19  S          1.9010   49.4520   75.9000 S.3   812  ASG812     -0.0001
@<TRIPOS>BOND
     1    14     6    1
     2     6     5    1
     3     5     4    1
     4     5    13    1
     5    16    19    2
     6     4     3    1
     7     4    12    1
     8    18    19    2
     9    13     1    1
    10    19    12    1
    11    19    17    1
    12     3     2    1
    13     3    11    1
    14     1     9    1
    15     1     2    1
    16     2    10    1
    17    10     7   am
    18     7    15    2
    19     7     8    1
