@<TRIPOS>MOLECULE
1rwh_GCT_A_1.pdb
 11 11 0 0 0
SMALL
GASTEIGER

@<TRIPOS>ATOM
      1  C1         3.2210   44.6310   76.8410 C.3   811  GCT811      0.1781
      2  C2         2.8570   44.0010   78.1670 C.3   811  GCT811      0.2116
      3  O2         4.0680   43.5730   78.7240 O.3   811  GCT811     -0.2177
      4  C3         2.2300   42.6920   77.6930 C.3   811  GCT811      0.1877
      5  O3         2.2110   41.8200   78.7140 O.3   811  GCT811     -0.2202
      6  C4         0.8500   43.0490   77.1390 C.3   811  GCT811      0.0769
      7  C5         0.9190   44.0440   75.9830 C.3   811  GCT811      0.2204
      8  C6        -0.2000   45.1000   75.9220 C.2   811  GCT811      0.3914
      9  O6A        0.0300   46.2680   75.5320 O.co2 811  GCT811     -0.2430
     10  O6B       -1.3420   44.7030   76.2120 O.co2 811  GCT811     -0.2430
     11  O5         2.2660   44.4800   75.8000 O.3   811  GCT811     -0.3422
@<TRIPOS>BOND
     1     9     8   ar
     2    11     7    1
     3    11     1    1
     4     8     7    1
     5     8    10   ar
     6     7     6    1
     7     1     2    1
     8     6     4    1
     9     4     2    1
    10     4     5    1
    11     2     3    1
