@<TRIPOS>MOLECULE
1rwh_GAD_A_1.pdb
 11 11 0 0 0
SMALL
GASTEIGER

@<TRIPOS>ATOM
      1  C1        -3.6530   37.7310   75.1550 C.3   809  GAD809      0.2413
      2  C2        -3.9880   36.6740   74.1150 C.3   809  GAD809      0.2297
      3  O2        -3.3210   36.9860   72.8690 O.3   809  GAD809     -0.2160
      4  C3        -5.4810   36.6360   73.8500 C.3   809  GAD809      0.2111
      5  O3        -5.8530   35.3460   73.3360 O.3   809  GAD809     -0.2153
      6  C4        -6.2240   36.9230   75.1630 C.2   809  GAD809      0.0526
      7  C5        -5.6620   37.2750   76.3110 C.2   809  GAD809      0.2164
      8  C6        -6.3680   37.5480   77.5620 C.2   809  GAD809      0.4208
      9  O6A       -7.5780   37.8890   77.4830 O.co2 809  GAD809     -0.2371
     10  O6B       -5.6860   37.4520   78.6220 O.co2 809  GAD809     -0.2371
     11  O5        -4.2720   37.4130   76.3750 O.2   809  GAD809     -0.4664
@<TRIPOS>BOND
     1     3     2    1
     2     5     4    1
     3     4     2    1
     4     4     6    1
     5     2     1    1
     6     1    11    1
     7     6     7    2
     8     7    11    1
     9     7     8    1
    10     9     8   ar
    11     8    10   ar
