@<TRIPOS>MOLECULE
1rwh_ASG_A_1.pdb
 19 19 0 0 0
SMALL
GASTEIGER

@<TRIPOS>ATOM
      1  C1         6.5490   47.9690   76.3120 C.3   812  ASG812      0.2917
      2  C2         5.5410   47.1110   77.0990 C.3   812  ASG812      0.1871
      3  C3         4.4230   46.5110   76.2400 C.3   812  ASG812      0.2086
      4  C4         3.7500   47.5580   75.3950 C.3   812  ASG812      0.2048
      5  C5         4.8750   48.2150   74.5760 C.3   812  ASG812      0.1826
      6  C6         4.3900   49.1050   73.4470 C.3   812  ASG812      0.2142
      7  C7         6.4130   46.2130   79.2210 C.2   812  ASG812      0.2421
      8  C8         6.7880   44.9150   79.8690 C.3   812  ASG812      0.0964
      9  O1         7.3370   48.6810   77.2640 O.3   812  ASG812     -0.1879
     10  N          6.1570   46.0780   77.9240 N.am  812  ASG812     -0.1991
     11  O3         3.5420   45.9660   77.1910 O.3   812  ASG812     -0.2183
     12  O4         3.0670   48.4710   76.2620 O.3   812  ASG812     -0.2384
     13  O5         5.7970   48.8710   75.4970 O.3   812  ASG812     -0.3243
     14  O6         5.4220   49.7970   72.7690 O.3   812  ASG812     -0.2176
     15  O7         6.3590   47.3150   79.7930 O.2   812  ASG812     -0.2733
     16  OSA        1.3560   48.9760   74.4790 O.2   812  ASG812     -0.3452
     17  OSB        0.8780   49.4590   76.7100 O.3   812  ASG812     -0.2682
     18  OSC        2.3780   50.9390   75.4590 O.2   812  ASG812     -0.3452
     19  S          1.8870   49.4400   75.7320 S.3   812  ASG812     -0.0001
@<TRIPOS>BOND
     1    14     6    1
     2     6     5    1
     3    16    19    2
     4     5     4    1
     5     5    13    1
     6     4     3    1
     7     4    12    1
     8    18    19    2
     9    13     1    1
    10    19    12    1
    11    19    17    1
    12     3     2    1
    13     3    11    1
    14     1     2    1
    15     1     9    1
    16     2    10    1
    17    10     7   am
    18     7    15    2
    19     7     8    1
