@<TRIPOS>MOLECULE
1rwj_HEM_A_1.pdb
 43 50 0 0 0
SMALL
GASTEIGER

@<TRIPOS>ATOM
      1 FE         18.8170    1.3700   20.5700 Fe     90  HEM90       0.0000
      2  CHA       20.6640   -0.9270   18.7640 C.2    90  HEM90       0.0000
      3  CHB       19.9800    0.0030   23.5050 C.2    90  HEM90       0.0000
      4  CHC       17.0830    3.7230   22.3760 C.2    90  HEM90       0.0000
      5  CHD       17.2550    2.3800   17.7120 C.2    90  HEM90       0.0000
      6  NA        20.0830   -0.0990   21.0290 N.2    90  HEM90       0.0000
      7  C1A       20.7660   -0.9510   20.1620 C.2    90  HEM90       0.0000
      8  C2A       21.5410   -1.9330   20.9230 C.2    90  HEM90       0.0000
      9  C3A       21.3420   -1.6650   22.2400 C.2    90  HEM90       0.0000
     10  C4A       20.4380   -0.5380   22.3010 C.2    90  HEM90       0.0000
     11  CMA       21.9230   -2.4390   23.4290 C.3    90  HEM90       0.0000
     12  CAA       22.4080   -3.0540   20.3690 C.3    90  HEM90       0.0000
     13  CBA       23.8110   -2.5350   20.1050 C.3    90  HEM90       0.0000
     14  CGA       24.7670   -3.6270   19.6720 C.2    90  HEM90       0.0000
     15  O1A       25.9480   -3.3100   19.4130 O.co2  90  HEM90       0.0000
     16  O2A       24.3400   -4.7980   19.5910 O.co2  90  HEM90       0.0000
     17  NB        18.6240    1.7990   22.5040 N.ar   90  HEM90       0.0000
     18  C1B       19.1380    1.0990   23.5900 C.ar   90  HEM90       0.0000
     19  C2B       18.7240    1.6770   24.8420 C.ar   90  HEM90       0.0000
     20  C3B       17.9830    2.7800   24.5370 C.ar   90  HEM90       0.0000
     21  C4B       17.9000    2.8330   23.0820 C.ar   90  HEM90       0.0000
     22  CMB       18.9540    1.0910   26.2360 C.3    90  HEM90       0.0000
     23  CAB       17.4320    3.8010   25.5290 C.3    90  HEM90       0.0000
     24  CBB       18.5400    4.5400   26.2830 C.3    90  HEM90       0.0000
     25  NC        17.4720    2.7540   20.1440 N.2    90  HEM90       0.0000
     26  C1C       16.8820    3.6690   20.9950 C.2    90  HEM90       0.0000
     27  C2C       15.9420    4.5090   20.2740 C.2    90  HEM90       0.0000
     28  C3C       15.9520    4.0910   18.9850 C.2    90  HEM90       0.0000
     29  C4C       16.9150    3.0100   18.9060 C.2    90  HEM90       0.0000
     30  CMC       15.0440    5.5940   20.8800 C.3    90  HEM90       0.0000
     31  CAC       14.9820    4.5090   17.8690 C.3    90  HEM90       0.0000
     32  CBC       15.0400    5.9900   17.4900 C.3    90  HEM90       0.0000
     33  ND        18.9900    0.8850   18.6590 N.ar   90  HEM90       0.0000
     34  C1D       18.2750    1.4350   17.5960 C.ar   90  HEM90       0.0000
     35  C2D       18.7470    0.9080   16.3340 C.ar   90  HEM90       0.0000
     36  C3D       19.6790   -0.0330   16.6120 C.ar   90  HEM90       0.0000
     37  C4D       19.8380   -0.0480   18.0620 C.ar   90  HEM90       0.0000
     38  CMD       18.3490    1.3830   14.9430 C.3    90  HEM90       0.0000
     39  CAD       20.3730   -0.8910   15.5590 C.3    90  HEM90       0.0000
     40  CBD       19.6150   -2.1670   15.2100 C.3    90  HEM90       0.0000
     41  CGD       20.2950   -2.9650   14.1080 C.2    90  HEM90       0.0000
     42  O1D       21.5390   -2.9410   14.0450 O.co2  90  HEM90       0.0000
     43  O2D       19.5900   -3.6260   13.3170 O.co2  90  HEM90       0.0000
@<TRIPOS>BOND
     1    43    41   ar
     2    42    41   ar
     3    41    40    1
     4    38    35    1
     5    40    39    1
     6    39    36    1
     7    35    36   ar
     8    35    34   ar
     9    36    37   ar
    10    32    31    1
    11    34     5    2
    12    34    33   ar
    13     5    29    1
    14    31    28    1
    15    37    33   ar
    16    37     2    2
    17    33     1    1
    18     2     7    1
    19    29    28    1
    20    29    25    2
    21    28    27    2
    22    15    14   ar
    23    16    14   ar
    24    14    13    1
    25    13    12    1
    26    25     1    1
    27    25    26    1
    28     7     8    1
    29     7     6    2
    30    27    30    1
    31    27    26    1
    32    12     8    1
    33     1     6    1
    34     1    17    1
    35     8     9    2
    36    26     4    2
    37     6    10    1
    38     9    10    1
    39     9    11    1
    40    10     3    2
    41     4    21    1
    42    17    21   ar
    43    17    18   ar
    44    21    20   ar
    45     3    18    1
    46    18    19   ar
    47    20    19   ar
    48    20    23    1
    49    19    22    1
    50    23    24    1
