@<TRIPOS>MOLECULE
1rwk_158_A_1.pdb
 13 12 0 0 0
SMALL
GASTEIGER

@<TRIPOS>ATOM
      1  O13       31.0970   60.5630    5.7880 O.2   501  158501     -0.2723
      2  C5        32.2260   60.7190    6.2260 C.2   501  158501      0.2536
      3  C6        32.4250   61.3040    7.6030 C.3   501  158501      0.1551
      4  S7        32.4410   63.0620    7.4850 S.3   501  158501     -0.0718
      5  N4        33.3330   60.3960    5.5510 N.am  501  158501     -0.1983
      6  C3        33.2980   59.8250    4.2110 C.3   501  158501      0.1635
      7  C2        33.3290   58.3190    4.2030 C.2   501  158501      0.1713
      8  O8        33.3510   57.7350    3.1340 O.2   501  158501     -0.2942
      9  C1        33.3400   57.5430    5.4900 C.3   501  158501      0.0741
     10  C9        34.4510   60.3700    3.3650 C.3   501  158501      0.1432
     11  C10       34.0430   61.6060    2.5920 C.2   501  158501      0.3671
     12  O11       32.8390   61.7870    2.3020 O.co2 501  158501     -0.2456
     13  O12       34.9350   62.4170    2.2640 O.co2 501  158501     -0.2456
@<TRIPOS>BOND
     1    13    11   ar
     2    12    11   ar
     3    11    10    1
     4     8     7    2
     5    10     6    1
     6     7     6    1
     7     7     9    1
     8     6     5    1
     9     5     2   am
    10     1     2    2
    11     2     3    1
    12     4     3    1
