@<TRIPOS>MOLECULE
1rwm_Q2Y_A_1.pdb
 37 40 0 0 0
SMALL
GASTEIGER

@<TRIPOS>ATOM
      1  O36       33.0300   61.8550    2.2170 O.co2 501  Q2Y501     -0.2456
      2  C6        34.2400   61.6550    2.4660 C.2   501  Q2Y501      0.3671
      3  O35       35.1420   62.3910    2.0040 O.co2 501  Q2Y501     -0.2456
      4  C7        34.6470   60.4890    3.3480 C.3   501  Q2Y501      0.1436
      5  C27       33.4920   59.9270    4.1790 C.3   501  Q2Y501      0.1708
      6  C18       33.7110   58.4490    4.3980 C.2   501  Q2Y501      0.2293
      7  O32       33.3980   57.6820    3.4990 O.2   501  Q2Y501     -0.2864
      8  N5        33.3610   60.6460    5.4380 N.am  501  Q2Y501     -0.1983
      9  C10       32.2200   60.7360    6.1270 C.2   501  Q2Y501      0.2467
     10  O33       31.1100   60.6620    5.6230 O.2   501  Q2Y501     -0.2729
     11  C9        32.3460   60.9500    7.6150 C.3   501  Q2Y501      0.1196
     12  C12       31.5760   62.1870    8.0220 C.ar  501  Q2Y501      0.0162
     13  C21       30.4510   62.1820    8.5970 C.ar  501  Q2Y501      0.0029
     14  C23       30.0290   63.4580    9.0040 C.ar  501  Q2Y501      0.0041
     15  C14       30.8120   64.3940    8.6710 C.ar  501  Q2Y501      0.0287
     16  S37       32.0730   63.7530    7.8210 S.2   501  Q2Y501     -0.0934
     17  C17       30.6180   65.8540    9.0090 C.3   501  Q2Y501      0.1482
     18  N3        31.8580   66.5180    9.3810 N.am  501  Q2Y501     -0.1963
     19  C19       31.8880   67.4500   10.3340 C.2   501  Q2Y501      0.2651
     20  O34       30.9050   67.6750   11.0180 O.2   501  Q2Y501     -0.2684
     21  C20       33.1340   68.2430   10.6190 C.ar  501  Q2Y501      0.0551
     22  C22       33.0300   69.5470   11.1040 C.ar  501  Q2Y501      0.0059
     23  C11       34.1750   70.2920   11.3880 C.ar  501  Q2Y501      0.0167
     24  C26       34.3970   67.6820   10.4420 C.ar  501  Q2Y501      0.0059
     25  C25       35.5430   68.4280   10.7340 C.ar  501  Q2Y501      0.0167
     26  C24       35.4440   69.7400   11.2090 C.ar  501  Q2Y501      0.0728
     27  N2        36.5330   70.5090   11.5130 N.pl3 501  Q2Y501     -0.1856
     28  C13       37.8500   70.1470   11.4290 C.2   501  Q2Y501      0.2048
     29  C29       38.8340   71.1390   11.4910 C.3   501  Q2Y501      0.2016
     30  N4        40.1360   70.8050   11.4300 N.2   501  Q2Y501     -0.2587
     31  C31       40.5070   69.5160   11.3220 C.ar  501  Q2Y501      0.1060
     32  C30       41.8600   69.1690   11.2620 C.ar  501  Q2Y501      0.0213
     33  C8        39.5320   68.5180   11.2650 C.ar  501  Q2Y501      0.1499
     34  N1        38.2320   68.8570   11.3270 N.2   501  Q2Y501     -0.3861
     35  C16       39.9090   67.1760   11.1470 C.ar  501  Q2Y501      0.0336
     36  C28       41.2610   66.8320   11.0860 C.ar  501  Q2Y501      0.0027
     37  C15       42.2380   67.8280   11.1460 C.ar  501  Q2Y501      0.0017
@<TRIPOS>BOND
     1     3     2   ar
     2     1     2   ar
     3     2     4    1
     4     4     5    1
     5     7     6    2
     6     5     6    1
     7     5     8    1
     8     8     9   am
     9    10     9    2
    10     9    11    1
    11    11    12    1
    12    16    12   ar
    13    16    15   ar
    14    12    13   ar
    15    13    14   ar
    16    15    14   ar
    17    15    17    1
    18    17    18    1
    19    18    19   am
    20    19    21    1
    21    19    20    2
    22    24    21   ar
    23    24    25   ar
    24    21    22   ar
    25    25    26   ar
    26    36    37   ar
    27    36    35   ar
    28    22    23   ar
    29    37    32   ar
    30    35    33   ar
    31    26    23   ar
    32    26    27    1
    33    32    31   ar
    34    33    31   ar
    35    33    34    2
    36    31    30    2
    37    34    28    2
    38    28    29    1
    39    28    27    1
    40    30    29    1
