@<TRIPOS>MOLECULE
1rwn_4QB_A_1.pdb
 37 39 0 0 0
SMALL
GASTEIGER

@<TRIPOS>ATOM
      1  O37       32.8270   62.1540    2.3980 O.co2 501  4QB501     -0.2456
      2  C6        34.0450   61.9000    2.5290 C.2   501  4QB501      0.3671
      3  O35       34.9360   62.5840    1.9820 O.co2 501  4QB501     -0.2456
      4  C7        34.4720   60.7220    3.3750 C.3   501  4QB501      0.1436
      5  C28       33.3390   60.2670    4.2930 C.3   501  4QB501      0.1708
      6  C18       33.4550   58.7800    4.5280 C.2   501  4QB501      0.2293
      7  O33       33.0260   58.0040    3.6880 O.2   501  4QB501     -0.2864
      8  N5        33.3650   61.0310    5.5270 N.am  501  4QB501     -0.1986
      9  C16       32.2850   61.2690    6.2760 C.2   501  4QB501      0.2412
     10  O34       31.1480   60.9680    5.9410 O.2   501  4QB501     -0.2733
     11  C10       32.5620   61.9360    7.5970 C.3   501  4QB501      0.0782
     12  C9        31.9290   61.1520    8.7460 C.3   501  4QB501      0.0091
     13  C31       32.9500   60.2320    9.3730 C.3   501  4QB501      0.0005
     14  C11       32.1160   63.4060    7.5700 C.3   501  4QB501      0.0092
     15  C12       30.6590   63.6500    7.9580 C.3   501  4QB501      0.0023
     16  C13       30.3250   65.1390    7.9500 C.3   501  4QB501      0.0235
     17  C14       30.3710   65.7450    9.3490 C.3   501  4QB501      0.1155
     18  N4        31.3790   66.7860    9.4690 N.am  501  4QB501     -0.2017
     19  C19       31.8930   67.1690   10.6410 C.2   501  4QB501      0.2648
     20  O36       31.5320   66.6690   11.6970 O.2   501  4QB501     -0.2684
     21  C17       32.9370   68.2570   10.6650 C.ar  501  4QB501      0.0551
     22  C20       33.0130   69.1240   11.7550 C.ar  501  4QB501      0.0059
     23  C21       33.9710   70.1380   11.7840 C.ar  501  4QB501      0.0167
     24  C22       34.8550   70.3120   10.7180 C.ar  501  4QB501      0.0728
     25  C23       34.7730   69.4460    9.6220 C.ar  501  4QB501      0.0167
     26  C24       33.8190   68.4260    9.5960 C.ar  501  4QB501      0.0059
     27  N3        35.7600   71.3320   10.8090 N.pl3 501  4QB501     -0.1856
     28  C26       36.7040   71.7270    9.9040 C.2   501  4QB501      0.2048
     29  N1        36.6630   71.3650    8.6090 N.2   501  4QB501     -0.3861
     30  C27       37.7180   72.5850   10.3320 C.3   501  4QB501      0.2016
     31  N2        38.6520   73.0160    9.4710 N.2   501  4QB501     -0.2587
     32  C29       38.6070   72.6470    8.1820 C.ar  501  4QB501      0.1060
     33  C25       39.5730   73.1060    7.2850 C.ar  501  4QB501      0.0213
     34  C8        39.5230   72.7190    5.9450 C.ar  501  4QB501      0.0017
     35  C30       37.5940   71.7990    7.7430 C.ar  501  4QB501      0.1499
     36  C15       37.5400   71.4170    6.4020 C.ar  501  4QB501      0.0336
     37  C32       38.5040   71.8740    5.5030 C.ar  501  4QB501      0.0027
@<TRIPOS>BOND
     1     3     2   ar
     2     1     2   ar
     3     2     4    1
     4     4     5    1
     5     7     6    2
     6     5     6    1
     7     5     8    1
     8    37    34   ar
     9    37    36   ar
    10     8     9   am
    11    10     9    2
    12    34    33   ar
    13     9    11    1
    14    36    35   ar
    15    33    32   ar
    16    14    11    1
    17    14    15    1
    18    11    12    1
    19    35    32   ar
    20    35    29    2
    21    16    15    1
    22    16    17    1
    23    32    31    2
    24    29    28    2
    25    12    13    1
    26    17    18    1
    27    18    19   am
    28    31    30    1
    29    26    25   ar
    30    26    21   ar
    31    25    24   ar
    32    28    30    1
    33    28    27    1
    34    19    21    1
    35    19    20    2
    36    21    22   ar
    37    24    27    1
    38    24    23   ar
    39    22    23   ar
