@<TRIPOS>MOLECULE
1rwo_BTH_A_1.pdb
 41 44 0 0 0
SMALL
GASTEIGER

@<TRIPOS>ATOM
      1  O40       31.0350   61.1130    5.3770 O.2   501  BTH501     -0.2730
      2  C25       32.0730   61.4060    5.9450 C.2   501  BTH501      0.2459
      3  N4        33.2760   61.1540    5.4140 N.am  501  BTH501     -0.1988
      4  C33       33.4020   60.3870    4.1760 C.3   501  BTH501      0.1635
      5  C34       33.5120   58.8950    4.3780 C.2   501  BTH501      0.1713
      6  O39       33.5650   58.1680    3.3980 O.2   501  BTH501     -0.2942
      7  C31       33.5620   58.3070    5.7600 C.3   501  BTH501      0.0741
      8  C35       34.5780   60.8800    3.3290 C.3   501  BTH501      0.1432
      9  C15       34.2100   62.1260    2.5490 C.2   501  BTH501      0.3671
     10  O37       33.0100   62.4670    2.4600 O.co2 501  BTH501     -0.2456
     11  O36       35.1270   62.7830    2.0120 O.co2 501  BTH501     -0.2456
     12  C24       31.9730   62.0580    7.3030 C.3   501  BTH501      0.1064
     13  C26       32.5110   61.1870    8.4120 C.ar  501  BTH501      0.0157
     14  S41       33.9150   61.5150    9.3440 S.2   501  BTH501     -0.0903
     15  C27       31.8710   60.0000    8.7940 C.ar  501  BTH501      0.0032
     16  C28       32.4540   59.4940    9.9870 C.ar  501  BTH501      0.0072
     17  C14       33.4800   60.2570   10.3820 C.ar  501  BTH501      0.0351
     18  C23       32.5810   63.4610    7.3100 C.3   501  BTH501      0.0141
     19  C22       31.5480   64.4770    7.7920 C.3   501  BTH501      0.0027
     20  C9        31.7960   64.8600    9.2460 C.3   501  BTH501      0.0235
     21  C10       31.1430   66.1850    9.6270 C.3   501  BTH501      0.1155
     22  N3        32.1200   67.2540    9.7510 N.am  501  BTH501     -0.2017
     23  C17       32.6440   67.6740   10.9080 C.2   501  BTH501      0.2648
     24  O38       32.3040   67.2170   11.9890 O.2   501  BTH501     -0.2684
     25  C30       33.6800   68.7650   10.8630 C.ar  501  BTH501      0.0551
     26  C32       34.5320   68.8710    9.7640 C.ar  501  BTH501      0.0059
     27  C19       35.4920   69.8810    9.7160 C.ar  501  BTH501      0.0167
     28  C13       33.7900   69.6820   11.9120 C.ar  501  BTH501      0.0059
     29  C12       34.7500   70.6940   11.8600 C.ar  501  BTH501      0.0167
     30  C11       35.6060   70.8030   10.7610 C.ar  501  BTH501      0.0728
     31  N2        36.5340   71.8050   10.7590 N.pl3 501  BTH501     -0.1856
     32  C20       37.4340   72.0950    9.7760 C.2   501  BTH501      0.2048
     33  N1        37.2430   71.6900    8.5080 N.2   501  BTH501     -0.3861
     34  C16       38.5460   72.8800   10.0750 C.3   501  BTH501      0.2016
     35  N5        39.4260   73.1950    9.1110 N.2   501  BTH501     -0.2587
     36  C29       39.2280   72.7870    7.8470 C.ar  501  BTH501      0.1060
     37  C21       38.1150   72.0090    7.5410 C.ar  501  BTH501      0.1499
     38  C7        40.1340   73.1320    6.8440 C.ar  501  BTH501      0.0213
     39  C8        39.9200   72.7010    5.5340 C.ar  501  BTH501      0.0017
     40  C18       38.8000   71.9290    5.2270 C.ar  501  BTH501      0.0027
     41  C6        37.8960   71.5820    6.2310 C.ar  501  BTH501      0.0336
@<TRIPOS>BOND
     1    11     9   ar
     2    10     9   ar
     3     9     8    1
     4     8     4    1
     5     6     5    2
     6     4     5    1
     7     4     3    1
     8     5     7    1
     9    40    39   ar
    10    40    41   ar
    11     1     2    2
    12     3     2   am
    13    39    38   ar
    14     2    12    1
    15    41    37   ar
    16    38    36   ar
    17    12    18    1
    18    12    13    1
    19    18    19    1
    20    37    36   ar
    21    37    33    2
    22    19    20    1
    23    36    35    2
    24    13    15   ar
    25    13    14   ar
    26    33    32    2
    27    15    16   ar
    28    35    34    1
    29    20    21    1
    30    14    17   ar
    31    21    22    1
    32    27    26   ar
    33    27    30   ar
    34    22    23   am
    35    26    25   ar
    36    32    34    1
    37    32    31    1
    38    16    17   ar
    39    31    30    1
    40    30    29   ar
    41    25    23    1
    42    25    28   ar
    43    23    24    2
    44    29    28   ar
