@<TRIPOS>MOLECULE
1rwp_HQC_A_1.pdb
 34 36 0 0 0
SMALL
GASTEIGER

@<TRIPOS>ATOM
      1  O33       33.3500   58.1680    3.6950 O.2   501  HQC501     -0.2864
      2  C20       33.7530   58.8880    4.5930 C.2   501  HQC501      0.2293
      3  C17       33.5830   60.3820    4.4730 C.3   501  HQC501      0.1708
      4  C9        34.7350   60.9710    3.6570 C.3   501  HQC501      0.1436
      5  C11       34.2510   62.0040    2.6580 C.2   501  HQC501      0.3671
      6  O32       33.0390   62.0470    2.3480 O.co2 501  HQC501     -0.2456
      7  O29       35.0870   62.7930    2.1660 O.co2 501  HQC501     -0.2456
      8  N1        33.4760   61.0230    5.7750 N.am  501  HQC501     -0.1983
      9  C19       32.3200   61.0910    6.4440 C.2   501  HQC501      0.2459
     10  O30       31.2520   60.7360    5.9650 O.2   501  HQC501     -0.2730
     11  C10       32.3830   61.6440    7.8450 C.3   501  HQC501      0.1064
     12  C14       32.2570   60.5970    8.9210 C.ar  501  HQC501      0.0157
     13  S35       31.5270   59.0620    8.7250 S.2   501  HQC501     -0.0903
     14  C7        31.8510   58.6520   10.3350 C.ar  501  HQC501      0.0351
     15  C15       32.4980   59.6220   11.0010 C.ar  501  HQC501      0.0072
     16  C5        32.7350   60.7850   10.2210 C.ar  501  HQC501      0.0032
     17  C12       31.2810   62.6800    8.0420 C.3   501  HQC501      0.0141
     18  C13       31.8050   64.0880    7.7930 C.3   501  HQC501      0.0027
     19  C6        30.7260   64.9690    7.1740 C.3   501  HQC501      0.0235
     20  C16       29.8080   65.5820    8.2270 C.3   501  HQC501      0.1155
     21  N3        30.5290   66.3760    9.2100 N.am  501  HQC501     -0.1998
     22  C8        30.2960   67.6740    9.3930 C.2   501  HQC501      0.2906
     23  O31       29.3090   68.2330    8.9330 O.2   501  HQC501     -0.2659
     24  C18       31.2850   68.4750   10.1900 C.2   501  HQC501      0.1681
     25  N2        32.5820   68.4900    9.8290 N.2   501  HQC501     -0.3980
     26  C24       30.8520   69.1980   11.3010 C.3   501  HQC501      0.0899
     27  C23       31.7770   69.9390   12.0310 C.2   501  HQC501     -0.0159
     28  C22       33.1110   69.9410   11.6300 C.ar  501  HQC501      0.0289
     29  C4        34.0520   70.6840   12.3420 C.ar  501  HQC501      0.0024
     30  C21       33.4980   69.2010   10.5130 C.ar  501  HQC501      0.1695
     31  C25       34.8310   69.2070   10.1070 C.ar  501  HQC501      0.2249
     32  O28       35.2170   68.5070    9.0440 O.3   501  HQC501     -0.2838
     33  C26       35.7760   69.9480   10.8180 C.ar  501  HQC501      0.0447
     34  C27       35.3880   70.6880   11.9350 C.ar  501  HQC501      0.0034
@<TRIPOS>BOND
     1     7     5   ar
     2     6     5   ar
     3     5     4    1
     4     4     3    1
     5     1     2    2
     6     3     2    1
     7     3     8    1
     8     8     9   am
     9    10     9    2
    10     9    11    1
    11    19    18    1
    12    19    20    1
    13    18    17    1
    14    11    17    1
    15    11    12    1
    16    20    21    1
    17    13    12   ar
    18    13    14   ar
    19    12    16   ar
    20    23    22    2
    21    32    31    1
    22    21    22   am
    23    22    24    1
    24    25    24    2
    25    25    30    2
    26    31    30   ar
    27    31    33   ar
    28    24    26    1
    29    16    15   ar
    30    14    15   ar
    31    30    28   ar
    32    33    34   ar
    33    26    27    1
    34    28    27    2
    35    28    29   ar
    36    34    29   ar
