@<TRIPOS>MOLECULE
1rwq_5AP_A_1.pdb
 27 29 0 0 0
SMALL
GASTEIGER

@<TRIPOS>ATOM
      1 CL2        49.7120   53.4030   37.3160 Cl    900  5AP900     -0.0821
      2  C17       49.0030   51.8890   37.7150 C.ar  900  5AP900      0.0607
      3  C16       48.9580   51.4980   38.9990 C.ar  900  5AP900      0.0229
      4  C14       48.4020   50.2830   39.1680 C.ar  900  5AP900      0.0585
      5 CL1        48.2710   49.6890   40.7980 Cl    900  5AP900     -0.0822
      6  C13       47.8940   49.5360   38.1530 C.ar  900  5AP900      0.0115
      7  C12       47.9610   49.9740   36.8460 C.ar  900  5AP900      0.0040
      8  C11       48.5410   51.1900   36.6580 C.ar  900  5AP900      0.0378
      9  C10       48.6760   51.7490   35.3720 C.2   900  5AP900      0.1357
     10  C19       47.7750   52.8440   34.9850 C.3   900  5AP900      0.1669
     11  C20       46.6030   53.1770   35.7970 C.2   900  5AP900      0.1111
     12  N21       46.7590   53.9680   36.8430 N.2   900  5AP900     -0.1505
     13  C22       48.1050   53.5440   33.7510 C.2   900  5AP900      0.2208
     14  N23       47.3510   54.5960   33.3240 N.pl3 900  5AP900     -0.0962
     15  N9        49.7210   51.4440   34.6400 N.2   900  5AP900     -0.3434
     16  C2        49.9730   52.1070   33.5250 C.1   900  5AP900      0.1388
     17  N1        49.1880   53.1040   33.0970 N.2   900  5AP900     -0.3252
     18  C3        51.1550   51.6750   32.7300 C.ar  900  5AP900      0.0917
     19  C4        51.9650   50.6280   33.0980 C.ar  900  5AP900      0.0491
     20  C5        53.0750   50.2850   32.2980 C.ar  900  5AP900      0.1425
     21  O25       53.8770   49.2440   32.6210 O.3   900  5AP900     -0.4713
     22  C28       53.4690   48.3310   33.6290 C.3   900  5AP900      0.2525
     23  C6        53.3930   50.9660   31.1500 C.ar  900  5AP900      0.0738
     24  C7        52.5550   52.0000   30.7970 C.ar  900  5AP900      0.1425
     25  C8        51.4710   52.3630   31.5880 C.ar  900  5AP900      0.0491
     26  O26       52.8140   52.7630   29.7000 O.3   900  5AP900     -0.4713
     27  C29       53.6810   53.8530   29.9870 C.3   900  5AP900      0.2525
@<TRIPOS>BOND
     1    26    27    1
     2    26    24    1
     3    24    23   ar
     4    24    25   ar
     5    23    20   ar
     6    25    18   ar
     7    20    21    1
     8    20    19   ar
     9    21    22    1
    10    18    19   ar
    11    18    16    1
    12    17    16    2
    13    17    13    2
    14    14    13    1
    15    16    15    2
    16    13    10    1
    17    15     9    2
    18    10     9    1
    19    10    11    1
    20     9     8    1
    21    11    12    2
    22     8     7   ar
    23     8     2   ar
    24     7     6   ar
    25     1     2    1
    26     2     3   ar
    27     6     4   ar
    28     3     4   ar
    29     4     5    1
