@<TRIPOS>MOLECULE
1rwv_5PH_A_1.pdb
 36 37 0 0 0
SMALL
GASTEIGER

@<TRIPOS>ATOM
      1  O32       31.1600   61.2090    5.4410 O.2   501  5PH501     -0.2730
      2  C16       32.3170   61.2340    5.8420 C.2   501  5PH501      0.2453
      3  N13       33.3410   60.6950    5.1800 N.am  501  5PH501     -0.1988
      4  C9        33.2040   60.0120    3.8990 C.3   501  5PH501      0.1635
      5  C25       34.3530   60.5580    3.0540 C.3   501  5PH501      0.1432
      6  C26       33.9700   61.8720    2.4120 C.2   501  5PH501      0.3671
      7  O30       34.8840   62.6270    2.0170 O.co2 501  5PH501     -0.2456
      8  O28       32.7600   62.1630    2.2930 O.co2 501  5PH501     -0.2456
      9  C35       33.3270   58.5170    4.0220 C.2   501  5PH501      0.1713
     10  C36       33.1930   57.8540    5.3630 C.3   501  5PH501      0.0741
     11  O5        33.5370   57.8510    3.0240 O.2   501  5PH501     -0.2942
     12  C19       32.7060   61.8770    7.1540 C.3   501  5PH501      0.1004
     13  C20       32.4490   60.9710    8.3160 C.ar  501  5PH501     -0.0138
     14  C22       31.3960   60.0490    8.3190 C.ar  501  5PH501     -0.0038
     15  C24       31.1940   59.2120    9.4170 C.ar  501  5PH501     -0.0003
     16  C34       32.0490   59.2850   10.5170 C.ar  501  5PH501     -0.0000
     17  C33       33.1060   60.1950   10.5190 C.ar  501  5PH501     -0.0003
     18  C31       33.3050   61.0320    9.4200 C.ar  501  5PH501     -0.0038
     19  C4        32.1460   63.3010    7.3110 C.3   501  5PH501      0.0136
     20  C1        30.6800   63.4180    7.7160 C.3   501  5PH501      0.0024
     21  C12       30.2440   64.8800    7.6700 C.3   501  5PH501      0.0208
     22  C8        30.1880   65.4830    9.0690 C.3   501  5PH501      0.1155
     23  N2        30.6950   66.8440    9.1250 N.3   501  5PH501     -0.0778
     24  S7        30.0480   67.9330   10.1120 S.O2  501  5PH501      0.0768
     25  O3        31.0070   68.9700   10.3790 O.2   501  5PH501     -0.1516
     26  O6        28.8930   68.5150    9.4880 O.2   501  5PH501     -0.1516
     27  C11       29.6310   67.2330   11.4920 C.ar  501  5PH501      0.1240
     28  C21       30.6170   66.8780   12.4150 C.ar  501  5PH501      0.0298
     29  C23       30.2730   66.2650   13.6210 C.ar  501  5PH501      0.1199
     30  C29       31.3600   65.8970   14.5940 C.2   501  5PH501      0.3909
     31  O17       32.1890   66.7670   14.9390 O.co2 501  5PH501     -0.2404
     32  O14       31.4180   64.7270   15.0330 O.co2 501  5PH501     -0.2404
     33  C15       28.9330   66.0040   13.9020 C.ar  501  5PH501      0.2021
     34  O10       28.5780   65.4200   15.0460 O.3   501  5PH501     -0.2863
     35  C18       27.9430   66.3540   12.9820 C.ar  501  5PH501      0.0436
     36  C27       28.2900   66.9680   11.7800 C.ar  501  5PH501      0.0232
@<TRIPOS>BOND
     1     7     6   ar
     2     8     6   ar
     3     6     5    1
     4    11     9    2
     5     5     4    1
     6     4     9    1
     7     4     3    1
     8     9    10    1
     9     3     2   am
    10     1     2    2
    11     2    12    1
    12    12    19    1
    13    12    13    1
    14    19    20    1
    15    21    20    1
    16    21    22    1
    17    13    14   ar
    18    13    18   ar
    19    14    15   ar
    20    22    23    1
    21    23    24    1
    22    15    16   ar
    23    18    17   ar
    24    26    24    2
    25    24    25    2
    26    24    27    1
    27    16    17   ar
    28    27    36   ar
    29    27    28   ar
    30    36    35   ar
    31    28    29   ar
    32    35    33   ar
    33    29    33   ar
    34    29    30    1
    35    33    34    1
    36    30    31   ar
    37    30    32   ar
