@<TRIPOS>MOLECULE
1rww_OQB_A_1.pdb
 37 40 0 0 0
SMALL
GASTEIGER

@<TRIPOS>ATOM
      1  O37       32.7740   61.5760    2.0540 O.co2 501  OQB501     -0.2456
      2  C9        33.9600   61.3840    2.3970 C.2   501  OQB501      0.3671
      3  O33       34.8810   62.1560    2.0490 O.co2 501  OQB501     -0.2456
      4  C10       34.3050   60.1830    3.2540 C.3   501  OQB501      0.1436
      5  C27       33.1080   59.7180    4.0860 C.3   501  OQB501      0.1711
      6  C28       33.1900   58.2320    4.3470 C.2   501  OQB501      0.2293
      7  O35       33.0140   57.4310    3.4430 O.2   501  OQB501     -0.2864
      8  N3        33.0030   60.4690    5.3280 N.am  501  OQB501     -0.1948
      9  C16       31.8130   60.8100    5.8320 C.2   501  OQB501      0.2667
     10  O34       30.7920   60.2330    5.4880 O.2   501  OQB501     -0.2683
     11  C21       31.7030   61.9290    6.8350 C.ar  501  OQB501      0.0742
     12  C12       32.6670   62.9380    6.9110 C.ar  501  OQB501      0.1030
     13  N1        32.5570   63.9350    7.8080 N.ar  501  OQB501     -0.2462
     14  C23       30.6170   61.9730    7.7040 C.ar  501  OQB501      0.0074
     15  C24       30.5290   63.0150    8.6220 C.ar  501  OQB501      0.0167
     16  C14       31.5170   63.9980    8.6600 C.ar  501  OQB501      0.0809
     17  C19       31.3840   65.1170    9.6750 C.3   501  OQB501      0.1608
     18  N6        32.3750   66.1690    9.5010 N.am  501  OQB501     -0.1951
     19  C15       32.9000   66.8030   10.5530 C.2   501  OQB501      0.2651
     20  O36       32.7330   66.3840   11.6880 O.2   501  OQB501     -0.2684
     21  C20       33.7220   68.0510   10.3720 C.ar  501  OQB501      0.0551
     22  C22       33.7760   68.9960   11.3970 C.ar  501  OQB501      0.0059
     23  C26       34.4310   68.2810    9.1960 C.ar  501  OQB501      0.0059
     24  C25       35.1910   69.4420    9.0420 C.ar  501  OQB501      0.0167
     25  C11       35.2510   70.3900   10.0680 C.ar  501  OQB501      0.0728
     26  C8        34.5400   70.1530   11.2470 C.ar  501  OQB501      0.0167
     27  N2        35.9740   71.5450    9.9820 N.pl3 501  OQB501     -0.1856
     28  C13       36.7340   71.9890    8.9400 C.2   501  OQB501      0.2048
     29  C29       37.3870   73.2160    9.0840 C.3   501  OQB501      0.2016
     30  N4        38.1420   73.6990    8.0840 N.2   501  OQB501     -0.2587
     31  N5        36.8670   71.3040    7.7910 N.2   501  OQB501     -0.3861
     32  C32       37.5890   71.8040    6.7740 C.ar  501  OQB501      0.1499
     33  C31       38.2500   73.0220    6.9270 C.ar  501  OQB501      0.1060
     34  C17       37.6860   71.1040    5.5700 C.ar  501  OQB501      0.0336
     35  C30       38.4370   71.6290    4.5180 C.ar  501  OQB501      0.0027
     36  C18       39.0930   72.8530    4.6690 C.ar  501  OQB501      0.0017
     37  C7        38.9960   73.5530    5.8710 C.ar  501  OQB501      0.0213
@<TRIPOS>BOND
     1     3     2   ar
     2     1     2   ar
     3     2     4    1
     4     4     5    1
     5     7     6    2
     6     5     6    1
     7     5     8    1
     8    35    36   ar
     9    35    34   ar
    10    36    37   ar
    11     8     9   am
    12    10     9    2
    13    34    32   ar
    14     9    11    1
    15    37    33   ar
    16    32    33   ar
    17    32    31    2
    18    11    12   ar
    19    11    14   ar
    20    12    13   ar
    21    33    30    2
    22    14    15   ar
    23    31    28    2
    24    13    16   ar
    25    30    29    1
    26    15    16   ar
    27    16    17    1
    28    28    29    1
    29    28    27    1
    30    24    23   ar
    31    24    25   ar
    32    23    21   ar
    33    18    17    1
    34    18    19   am
    35    27    25    1
    36    25    26   ar
    37    21    19    1
    38    21    22   ar
    39    19    20    2
    40    26    22   ar
