@<TRIPOS>MOLECULE
1rwx_YBH_A_1.pdb
 40 43 0 0 0
SMALL
GASTEIGER

@<TRIPOS>ATOM
      1  O39       33.1450   58.1130    3.4910 O.2   501  YBH501     -0.2864
      2  C31       33.3880   58.8620    4.4260 C.2   501  YBH501      0.2293
      3  C17       33.2710   60.3580    4.2450 C.3   501  YBH501      0.1708
      4  C12       34.4370   60.8530    3.3890 C.3   501  YBH501      0.1436
      5  C6        34.0240   61.9940    2.4840 C.2   501  YBH501      0.3671
      6  O38       32.8100   62.2510    2.3240 O.co2 501  YBH501     -0.2456
      7  O36       34.9290   62.6430    1.9180 O.co2 501  YBH501     -0.2456
      8  N4        33.2220   61.0760    5.5120 N.am  501  YBH501     -0.1983
      9  C18       32.0780   61.3780    6.1360 C.2   501  YBH501      0.2459
     10  O35       30.9860   60.9800    5.7580 O.2   501  YBH501     -0.2730
     11  C8        32.1900   62.2490    7.3620 C.3   501  YBH501      0.1064
     12  C28       31.9320   61.4690    8.6260 C.ar  501  YBH501      0.0157
     13  S41       33.1760   60.8570    9.6230 S.2   501  YBH501     -0.0903
     14  C9        30.6610   61.1730    9.1300 C.ar  501  YBH501      0.0032
     15  C15       30.7840   60.5850   10.4190 C.ar  501  YBH501      0.0072
     16  C7        32.0550   60.3840   10.7990 C.ar  501  YBH501      0.0351
     17  C11       31.2390   63.4460    7.2670 C.3   501  YBH501      0.0141
     18  C25       31.6280   64.5610    8.2350 C.3   501  YBH501      0.0027
     19  C13       30.5160   65.5960    8.3780 C.3   501  YBH501      0.0235
     20  C14       30.6150   66.3310    9.7110 C.3   501  YBH501      0.1155
     21  N3        31.4670   67.5050    9.6370 N.am  501  YBH501     -0.2017
     22  C33       31.9450   68.1230   10.7210 C.2   501  YBH501      0.2648
     23  O37       31.3700   68.0730   11.7990 O.2   501  YBH501     -0.2684
     24  C16       33.2230   68.9100   10.6140 C.ar  501  YBH501      0.0552
     25  C20       33.5070   69.9120   11.5460 C.ar  501  YBH501      0.0077
     26  C21       34.6890   70.6460   11.4520 C.ar  501  YBH501      0.0377
     27  C22       35.5980   70.3780   10.4270 C.ar  501  YBH501      0.1479
     28  C23       35.3110   69.3840    9.4890 C.ar  501  YBH501      0.0377
     29  C24       34.1300   68.6480    9.5850 C.ar  501  YBH501      0.0077
     30  O34       36.7540   71.1150   10.3380 O.3   501  YBH501     -0.4291
     31  C26       38.0160   70.6220   10.5750 C.2   501  YBH501      0.2825
     32  C27       39.0170   71.5060   10.9760 C.3   501  YBH501      0.2242
     33  N1        40.2590   71.0560   11.2110 N.2   501  YBH501     -0.2566
     34  N2        38.3090   69.3200   10.4170 N.2   501  YBH501     -0.3679
     35  C30       39.5550   68.8710   10.6410 C.ar  501  YBH501      0.1517
     36  C29       40.5490   69.7570   11.0500 C.ar  501  YBH501      0.1062
     37  C10       41.8470   69.2990   11.2800 C.ar  501  YBH501      0.0213
     38  C32       42.1470   67.9480   11.1050 C.ar  501  YBH501      0.0017
     39  C19       41.1510   67.0620   10.6970 C.ar  501  YBH501      0.0027
     40  C5        39.8540   67.5220   10.4660 C.ar  501  YBH501      0.0337
@<TRIPOS>BOND
     1     7     5   ar
     2     6     5   ar
     3     5     4    1
     4     4     3    1
     5     1     2    2
     6     3     2    1
     7     3     8    1
     8     8     9   am
     9    10     9    2
    10     9    11    1
    11    17    11    1
    12    17    18    1
    13    11    12    1
    14    18    19    1
    15    19    20    1
    16    12    14   ar
    17    12    13   ar
    18    14    15   ar
    19    28    29   ar
    20    28    27   ar
    21    29    24   ar
    22    13    16   ar
    23    21    20    1
    24    21    22   am
    25    30    27    1
    26    30    31    1
    27    34    31    2
    28    34    35    2
    29    15    16   ar
    30    27    26   ar
    31    40    35   ar
    32    40    39   ar
    33    31    32    1
    34    24    22    1
    35    24    25   ar
    36    35    36   ar
    37    39    38   ar
    38    22    23    2
    39    32    33    1
    40    36    33    2
    41    36    37   ar
    42    38    37   ar
    43    26    25   ar
