@<TRIPOS>MOLECULE
1rx1_NAP_A_1.pdb
 48 52 0 0 0
SMALL
GASTEIGER

@<TRIPOS>ATOM
      1  PA        29.7500   53.7990   15.0380 P.3   164  NAP164      0.2189
      2  O1A       28.6490   53.2720   15.8730 O.3   164  NAP164     -0.4371
      3  O2A       30.2690   53.2130   13.7820 O.2   164  NAP164     -0.5170
      4  O5B       29.4160   55.3020   14.6320 O.3   164  NAP164     -0.3112
      5  C5B       28.6340   56.1980   15.4640 C.3   164  NAP164      0.1813
      6  C4B       28.3480   57.4920   14.7290 C.3   164  NAP164      0.1820
      7  O4B       27.2040   57.2490   13.8860 O.3   164  NAP164     -0.3136
      8  C3B       27.8770   58.6820   15.5530 C.3   164  NAP164      0.2157
      9  O3B       28.9800   59.5200   15.7880 O.3   164  NAP164     -0.2175
     10  C2B       26.9600   59.4970   14.6470 C.3   164  NAP164      0.2314
     11  O2B       27.7540   60.1790   13.6970 O.3   164  NAP164     -0.2630
     12  C1B       26.3620   58.3770   13.8030 C.3   164  NAP164      0.3158
     13  N9A       25.1510   58.0700   14.5450 N.pl3 164  NAP164     -0.1439
     14  C8A       25.0190   57.1280   15.4970 C.3   164  NAP164      0.3377
     15  N7A       23.7740   57.1170   15.9650 N.2   164  NAP164     -0.2095
     16  C5A       23.0960   58.1220   15.2750 C.2   164  NAP164      0.2526
     17  C6A       21.7490   58.6100   15.2940 C.2   164  NAP164      0.4393
     18  N6A       20.7580   58.1670   16.1130 N.pl3 164  NAP164      0.2180
     19  N1A       21.4550   59.6110   14.4490 N.2   164  NAP164      0.0021
     20  C2A       22.3950   60.0780   13.6650 C.3   164  NAP164      0.5254
     21  N3A       23.6640   59.7060   13.5590 N.2   164  NAP164     -0.0055
     22  C4A       23.9520   58.7320   14.4030 C.2   164  NAP164      0.3518
     23  O3        31.0000   54.1490   15.9970 O.3   164  NAP164     -0.2703
     24  PN        31.6700   53.5520   17.3610 P.3   164  NAP164      0.2189
     25  O1N       30.5350   53.3740   18.3120 O.3   164  NAP164     -0.4371
     26  O2N       32.9130   54.2870   17.7330 O.2   164  NAP164     -0.5170
     27  O5D       32.1620   52.1160   16.8830 O.3   164  NAP164     -0.3112
     28  C5D       33.4400   52.1050   16.0870 C.3   164  NAP164      0.1813
     29  C4D       34.2570   50.7740   16.3390 C.3   164  NAP164      0.1799
     30  O4D       33.3560   49.6390   16.0940 O.3   164  NAP164     -0.3327
     31  C3D       35.5640   50.3890   15.5520 C.3   164  NAP164      0.2158
     32  O3D       36.7200   50.1350   16.2540 O.3   164  NAP164     -0.2175
     33  C2D       35.2610   49.0850   14.7370 C.3   164  NAP164      0.2309
     34  O2D       36.4580   48.4250   14.5310 O.3   164  NAP164     -0.2158
     35  C1D       34.0940   48.5570   15.4210 C.3   164  NAP164      0.2263
     36  N1N       33.0660   47.5860   14.8050 N.pl3 164  NAP164     -0.2787
     37  C2N       33.1490   46.2190   15.0960 C.3   164  NAP164      0.1244
     38  C3N       32.3290   45.3010   14.6140 C.2   164  NAP164      0.0544
     39  C7N       32.6040   43.9280   15.0400 C.2   164  NAP164      0.2818
     40  O7N       31.9340   42.9760   14.5560 O.2   164  NAP164     -0.2670
     41  N7N       33.5750   43.6340   15.9120 N.am  164  NAP164     -0.0839
     42  C4N       31.1550   45.7020   13.6660 C.2   164  NAP164      0.0033
     43  C5N       31.2020   47.2180   13.4540 C.2   164  NAP164      0.0157
     44  C6N       32.0600   48.0130   13.9740 C.2   164  NAP164      0.0633
     45  P2B       27.9000   61.7680   13.7490 P.3   164  NAP164      0.5328
     46  O1X       28.3150   61.9690   12.2500 O.2   164  NAP164     -0.2224
     47  O2X       26.5540   62.1740   14.2750 O.3   164  NAP164     -0.1145
     48  O3X       29.1350   61.9780   14.5940 O.3   164  NAP164     -0.1145
@<TRIPOS>BOND
     1    46    45    2
     2    43    42    1
     3    43    44    2
     4    21    20    1
     5    21    22    2
     6    20    19    1
     7    42    38    2
     8    11    45    1
     9    11    10    1
    10    45    47    1
    11    45    48    1
    12     3     1    2
    13    12     7    1
    14    12    13    1
    15    12    10    1
    16     7     6    1
    17    44    36    1
    18    22    13    1
    19    22    16    1
    20    19    17    2
    21    34    33    1
    22    13    14    1
    23    40    39    2
    24    38    39    1
    25    38    37    1
    26     4     1    1
    27     4     5    1
    28    10     8    1
    29     6     5    1
    30     6     8    1
    31    33    35    1
    32    33    31    1
    33    36    37    1
    34    36    35    1
    35     1     2    1
    36     1    23    1
    37    39    41   am
    38    16    17    1
    39    16    15    2
    40    17    18    1
    41    35    30    1
    42    14    15    1
    43    31    32    1
    44    31    29    1
    45     8     9    1
    46    23    24    1
    47    28    29    1
    48    28    27    1
    49    30    29    1
    50    27    24    1
    51    24    26    2
    52    24    25    1
