@<TRIPOS>MOLECULE
1rx2_FOL_A_1.pdb
 32 34 0 0 0
SMALL
GASTEIGER

@<TRIPOS>ATOM
      1  N1        30.4070   41.1270   12.3340 N.2   161  FOL161     -0.2672
      2  C2        31.1830   39.9600   12.3470 C.1   161  FOL161      0.2609
      3  NA2       30.7470   38.7630   12.6560 N.pl3 161  FOL161     -0.0220
      4  N3        32.6050   40.0910   12.0450 N.2   161  FOL161     -0.2466
      5  C4        33.1680   41.2700   11.7460 C.1   161  FOL161      0.2569
      6  O4        34.3740   41.3370   11.5420 O.2   161  FOL161     -0.2052
      7  C4A       32.2640   42.4760   11.7020 C.2   161  FOL161      0.2988
      8  N5        32.7640   43.6610   11.2350 N.2   161  FOL161     -0.3839
      9  C6        31.8950   44.6510   11.1400 C.2   161  FOL161      0.1356
     10  C7        30.6080   44.3330   11.5720 C.3   161  FOL161      0.1931
     11  N8        30.1280   43.2530   12.0210 N.2   161  FOL161     -0.1992
     12  C8A       30.9790   42.3200   12.0330 C.1   161  FOL161      0.1401
     13  C9        32.3280   46.0020   10.6460 C.3   161  FOL161      0.1683
     14  N10       33.7050   45.9820   10.0490 N.pl3 161  FOL161     -0.2303
     15  C11       34.3060   44.2020    6.3230 C.ar  161  FOL161      0.0551
     16  C12       35.3210   44.8530    7.0400 C.ar  161  FOL161      0.0059
     17  C13       35.0830   45.4330    8.2850 C.ar  161  FOL161      0.0162
     18  C14       33.8130   45.4010    8.8510 C.ar  161  FOL161      0.0658
     19  C15       32.7880   44.7780    8.2450 C.ar  161  FOL161      0.0162
     20  C16       33.0540   44.1620    6.9470 C.ar  161  FOL161      0.0059
     21  C         34.5680   43.5760    5.0200 C.2   161  FOL161      0.2652
     22  O         35.6430   43.8060    4.4680 O.2   161  FOL161     -0.2684
     23  N         33.7430   42.6140    4.5300 N.am  161  FOL161     -0.1918
     24  CA        33.7240   41.9000    3.1700 C.3   161  FOL161      0.1986
     25  CB        34.0900   40.3590    3.3840 C.3   161  FOL161      0.0451
     26  CG        35.3380   39.6930    2.5750 C.3   161  FOL161      0.1164
     27  CD        35.0350   38.1790    2.2820 C.2   161  FOL161      0.3649
     28  OE1       33.8330   38.0540    1.9260 O.co2 161  FOL161     -0.2457
     29  OE2       35.8590   37.2270    2.3890 O.co2 161  FOL161     -0.2457
     30  CT        32.2820   41.8610    2.7580 C.2   161  FOL161      0.3842
     31  O1        31.4110   41.7070    3.5980 O.co2 161  FOL161     -0.2437
     32  O2        32.0160   41.9260    1.5540 O.co2 161  FOL161     -0.2437
@<TRIPOS>BOND
     1    32    30   ar
     2    28    27   ar
     3    27    29   ar
     4    27    26    1
     5    26    25    1
     6    30    24    1
     7    30    31   ar
     8    24    25    1
     9    24    23    1
    10    22    21    2
    11    23    21   am
    12    21    15    1
    13    15    20   ar
    14    15    16   ar
    15    20    19   ar
    16    16    17   ar
    17    19    18   ar
    18    17    18   ar
    19    18    14    1
    20    14    13    1
    21    13     9    1
    22     9     8    2
    23     9    10    1
    24     8     7    2
    25     6     5    2
    26    10    11    1
    27     7     5    1
    28     7    12    1
    29     5     4    2
    30    11    12    2
    31    12     1    2
    32     4     2    2
    33     1     2    2
    34     2     3    1
