@<TRIPOS>MOLECULE
1rx2_NAP_A_1.pdb
 48 52 0 0 0
SMALL
GASTEIGER

@<TRIPOS>ATOM
      1  PA        29.8260   53.8880   15.5160 P.3   164  NAP164      0.2189
      2  O1A       28.7330   53.3790   16.3800 O.3   164  NAP164     -0.4371
      3  O2A       30.3170   53.2330   14.2600 O.2   164  NAP164     -0.5170
      4  O5B       29.5610   55.3800   15.0160 O.3   164  NAP164     -0.3112
      5  C5B       29.0600   56.4080   15.9010 C.3   164  NAP164      0.1813
      6  C4B       28.4790   57.5720   15.1100 C.3   164  NAP164      0.1820
      7  O4B       27.3890   57.3710   14.1770 O.3   164  NAP164     -0.3136
      8  C3B       28.0400   58.8000   15.9090 C.3   164  NAP164      0.2157
      9  O3B       29.2400   59.4730   16.2360 O.3   164  NAP164     -0.2175
     10  C2B       27.1610   59.6070   14.9310 C.3   164  NAP164      0.2314
     11  O2B       27.9230   60.1480   13.8540 O.3   164  NAP164     -0.2630
     12  C1B       26.4490   58.4220   14.2730 C.3   164  NAP164      0.3158
     13  N9A       25.2190   58.0280   14.9600 N.pl3 164  NAP164     -0.1439
     14  C8A       24.9610   56.9990   15.8420 C.3   164  NAP164      0.3377
     15  N7A       23.6910   56.9850   16.2580 N.2   164  NAP164     -0.2095
     16  C5A       23.1070   58.1000   15.6020 C.2   164  NAP164      0.2526
     17  C6A       21.7880   58.6220   15.5880 C.2   164  NAP164      0.4393
     18  N6A       20.8070   58.0940   16.3030 N.pl3 164  NAP164      0.2180
     19  N1A       21.5450   59.7040   14.8260 N.2   164  NAP164      0.0021
     20  C2A       22.5790   60.1990   14.1210 C.3   164  NAP164      0.5254
     21  N3A       23.8780   59.8170   14.0430 N.2   164  NAP164     -0.0055
     22  C4A       24.0560   58.7410   14.8110 C.2   164  NAP164      0.3518
     23  O3        31.0130   54.2910   16.4960 O.3   164  NAP164     -0.2703
     24  PN        31.8100   53.4730   17.6600 P.3   164  NAP164      0.2189
     25  O1N       30.7930   53.2630   18.7370 O.3   164  NAP164     -0.4371
     26  O2N       33.0790   54.2310   17.9210 O.2   164  NAP164     -0.5170
     27  O5D       32.1710   52.0600   16.9940 O.3   164  NAP164     -0.3112
     28  C5D       33.2770   52.0990   15.9830 C.3   164  NAP164      0.1813
     29  C4D       34.2330   51.0560   16.6760 C.3   164  NAP164      0.1799
     30  O4D       33.5050   49.7900   16.6020 O.3   164  NAP164     -0.3327
     31  C3D       35.5090   50.5710   15.8990 C.3   164  NAP164      0.2158
     32  O3D       36.5830   50.1720   16.6540 O.3   164  NAP164     -0.2175
     33  C2D       35.0290   49.5090   14.8600 C.3   164  NAP164      0.2309
     34  O2D       36.2160   48.9080   14.4940 O.3   164  NAP164     -0.2158
     35  C1D       34.1360   48.7810   15.7340 C.3   164  NAP164      0.2263
     36  N1N       33.1470   47.7090   15.2150 N.pl3 164  NAP164     -0.2787
     37  C2N       33.2440   46.3320   15.4810 C.3   164  NAP164      0.1244
     38  C3N       32.3540   45.4750   14.9980 C.2   164  NAP164      0.0544
     39  C7N       32.5140   44.0470   15.3080 C.2   164  NAP164      0.2818
     40  O7N       31.6380   43.1980   14.9710 O.2   164  NAP164     -0.2670
     41  N7N       33.6200   43.5940   15.9060 N.am  164  NAP164     -0.0839
     42  C4N       31.1490   45.9470   14.1240 C.2   164  NAP164      0.0033
     43  C5N       31.1350   47.4630   13.9140 C.2   164  NAP164      0.0157
     44  C6N       32.0830   48.1370   14.4440 C.2   164  NAP164      0.0633
     45  P2B       28.3210   61.6940   13.7900 P.3   164  NAP164      0.5328
     46  O1X       28.8830   61.9880   12.3720 O.2   164  NAP164     -0.2224
     47  O2X       26.9500   62.1120   14.2400 O.3   164  NAP164     -0.1145
     48  O3X       29.4480   61.9270   14.7750 O.3   164  NAP164     -0.1145
@<TRIPOS>BOND
     1    46    45    2
     2    45    11    1
     3    45    47    1
     4    45    48    1
     5    11    10    1
     6    43    42    1
     7    43    44    2
     8    21    20    1
     9    21    22    2
    10    20    19    1
    11    42    38    2
    12     7    12    1
    13     7     6    1
    14     3     1    2
    15    12    10    1
    16    12    13    1
    17    44    36    1
    18    34    33    1
    19    22    13    1
    20    22    16    1
    21    19    17    2
    22    33    35    1
    23    33    31    1
    24    10     8    1
    25    13    14    1
    26    40    39    2
    27    38    39    1
    28    38    37    1
    29     4     1    1
    30     4     5    1
    31     6     5    1
    32     6     8    1
    33    36    37    1
    34    36    35    1
    35    39    41   am
    36     1     2    1
    37     1    23    1
    38    17    16    1
    39    17    18    1
    40    16    15    2
    41    35    30    1
    42    14    15    1
    43    31    32    1
    44    31    29    1
    45     8     9    1
    46    28    29    1
    47    28    27    1
    48    23    24    1
    49    30    29    1
    50    27    24    1
    51    24    26    2
    52    24    25    1
