@<TRIPOS>MOLECULE
1rx3_MTX_A_1.pdb
 33 35 0 0 0
SMALL
GASTEIGER

@<TRIPOS>ATOM
      1  N1        32.3990   40.5350   11.7190 N.2   161  MTX161     -0.2684
      2  C2        31.1770   40.2230   12.2120 C.1   161  MTX161      0.2519
      3  NA2       30.8200   39.0460   12.5460 N.pl3 161  MTX161     -0.0226
      4  N3        30.1770   41.2830   12.3980 N.2   161  MTX161     -0.3033
      5  C4        30.3860   42.5640   12.1150 C.2   161  MTX161      0.2728
      6  NA4       29.4850   43.4830   12.2950 N.pl3 161  MTX161     -0.0887
      7  C4A       31.6860   42.8850   11.5600 C.2   161  MTX161      0.2518
      8  N5        31.8410   44.1790   11.0990 N.2   161  MTX161     -0.3917
      9  C6        33.0380   44.4620   10.5080 C.2   161  MTX161      0.1330
     10  C7        33.9840   43.3890   10.4190 C.3   161  MTX161      0.1930
     11  N8        33.8290   42.1480   10.8630 N.2   161  MTX161     -0.1998
     12  C8A       32.6290   41.9090   11.4130 C.1   161  MTX161      0.1314
     13  C9        33.2430   45.8440   10.0310 C.3   161  MTX161      0.1481
     14  N10       34.5030   45.9470    9.2500 N.pl3 161  MTX161     -0.2999
     15  CM        35.2820   47.1680    9.4150 C.3   161  MTX161      0.1125
     16  C11       34.7010   44.2260    5.4590 C.ar  161  MTX161      0.0551
     17  C12       35.8120   44.9250    6.0070 C.ar  161  MTX161      0.0058
     18  C13       35.7240   45.4890    7.2670 C.ar  161  MTX161      0.0147
     19  C14       34.5180   45.3610    8.0120 C.ar  161  MTX161      0.0482
     20  C15       33.4500   44.7060    7.5470 C.ar  161  MTX161      0.0147
     21  C16       33.5640   44.1560    6.2560 C.ar  161  MTX161      0.0058
     22  C         34.6290   43.5450    4.1340 C.2   161  MTX161      0.2652
     23  O         35.4870   43.5640    3.2830 O.2   161  MTX161     -0.2684
     24  N         33.6690   42.6830    3.9230 N.am  161  MTX161     -0.1918
     25  CA        33.6370   41.7080    2.8100 C.3   161  MTX161      0.1986
     26  CT        32.2040   41.6410    2.4450 C.2   161  MTX161      0.3842
     27  O1        31.3150   41.5330    3.3180 O.co2 161  MTX161     -0.2437
     28  O2        31.9820   41.8010    1.2480 O.co2 161  MTX161     -0.2437
     29  CB        34.2170   40.2980    3.2700 C.3   161  MTX161      0.0451
     30  CG        34.9390   39.3650    2.1220 C.3   161  MTX161      0.1164
     31  CD        36.4230   39.7730    1.7610 C.2   161  MTX161      0.3649
     32  OE1       37.1920   39.5990    2.7550 O.co2 161  MTX161     -0.2457
     33  OE2       36.7980   40.1310    0.5980 O.co2 161  MTX161     -0.2457
@<TRIPOS>BOND
     1    33    31   ar
     2    28    26   ar
     3    31    30    1
     4    31    32   ar
     5    30    29    1
     6    26    25    1
     7    26    27   ar
     8    25    29    1
     9    25    24    1
    10    23    22    2
    11    24    22   am
    12    22    16    1
    13    16    17   ar
    14    16    21   ar
    15    17    18   ar
    16    21    20   ar
    17    18    19   ar
    18    20    19   ar
    19    19    14    1
    20    14    15    1
    21    14    13    1
    22    13     9    1
    23    10     9    1
    24    10    11    1
    25     9     8    2
    26    11    12    2
    27     8     7    2
    28    12     7    1
    29    12     1    2
    30     7     5    1
    31     1     2    2
    32     5     6    1
    33     5     4    2
    34     2     4    2
    35     2     3    1
