@<TRIPOS>MOLECULE
1rx3_NAP_A_1.pdb
 48 52 0 0 0
SMALL
GASTEIGER

@<TRIPOS>ATOM
      1  PA        29.8590   53.8900   15.3830 P.3   164  NAP164      0.2189
      2  O1A       28.7990   53.3220   16.2230 O.3   164  NAP164     -0.4371
      3  O2A       30.2000   53.1180   14.1580 O.2   164  NAP164     -0.5170
      4  O5B       29.7620   55.4220   14.9340 O.3   164  NAP164     -0.3112
      5  C5B       29.1990   56.3890   15.8330 C.3   164  NAP164      0.1813
      6  C4B       28.4860   57.5280   15.1510 C.3   164  NAP164      0.1820
      7  O4B       27.4320   57.2590   14.1950 O.3   164  NAP164     -0.3136
      8  C3B       28.2960   58.8770   15.8260 C.3   164  NAP164      0.2157
      9  O3B       29.5260   59.5740   15.8370 O.3   164  NAP164     -0.2175
     10  C2B       27.2810   59.5030   14.8680 C.3   164  NAP164      0.2314
     11  O2B       27.9810   60.0970   13.7910 O.3   164  NAP164     -0.2630
     12  C1B       26.5420   58.3400   14.2070 C.3   164  NAP164      0.3158
     13  N9A       25.2580   57.9930   14.8180 N.pl3 164  NAP164     -0.1439
     14  C8A       24.9740   56.9450   15.6390 C.3   164  NAP164      0.3377
     15  N7A       23.7150   56.9420   16.0560 N.2   164  NAP164     -0.2095
     16  C5A       23.1350   58.0640   15.4790 C.2   164  NAP164      0.2526
     17  C6A       21.8130   58.5720   15.4960 C.2   164  NAP164      0.4393
     18  N6A       20.8130   58.0000   16.1830 N.pl3 164  NAP164      0.2180
     19  N1A       21.5610   59.6860   14.8010 N.2   164  NAP164      0.0021
     20  C2A       22.5710   60.2270   14.1230 C.3   164  NAP164      0.5254
     21  N3A       23.8540   59.8210   14.0120 N.2   164  NAP164     -0.0055
     22  C4A       24.0750   58.7360   14.7230 C.2   164  NAP164      0.3518
     23  O3        31.1350   54.1510   16.2910 O.3   164  NAP164     -0.2703
     24  PN        31.8440   53.4570   17.5750 P.3   164  NAP164      0.2189
     25  O1N       30.7900   53.1680   18.5910 O.3   164  NAP164     -0.4371
     26  O2N       33.0570   54.2150   17.9890 O.2   164  NAP164     -0.5170
     27  O5D       32.3040   52.0450   16.9750 O.3   164  NAP164     -0.3112
     28  C5D       33.4850   52.1720   16.0680 C.3   164  NAP164      0.1813
     29  C4D       34.2810   51.0140   16.7540 C.3   164  NAP164      0.1799
     30  O4D       33.3740   49.8740   16.5170 O.3   164  NAP164     -0.3327
     31  C3D       35.5780   50.6740   15.9360 C.3   164  NAP164      0.2158
     32  O3D       36.5280   50.1970   16.8010 O.3   164  NAP164     -0.2175
     33  C2D       35.1060   49.4860   15.0360 C.3   164  NAP164      0.2309
     34  O2D       36.2930   48.8470   14.7420 O.3   164  NAP164     -0.2158
     35  C1D       34.1590   48.7950   15.8940 C.3   164  NAP164      0.2263
     36  N1N       33.3190   47.6730   15.2640 N.pl3 164  NAP164     -0.2787
     37  C2N       33.3110   46.3100   15.5700 C.3   164  NAP164      0.1244
     38  C3N       32.4980   45.4690   14.9510 C.2   164  NAP164      0.0544
     39  C7N       32.5630   44.0530   15.2920 C.2   164  NAP164      0.2818
     40  O7N       31.7560   43.2720   14.7120 O.2   164  NAP164     -0.2670
     41  N7N       33.6430   43.6120   15.9500 N.am  164  NAP164     -0.0839
     42  C4N       31.4750   45.8450   13.8380 C.2   164  NAP164      0.0033
     43  C5N       31.5880   47.3540   13.6450 C.2   164  NAP164      0.0157
     44  C6N       32.4140   48.0750   14.3070 C.2   164  NAP164      0.0633
     45  P2B       28.1380   61.6800   13.9140 P.3   164  NAP164      0.5328
     46  O1X       28.8570   62.0580   12.5850 O.2   164  NAP164     -0.2224
     47  O2X       26.7300   62.0940   14.2560 O.3   164  NAP164     -0.1145
     48  O3X       29.2420   61.8870   14.9130 O.3   164  NAP164     -0.1145
@<TRIPOS>BOND
     1    46    45    2
     2    43    42    1
     3    43    44    2
     4    11    45    1
     5    11    10    1
     6    42    38    2
     7    45    47    1
     8    45    48    1
     9    21    20    1
    10    21    22    2
    11    20    19    1
    12     3     1    2
    13     7    12    1
    14     7     6    1
    15    12    13    1
    16    12    10    1
    17    44    36    1
    18    40    39    2
    19    22    13    1
    20    22    16    1
    21    34    33    1
    22    19    17    2
    23    13    14    1
    24    10     8    1
    25     4     1    1
    26     4     5    1
    27    38    39    1
    28    38    37    1
    29    33    35    1
    30    33    31    1
    31     6     8    1
    32     6     5    1
    33    36    37    1
    34    36    35    1
    35    39    41   am
    36     1     2    1
    37     1    23    1
    38    16    17    1
    39    16    15    2
    40    17    18    1
    41    14    15    1
    42     8     9    1
    43    35    30    1
    44    31    29    1
    45    31    32    1
    46    28    29    1
    47    28    27    1
    48    23    24    1
    49    30    29    1
    50    27    24    1
    51    24    26    2
    52    24    25    1
