@<TRIPOS>MOLECULE
1rx4_DDF_A_1.pdb
 32 34 0 0 0
SMALL
GASTEIGER

@<TRIPOS>ATOM
      1  N1        30.2080   41.2560   12.4500 N.2   161  DDF161     -0.2739
      2  C2        31.0580   40.1840   12.3440 C.1   161  DDF161      0.2602
      3  NA2       30.7260   38.9810   12.4170 N.pl3 161  DDF161     -0.0221
      4  N3        32.4310   40.3700   12.1460 N.2   161  DDF161     -0.2529
      5  C4        33.0270   41.5820   12.0500 C.1   161  DDF161      0.2060
      6  O4        34.2550   41.6870   11.8840 O.2   161  DDF161     -0.2123
      7  C4A       32.1200   42.7450   12.1730 C.3   161  DDF161      0.2157
      8  C5        32.7310   44.0620   12.1060 C.3   161  DDF161      0.0360
      9  C6        31.6920   44.9520   11.7290 C.3   161  DDF161      0.0278
     10  C7        30.4370   44.7600   12.4620 C.3   161  DDF161      0.1370
     11  N8        29.8700   43.5370   12.3650 N.2   161  DDF161     -0.2122
     12  C8A       30.7650   42.5370   12.3740 C.1   161  DDF161      0.0888
     13  C9        31.6420   45.1380   10.2470 C.3   161  DDF161      0.0068
     14  C10       33.0640   45.3400    9.6580 C.3   161  DDF161      0.0264
     15  C11       33.6950   44.0520    5.5420 C.ar  161  DDF161      0.0550
     16  C12       34.5990   44.9090    6.1990 C.ar  161  DDF161      0.0042
     17  C13       34.3850   45.3090    7.4950 C.ar  161  DDF161     -0.0041
     18  C14       33.2360   44.8590    8.2060 C.ar  161  DDF161     -0.0222
     19  C15       32.3660   44.0330    7.6130 C.ar  161  DDF161     -0.0041
     20  C16       32.6100   43.6380    6.2890 C.ar  161  DDF161      0.0042
     21  C         33.7830   43.5070    4.1660 C.2   161  DDF161      0.2652
     22  O         34.6070   43.7880    3.3100 O.2   161  DDF161     -0.2684
     23  N         33.0930   42.4430    3.9540 N.am  161  DDF161     -0.1918
     24  CA        33.0340   41.7250    2.6740 C.3   161  DDF161      0.1986
     25  CB        33.8210   40.4260    2.9490 C.3   161  DDF161      0.0451
     26  CG        35.0880   40.1100    1.9760 C.3   161  DDF161      0.1164
     27  CD        35.1000   38.5580    1.8550 C.2   161  DDF161      0.3649
     28  OE1       33.9730   38.0920    2.2230 O.co2 161  DDF161     -0.2457
     29  OE2       36.0920   37.8860    1.5010 O.co2 161  DDF161     -0.2457
     30  CT        31.5760   41.4260    2.3610 C.2   161  DDF161      0.3842
     31  O1        30.6800   41.4830    3.2430 O.co2 161  DDF161     -0.2437
     32  O2        31.3170   41.2650    1.1450 O.co2 161  DDF161     -0.2437
@<TRIPOS>BOND
     1    32    30   ar
     2    29    27   ar
     3    27    26    1
     4    27    28   ar
     5    26    25    1
     6    30    24    1
     7    30    31   ar
     8    24    25    1
     9    24    23    1
    10    22    21    2
    11    23    21   am
    12    21    15    1
    13    15    16   ar
    14    15    20   ar
    15    16    17   ar
    16    20    19   ar
    17    17    18   ar
    18    19    18   ar
    19    18    14    1
    20    14    13    1
    21    13     9    1
    22     9     8    1
    23     9    10    1
    24     6     5    2
    25     5     4    2
    26     5     7    1
    27     8     7    1
    28     4     2    2
    29     7    12    1
    30     2     3    1
    31     2     1    2
    32    11    12    2
    33    11    10    1
    34    12     1    2
