@<TRIPOS>MOLECULE
1rx4_NAP_A_1.pdb
 39 42 0 0 0
SMALL
GASTEIGER

@<TRIPOS>ATOM
      1  PA        29.4920   54.4220   14.7040 P.3   164  NAP164      0.2189
      2  O1A       28.5160   53.8280   15.6650 O.3   164  NAP164     -0.4371
      3  O2A       30.0250   53.6400   13.5640 O.2   164  NAP164     -0.5170
      4  O5B       28.9900   55.8420   14.2030 O.3   164  NAP164     -0.3112
      5  C5B       28.3290   56.7430   15.1260 C.3   164  NAP164      0.1813
      6  C4B       27.9000   57.9490   14.3270 C.3   164  NAP164      0.1820
      7  O4B       26.8520   57.6070   13.3860 O.3   164  NAP164     -0.3136
      8  C3B       27.4110   59.1720   15.0760 C.3   164  NAP164      0.2157
      9  O3B       28.5090   59.9830   15.4270 O.3   164  NAP164     -0.2175
     10  C2B       26.5270   59.8680   14.0400 C.3   164  NAP164      0.2314
     11  O2B       27.3960   60.4630   13.0940 O.3   164  NAP164     -0.2630
     12  C1B       25.8940   58.6460   13.3760 C.3   164  NAP164      0.3158
     13  N9A       24.7390   58.2930   14.1870 N.pl3 164  NAP164     -0.1439
     14  C8A       24.5930   57.3970   15.2160 C.3   164  NAP164      0.3377
     15  N7A       23.3600   57.3690   15.6980 N.2   164  NAP164     -0.2095
     16  C5A       22.6840   58.3300   14.9410 C.2   164  NAP164      0.2526
     17  C6A       21.3460   58.8170   14.9800 C.2   164  NAP164      0.4393
     18  N6A       20.4300   58.3330   15.8370 N.pl3 164  NAP164      0.2180
     19  N1A       20.9840   59.8030   14.0940 N.2   164  NAP164      0.0021
     20  C2A       21.9360   60.2650   13.2340 C.3   164  NAP164      0.5254
     21  N3A       23.2390   59.8870   13.1150 N.2   164  NAP164     -0.0055
     22  C4A       23.5320   58.9140   14.0110 C.2   164  NAP164      0.3518
     23  O3        30.7580   54.8880   15.5610 O.3   164  NAP164     -0.2703
     24  PN        31.2630   54.4780   17.0570 P.3   164  NAP164      0.2189
     25  O1N       31.4300   53.0050   17.0590 O.2   164  NAP164     -0.5170
     26  O2N       30.3560   55.1000   18.0600 O.3   164  NAP164     -0.4371
     27  O5D       32.7240   55.1310   17.1770 O.3   164  NAP164     -0.3112
     28  C5D       32.9410   56.5630   17.5680 C.3   164  NAP164      0.1812
     29  C4D       34.5100   56.7920   17.6050 C.3   164  NAP164      0.1780
     30  O4D       34.8970   57.7710   18.6310 O.3   164  NAP164     -0.3482
     31  C3D       35.2640   55.5320   18.1560 C.3   164  NAP164      0.2140
     32  O3D       36.4460   55.2420   17.5260 O.3   164  NAP164     -0.2176
     33  C2D       35.4620   55.7640   19.6960 C.3   164  NAP164      0.2140
     34  O2D       36.7300   55.4640   20.1390 O.3   164  NAP164     -0.2176
     35  C1D       34.9220   57.0820   19.9310 C.3   164  NAP164      0.1777
     36  P2B       27.3560   62.0330   12.7860 P.3   164  NAP164      0.5328
     37  O1X       27.6010   62.0580   11.2490 O.2   164  NAP164     -0.2224
     38  O2X       26.0130   62.6000   13.1910 O.3   164  NAP164     -0.1145
     39  O3X       28.5020   62.6180   13.5920 O.3   164  NAP164     -0.1145
@<TRIPOS>BOND
     1    37    36    2
     2    36    11    1
     3    36    38    1
     4    36    39    1
     5    11    10    1
     6    21    20    1
     7    21    22    2
     8    20    19    1
     9    12     7    1
    10    12    10    1
    11    12    13    1
    12     7     6    1
    13     3     1    2
    14    22    13    1
    15    22    16    1
    16    10     8    1
    17    19    17    2
    18    13    14    1
    19     4     1    1
    20     4     5    1
    21     6     8    1
    22     6     5    1
    23     1    23    1
    24     1     2    1
    25    16    17    1
    26    16    15    2
    27    17    18    1
    28     8     9    1
    29    14    15    1
    30    23    24    1
    31    24    25    2
    32    24    27    1
    33    24    26    1
    34    27    28    1
    35    32    31    1
    36    28    29    1
    37    29    31    1
    38    29    30    1
    39    31    33    1
    40    30    35    1
    41    33    35    1
    42    33    34    1
