@<TRIPOS>MOLECULE
1rx5_DDF_A_1.pdb
 32 34 0 0 0
SMALL
GASTEIGER

@<TRIPOS>ATOM
      1  N1        29.9880   40.9130   12.4290 N.2   161  DDF161     -0.2739
      2  C2        30.7960   39.8420   12.4120 C.1   161  DDF161      0.2602
      3  NA2       30.3840   38.6640   12.5810 N.pl3 161  DDF161     -0.0221
      4  N3        32.1950   39.9680   12.1820 N.2   161  DDF161     -0.2529
      5  C4        32.7940   41.1540   11.9670 C.1   161  DDF161      0.2060
      6  O4        34.0050   41.2180   11.7830 O.2   161  DDF161     -0.2123
      7  C4A       31.8750   42.3210   11.9830 C.3   161  DDF161      0.2157
      8  C5        32.4200   43.6100   11.6260 C.3   161  DDF161      0.0360
      9  C6        31.3590   44.5820   11.5060 C.3   161  DDF161      0.0278
     10  C7        30.1010   44.3710   12.1830 C.3   161  DDF161      0.1370
     11  N8        29.6210   43.1130   12.2240 N.2   161  DDF161     -0.2122
     12  C8A       30.5380   42.1340   12.2030 C.1   161  DDF161      0.0888
     13  C9        31.4300   45.4810   10.2950 C.3   161  DDF161      0.0068
     14  C10       32.8620   45.4830    9.6440 C.3   161  DDF161      0.0264
     15  C11       33.5530   43.7760    5.5690 C.ar  161  DDF161      0.0550
     16  C12       34.5210   44.5750    6.2340 C.ar  161  DDF161      0.0042
     17  C13       34.2880   45.0960    7.5160 C.ar  161  DDF161     -0.0041
     18  C14       33.0390   44.8500    8.2220 C.ar  161  DDF161     -0.0222
     19  C15       32.1110   44.0980    7.6030 C.ar  161  DDF161     -0.0041
     20  C16       32.3860   43.5810    6.3070 C.ar  161  DDF161      0.0042
     21  C         33.6410   43.1240    4.2160 C.2   161  DDF161      0.2652
     22  O         34.5150   43.2620    3.3600 O.2   161  DDF161     -0.2684
     23  N         32.7660   42.2280    3.9220 N.am  161  DDF161     -0.1918
     24  CA        32.8360   41.4870    2.6490 C.3   161  DDF161      0.1986
     25  CB        33.7790   40.3150    3.0600 C.3   161  DDF161      0.0451
     26  CG        34.8700   39.8320    1.9660 C.3   161  DDF161      0.1164
     27  CD        34.6800   38.3020    1.8360 C.2   161  DDF161      0.3649
     28  OE1       33.5940   37.9550    2.4000 O.co2 161  DDF161     -0.2457
     29  OE2       35.4930   37.5440    1.2720 O.co2 161  DDF161     -0.2457
     30  CT        31.3920   41.1150    2.2650 C.2   161  DDF161      0.3842
     31  O1        30.5020   41.0600    3.1340 O.co2 161  DDF161     -0.2437
     32  O2        31.1160   41.1010    1.0460 O.co2 161  DDF161     -0.2437
@<TRIPOS>BOND
     1    32    30   ar
     2    29    27   ar
     3    27    26    1
     4    27    28   ar
     5    26    25    1
     6    30    24    1
     7    30    31   ar
     8    24    25    1
     9    24    23    1
    10    22    21    2
    11    23    21   am
    12    21    15    1
    13    15    16   ar
    14    15    20   ar
    15    16    17   ar
    16    20    19   ar
    17    17    18   ar
    18    19    18   ar
    19    18    14    1
    20    14    13    1
    21    13     9    1
    22     9     8    1
    23     9    10    1
    24     8     7    1
    25     6     5    2
    26     5     7    1
    27     5     4    2
    28     7    12    1
    29     4     2    2
    30    10    11    1
    31    12    11    2
    32    12     1    2
    33     2     1    2
    34     2     3    1
