@<TRIPOS>MOLECULE
1rx6_NAP_A_1.pdb
 39 42 0 0 0
SMALL
GASTEIGER

@<TRIPOS>ATOM
      1  PA        29.4270   54.5560   14.6820 P.3   164  NAP164      0.2189
      2  O1A       28.4520   53.9350   15.6350 O.3   164  NAP164     -0.4371
      3  O2A       29.8830   53.8140   13.4800 O.2   164  NAP164     -0.5170
      4  O5B       29.0140   56.0580   14.3410 O.3   164  NAP164     -0.3112
      5  C5B       28.0450   56.8540   15.0710 C.3   164  NAP164      0.1813
      6  C4B       27.6750   58.1180   14.3290 C.3   164  NAP164      0.1820
      7  O4B       26.7100   57.9170   13.2560 O.3   164  NAP164     -0.3136
      8  C3B       27.1640   59.3250   15.1100 C.3   164  NAP164      0.2157
      9  O3B       28.1970   60.0200   15.7700 O.3   164  NAP164     -0.2175
     10  C2B       26.4540   60.1260   14.0160 C.3   164  NAP164      0.2314
     11  O2B       27.3200   60.5540   12.9770 O.3   164  NAP164     -0.2630
     12  C1B       25.7570   58.9480   13.3530 C.3   164  NAP164      0.3158
     13  N9A       24.6660   58.5660   14.2320 N.pl3 164  NAP164     -0.1439
     14  C8A       24.5560   57.6950   15.2830 C.3   164  NAP164      0.3377
     15  N7A       23.3470   57.6940   15.7930 N.2   164  NAP164     -0.2095
     16  C5A       22.6560   58.6360   15.0210 C.2   164  NAP164      0.2526
     17  C6A       21.3270   59.1510   15.0220 C.2   164  NAP164      0.4393
     18  N6A       20.3790   58.7610   15.8750 N.pl3 164  NAP164      0.2180
     19  N1A       21.0070   60.1010   14.0980 N.2   164  NAP164      0.0021
     20  C2A       21.9540   60.5030   13.2430 C.3   164  NAP164      0.5254
     21  N3A       23.2130   60.0890   13.1760 N.2   164  NAP164     -0.0055
     22  C4A       23.4850   59.1660   14.0720 C.2   164  NAP164      0.3518
     23  O3        30.8050   54.7440   15.4620 O.3   164  NAP164     -0.2703
     24  PN        31.2410   54.5260   17.0170 P.3   164  NAP164      0.2189
     25  O1N       31.4640   53.0730   17.2560 O.2   164  NAP164     -0.5170
     26  O2N       30.2720   55.2260   17.9210 O.3   164  NAP164     -0.4371
     27  O5D       32.6640   55.2490   16.9560 O.3   164  NAP164     -0.3112
     28  C5D       33.0180   56.6430   17.3760 C.3   164  NAP164      0.1812
     29  C4D       34.0740   56.6120   18.5590 C.3   164  NAP164      0.1780
     30  O4D       35.1860   55.6990   18.2410 O.3   164  NAP164     -0.3482
     31  C3D       34.8220   57.9750   18.7760 C.3   164  NAP164      0.2140
     32  O3D       34.5450   58.8590   19.7930 O.3   164  NAP164     -0.2176
     33  C2D       36.2900   57.7850   18.2680 C.3   164  NAP164      0.2140
     34  O2D       37.2930   58.3740   18.9990 O.3   164  NAP164     -0.2176
     35  C1D       36.3780   56.4290   17.7820 C.3   164  NAP164      0.1777
     36  P2B       27.2470   62.1060   12.6040 P.3   164  NAP164      0.5328
     37  O1X       27.2260   62.2390   11.0420 O.2   164  NAP164     -0.2224
     38  O2X       26.0920   62.6450   13.4130 O.3   164  NAP164     -0.1145
     39  O3X       28.5790   62.6270   13.0860 O.3   164  NAP164     -0.1145
@<TRIPOS>BOND
     1    37    36    2
     2    36    11    1
     3    36    39    1
     4    36    38    1
     5    11    10    1
     6    21    20    1
     7    21    22    2
     8    20    19    1
     9     7    12    1
    10     7     6    1
    11    12    10    1
    12    12    13    1
    13     3     1    2
    14    10     8    1
    15    22    13    1
    16    22    16    1
    17    19    17    2
    18    13    14    1
    19     6     5    1
    20     6     8    1
    21     4     1    1
    22     4     5    1
    23     1    23    1
    24     1     2    1
    25    16    17    1
    26    16    15    2
    27    17    18    1
    28     8     9    1
    29    14    15    1
    30    23    24    1
    31    27    24    1
    32    27    28    1
    33    24    25    2
    34    24    26    1
    35    28    29    1
    36    35    30    1
    37    35    33    1
    38    30    29    1
    39    33    31    1
    40    33    34    1
    41    29    31    1
    42    31    32    1
