@<TRIPOS>MOLECULE
1rx6_DDF_A_1.pdb
 32 34 0 0 0
SMALL
GASTEIGER

@<TRIPOS>ATOM
      1  N1        30.1770   41.4220   12.3820 N.2   161  DDF161     -0.2739
      2  C2        31.0320   40.3730   12.2530 C.1   161  DDF161      0.2602
      3  NA2       30.6550   39.1410   12.2520 N.pl3 161  DDF161     -0.0221
      4  N3        32.4420   40.6420   12.0960 N.2   161  DDF161     -0.2529
      5  C4        33.0160   41.9020   12.0610 C.1   161  DDF161      0.2060
      6  O4        34.2420   42.1070   11.9510 O.2   161  DDF161     -0.2123
      7  C4A       32.0710   42.9970   12.2100 C.3   161  DDF161      0.2157
      8  C5        32.6090   44.3030   11.9470 C.3   161  DDF161      0.0360
      9  C6        31.4940   45.1550   11.5940 C.3   161  DDF161      0.0278
     10  C7        30.2550   44.8940   12.3210 C.3   161  DDF161      0.1370
     11  N8        29.7590   43.6670   12.2500 N.2   161  DDF161     -0.2122
     12  C8A       30.6960   42.7280   12.3530 C.1   161  DDF161      0.0888
     13  C9        31.4680   45.5420   10.1480 C.3   161  DDF161      0.0068
     14  C10       32.9270   45.4790    9.6120 C.3   161  DDF161      0.0264
     15  C11       33.5770   44.2840    5.4520 C.ar  161  DDF161      0.0550
     16  C12       34.4440   45.2100    6.0710 C.ar  161  DDF161      0.0042
     17  C13       34.2160   45.5730    7.4010 C.ar  161  DDF161     -0.0041
     18  C14       33.1070   45.0250    8.1580 C.ar  161  DDF161     -0.0222
     19  C15       32.3000   44.1420    7.5890 C.ar  161  DDF161     -0.0041
     20  C16       32.5580   43.8060    6.2480 C.ar  161  DDF161      0.0042
     21  C         33.6000   43.7120    4.0810 C.2   161  DDF161      0.2652
     22  O         34.4790   43.8480    3.2260 O.2   161  DDF161     -0.2684
     23  N         32.6670   42.8420    3.8130 N.am  161  DDF161     -0.1918
     24  CA        32.6730   42.0580    2.5520 C.3   161  DDF161      0.1986
     25  CB        33.4820   40.7790    2.8730 C.3   161  DDF161      0.0451
     26  CG        34.7310   40.5230    1.8700 C.3   161  DDF161      0.1164
     27  CD        34.8190   38.9780    1.5590 C.2   161  DDF161      0.3649
     28  OE1       33.9020   38.3100    2.1580 O.co2 161  DDF161     -0.2457
     29  OE2       35.6840   38.4800    0.7990 O.co2 161  DDF161     -0.2457
     30  CT        31.2660   41.7490    2.2020 C.2   161  DDF161      0.3842
     31  O1        30.4520   41.5140    3.1150 O.co2 161  DDF161     -0.2437
     32  O2        30.9700   41.8740    0.9910 O.co2 161  DDF161     -0.2437
@<TRIPOS>BOND
     1    29    27   ar
     2    32    30   ar
     3    27    26    1
     4    27    28   ar
     5    26    25    1
     6    30    24    1
     7    30    31   ar
     8    24    25    1
     9    24    23    1
    10    22    21    2
    11    23    21   am
    12    21    15    1
    13    15    16   ar
    14    15    20   ar
    15    16    17   ar
    16    20    19   ar
    17    17    18   ar
    18    19    18   ar
    19    18    14    1
    20    14    13    1
    21    13     9    1
    22     9     8    1
    23     9    10    1
    24     8     7    1
    25     6     5    2
    26     5     4    2
    27     5     7    1
    28     4     2    2
    29     7    12    1
    30    11    10    1
    31    11    12    2
    32     3     2    1
    33     2     1    2
    34    12     1    2
