@<TRIPOS>MOLECULE
1rx7_FOL_A_1.pdb
 32 34 0 0 0
SMALL
GASTEIGER

@<TRIPOS>ATOM
      1  N1        30.2600   41.3430   12.4540 N.2   161  FOL161     -0.2672
      2  C2        31.0840   40.2700   12.4410 C.1   161  FOL161      0.2609
      3  NA2       30.7900   39.2320   12.8530 N.pl3 161  FOL161     -0.0220
      4  N3        32.4230   40.3950   11.8900 N.2   161  FOL161     -0.2466
      5  C4        32.9040   41.6050   11.3680 C.1   161  FOL161      0.2569
      6  O4        34.0570   41.6920   10.8990 O.2   161  FOL161     -0.2052
      7  C4A       31.9580   42.7840   11.3900 C.2   161  FOL161      0.2988
      8  N5        32.4200   44.0840   10.8880 N.2   161  FOL161     -0.3839
      9  C6        31.5510   45.0750   11.0190 C.2   161  FOL161      0.1356
     10  C7        30.3470   44.7040   11.5950 C.3   161  FOL161      0.1931
     11  N8        29.9130   43.4780   12.0530 N.2   161  FOL161     -0.1992
     12  C8A       30.7360   42.5760   11.9280 C.1   161  FOL161      0.1401
     13  C9        31.8980   46.3880   10.5570 C.3   161  FOL161      0.1683
     14  N10       33.1000   46.3350    9.6520 N.pl3 161  FOL161     -0.2303
     15  C11       33.7430   44.5240    5.6340 C.ar  161  FOL161      0.0551
     16  C12       34.7600   45.3480    6.3130 C.ar  161  FOL161      0.0059
     17  C13       34.4690   45.9400    7.7060 C.ar  161  FOL161      0.0162
     18  C14       33.1720   45.7300    8.4490 C.ar  161  FOL161      0.0658
     19  C15       32.1780   44.9790    7.8890 C.ar  161  FOL161      0.0162
     20  C16       32.4040   44.3270    6.4490 C.ar  161  FOL161      0.0059
     21  C         33.8270   43.8550    4.2910 C.2   161  FOL161      0.2652
     22  O         34.5420   43.9910    3.2550 O.2   161  FOL161     -0.2684
     23  N         33.0470   43.0390    4.1610 N.am  161  FOL161     -0.1918
     24  CA        32.9330   42.1360    2.9290 C.3   161  FOL161      0.1986
     25  CB        33.6880   40.8880    3.2330 C.3   161  FOL161      0.0451
     26  CG        35.0490   40.9790    2.3950 C.3   161  FOL161      0.1164
     27  CD        36.0920   39.8210    2.2320 C.2   161  FOL161      0.3649
     28  OE1       37.1880   40.3890    2.0040 O.co2 161  FOL161     -0.2457
     29  OE2       35.8910   38.5930    2.2420 O.co2 161  FOL161     -0.2457
     30  CT        31.3930   41.8700    2.6180 C.2   161  FOL161      0.3842
     31  O1        30.4840   41.7760    3.5540 O.co2 161  FOL161     -0.2437
     32  O2        31.0940   41.9340    1.4100 O.co2 161  FOL161     -0.2437
@<TRIPOS>BOND
     1    32    30   ar
     2    28    27   ar
     3    27    29   ar
     4    27    26    1
     5    26    25    1
     6    30    24    1
     7    30    31   ar
     8    24    25    1
     9    24    23    1
    10    22    21    2
    11    23    21   am
    12    21    15    1
    13    15    16   ar
    14    15    20   ar
    15    16    17   ar
    16    20    19   ar
    17    17    18   ar
    18    19    18   ar
    19    18    14    1
    20    14    13    1
    21    13     9    1
    22     8     9    2
    23     8     7    2
    24     6     5    2
    25     9    10    1
    26     5     7    1
    27     5     4    2
    28     7    12    1
    29    10    11    1
    30     4     2    2
    31    12    11    2
    32    12     1    2
    33     2     1    2
    34     2     3    1
