@<TRIPOS>MOLECULE
1rx8_FOL_A_1.pdb
 32 34 0 0 0
SMALL
GASTEIGER

@<TRIPOS>ATOM
      1  N1        30.4580   40.7840   12.7710 N.2   161  FOL161     -0.2672
      2  C2        31.0930   39.6260   12.5360 C.1   161  FOL161      0.2609
      3  NA2       30.6540   38.4660   12.8460 N.pl3 161  FOL161     -0.0220
      4  N3        32.3470   39.6660   11.8960 N.2   161  FOL161     -0.2466
      5  C4        32.9640   40.7980   11.4860 C.1   161  FOL161      0.2569
      6  O4        34.0570   40.6980   10.9280 O.2   161  FOL161     -0.2052
      7  C4A       32.2510   42.0740   11.7610 C.2   161  FOL161      0.2988
      8  N5        32.7140   43.2470   11.1930 N.2   161  FOL161     -0.3839
      9  C6        31.8680   44.3090   11.1810 C.2   161  FOL161      0.1356
     10  C7        30.6300   44.0690   11.7640 C.3   161  FOL161      0.1931
     11  N8        30.1900   42.9690   12.3110 N.2   161  FOL161     -0.1992
     12  C8A       31.0480   41.9720   12.3330 C.1   161  FOL161      0.1401
     13  C9        32.2560   45.6460   10.5690 C.3   161  FOL161      0.1683
     14  N10       33.6410   45.7800    9.9450 N.pl3 161  FOL161     -0.2303
     15  C11       34.4100   43.9880    6.1840 C.ar  161  FOL161      0.0551
     16  C12       35.2600   45.0150    6.6880 C.ar  161  FOL161      0.0059
     17  C13       35.0100   45.6090    7.9270 C.ar  161  FOL161      0.0162
     18  C14       33.8760   45.1760    8.7110 C.ar  161  FOL161      0.0658
     19  C15       33.0620   44.2190    8.2700 C.ar  161  FOL161      0.0162
     20  C16       33.3450   43.6400    7.0020 C.ar  161  FOL161      0.0059
     21  C         34.5080   43.2510    4.8990 C.2   161  FOL161      0.2652
     22  O         35.3170   43.4640    3.9940 O.2   161  FOL161     -0.2684
     23  N         33.5660   42.3670    4.6470 N.am  161  FOL161     -0.1918
     24  CA        33.4800   41.5360    3.4000 C.3   161  FOL161      0.1986
     25  CB        33.9430   40.0560    3.6790 C.3   161  FOL161      0.0451
     26  CG        35.0690   39.5310    2.6390 C.3   161  FOL161      0.1164
     27  CD        34.8420   38.0400    2.3610 C.2   161  FOL161      0.3649
     28  OE1       33.9150   37.9000    1.5110 O.co2 161  FOL161     -0.2457
     29  OE2       35.4880   37.1400    2.9440 O.co2 161  FOL161     -0.2457
     30  CT        32.0930   41.5900    2.8110 C.2   161  FOL161      0.3842
     31  O1        31.1140   40.9560    3.2880 O.co2 161  FOL161     -0.2437
     32  O2        32.0250   42.3680    1.8540 O.co2 161  FOL161     -0.2437
@<TRIPOS>BOND
     1    28    27   ar
     2    32    30   ar
     3    27    26    1
     4    27    29   ar
     5    26    25    1
     6    30    31   ar
     7    30    24    1
     8    24    25    1
     9    24    23    1
    10    22    21    2
    11    23    21   am
    12    21    15    1
    13    15    16   ar
    14    15    20   ar
    15    16    17   ar
    16    20    19   ar
    17    17    18   ar
    18    19    18   ar
    19    18    14    1
    20    14    13    1
    21    13     9    1
    22     6     5    2
    23     9     8    2
    24     9    10    1
    25     8     7    2
    26     5     7    1
    27     5     4    2
    28     7    12    1
    29    10    11    1
    30     4     2    2
    31    11    12    2
    32    12     1    2
    33     2     1    2
    34     2     3    1
