@<TRIPOS>MOLECULE
1rx8_NAP_A_1.pdb
 31 33 0 0 0
SMALL
GASTEIGER

@<TRIPOS>ATOM
      1  PA        29.9060   53.5850   14.5650 P.3   164  NAP164      0.2231
      2  O1A       28.8880   52.9730   15.4470 O.3   164  NAP164     -0.4370
      3  O2A       30.2030   53.0200   13.2390 O.2   164  NAP164     -0.5169
      4  O5B       29.6570   55.1630   14.5050 O.3   164  NAP164     -0.3111
      5  C5B       28.8030   55.8510   15.4750 C.3   164  NAP164      0.1813
      6  C4B       28.0040   57.0250   14.9410 C.3   164  NAP164      0.1820
      7  O4B       26.9420   56.8960   13.9650 O.3   164  NAP164     -0.3136
      8  C3B       27.8260   58.3650   15.6420 C.3   164  NAP164      0.2157
      9  O3B       28.9980   59.0140   16.0780 O.3   164  NAP164     -0.2175
     10  C2B       26.8610   59.1370   14.7210 C.3   164  NAP164      0.2314
     11  O2B       27.3740   59.6830   13.5190 O.3   164  NAP164     -0.2630
     12  C1B       26.0510   57.9660   14.1680 C.3   164  NAP164      0.3158
     13  N9A       24.8490   57.6300   14.9460 N.pl3 164  NAP164     -0.1439
     14  C8A       24.6830   56.6490   15.9040 C.3   164  NAP164      0.3377
     15  N7A       23.4520   56.6210   16.3890 N.2   164  NAP164     -0.2095
     16  C5A       22.7480   57.6570   15.7050 C.2   164  NAP164      0.2526
     17  C6A       21.3780   58.1650   15.7430 C.2   164  NAP164      0.4393
     18  N6A       20.4010   57.6890   16.5490 N.pl3 164  NAP164      0.2180
     19  N1A       21.0480   59.2020   14.9110 N.2   164  NAP164      0.0021
     20  C2A       21.9980   59.7140   14.1070 C.3   164  NAP164      0.5254
     21  N3A       23.2870   59.3320   13.9810 N.2   164  NAP164     -0.0055
     22  C4A       23.6100   58.2920   14.8090 C.2   164  NAP164      0.3518
     23  O3        31.2640   53.6550   15.4080 O.3   164  NAP164     -0.2261
     24  PN        31.7700   53.2120   16.8990 P.3   164  NAP164      0.5373
     25  O1N       30.6200   53.2560   17.8330 O.3   164  NAP164     -0.1143
     26  O2N       32.9540   54.0210   17.3030 O.3   164  NAP164     -0.1143
     27  O5D       32.2570   51.7440   16.5230 O.2   164  NAP164     -0.2221
     28  P2B       27.7370   61.2260   13.5040 P.3   164  NAP164      0.5328
     29  O1X       28.1790   61.4600   12.0070 O.2   164  NAP164     -0.2224
     30  O2X       26.5010   61.9390   13.9610 O.3   164  NAP164     -0.1145
     31  O3X       28.9160   61.3510   14.4580 O.3   164  NAP164     -0.1145
@<TRIPOS>BOND
     1    29    28    2
     2     3     1    2
     3    28    11    1
     4    28    30    1
     5    28    31    1
     6    11    10    1
     7     7    12    1
     8     7     6    1
     9    21    20    1
    10    21    22    2
    11    20    19    1
    12    12    10    1
    13    12    13    1
    14     4     1    1
    15     4     5    1
    16     1    23    1
    17     1     2    1
    18    10     8    1
    19    22    13    1
    20    22    16    1
    21    19    17    2
    22     6     5    1
    23     6     8    1
    24    13    14    1
    25    23    24    1
    26     8     9    1
    27    16    17    1
    28    16    15    2
    29    17    18    1
    30    14    15    1
    31    27    24    2
    32    24    26    1
    33    24    25    1
