@<TRIPOS>MOLECULE
1rx9_NAP_A_1.pdb
 47 50 0 0 0
SMALL
GASTEIGER

@<TRIPOS>ATOM
      1  PA        29.6500   54.1550   15.0520 P.3   164  NAP164      0.2203
      2  O1A       28.5180   53.6030   15.8630 O.3   164  NAP164     -0.4371
      3  O2A       30.2130   53.5410   13.8270 O.2   164  NAP164     -0.5170
      4  O5B       29.2620   55.6370   14.5770 O.3   164  NAP164     -0.3112
      5  C5B       28.5610   56.6270   15.3710 C.3   164  NAP164      0.1813
      6  C4B       28.1910   57.8660   14.5920 C.3   164  NAP164      0.1820
      7  O4B       26.9810   57.5910   13.8700 O.3   164  NAP164     -0.3136
      8  C3B       27.7430   58.9950   15.5030 C.3   164  NAP164      0.2157
      9  O3B       28.8610   59.7760   15.8560 O.3   164  NAP164     -0.2175
     10  C2B       26.7800   59.8500   14.6650 C.3   164  NAP164      0.2314
     11  O2B       27.5920   60.5180   13.7260 O.3   164  NAP164     -0.2630
     12  C1B       26.1460   58.7230   13.8650 C.3   164  NAP164      0.3158
     13  N9A       24.9730   58.3300   14.6300 N.pl3 164  NAP164     -0.1439
     14  C8A       24.8330   57.3380   15.5590 C.3   164  NAP164      0.3377
     15  N7A       23.5980   57.2890   16.0420 N.2   164  NAP164     -0.2095
     16  C5A       22.9290   58.3750   15.3950 C.2   164  NAP164      0.2526
     17  C6A       21.6070   58.8700   15.4080 C.2   164  NAP164      0.4393
     18  N6A       20.6260   58.3800   16.2000 N.pl3 164  NAP164      0.2180
     19  N1A       21.3100   59.9490   14.5960 N.2   164  NAP164      0.0021
     20  C2A       22.2620   60.4360   13.8340 C.3   164  NAP164      0.5254
     21  N3A       23.5610   60.0440   13.7130 N.2   164  NAP164     -0.0055
     22  C4A       23.8010   59.0110   14.5080 C.2   164  NAP164      0.3518
     23  O3        30.9250   54.4210   15.9950 O.3   164  NAP164     -0.2527
     24  PN        31.4640   53.7950   17.4080 P.3   164  NAP164      0.3710
     25  O1N       30.3790   54.0230   18.4310 O.3   164  NAP164     -0.1443
     26  O5D       32.8080   54.5740   17.7270 O.3   164  NAP164     -0.2939
     27  C5D       32.9500   56.0710   17.7820 C.3   164  NAP164      0.1829
     28  C4D       34.5030   56.3970   17.8530 C.3   164  NAP164      0.1781
     29  O4D       34.9380   56.8680   19.1750 O.3   164  NAP164     -0.3482
     30  C3D       35.4140   55.1480   17.6510 C.3   164  NAP164      0.2140
     31  O3D       36.4040   55.4070   16.7400 O.3   164  NAP164     -0.2176
     32  C2D       36.0720   54.8900   19.0460 C.3   164  NAP164      0.2140
     33  O2D       37.4140   55.0980   18.8560 O.3   164  NAP164     -0.2176
     34  C1D       35.3690   55.7240   19.9890 C.3   164  NAP164      0.1777
     35  N1N       33.0720   47.7880   15.1520 N.ar  164  NAP164     -0.2422
     36  C2N       33.2290   46.4130   15.3700 C.ar  164  NAP164      0.1035
     37  C3N       32.3840   45.5320   14.8770 C.ar  164  NAP164      0.0758
     38  C7N       32.6410   44.1270   15.1800 C.2   164  NAP164      0.2857
     39  O7N       31.8180   43.2670   14.7560 O.2   164  NAP164     -0.2666
     40  N7N       33.6160   43.7490   15.9990 N.am  164  NAP164     -0.0837
     41  C4N       31.1450   45.9440   14.0160 C.ar  164  NAP164      0.0078
     42  C5N       31.1130   47.4660   13.8680 C.ar  164  NAP164      0.0208
     43  C6N       31.9990   48.2180   14.4020 C.ar  164  NAP164      0.0989
     44  P2B       27.6700   62.1050   13.6690 P.3   164  NAP164      0.5328
     45  O1X       28.0180   62.3690   12.1610 O.2   164  NAP164     -0.2224
     46  O2X       26.3540   62.5390   14.2640 O.3   164  NAP164     -0.1145
     47  O3X       28.9500   62.2850   14.4600 O.3   164  NAP164     -0.1145
@<TRIPOS>BOND
     1    45    44    2
     2    44    11    1
     3    44    46    1
     4    44    47    1
     5    21    20    1
     6    21    22    2
     7    11    10    1
     8     3     1    2
     9    20    19    1
    10    12     7    1
    11    12    13    1
    12    12    10    1
    13    42    41   ar
    14    42    43   ar
    15     7     6    1
    16    41    37   ar
    17    43    35   ar
    18    22    13    1
    19    22    16    1
    20     4     1    1
    21     4     5    1
    22     6     5    1
    23     6     8    1
    24    19    17    2
    25    13    14    1
    26    10     8    1
    27    39    38    2
    28    37    38    1
    29    37    36   ar
    30     1     2    1
    31     1    23    1
    32    35    36   ar
    33    38    40   am
    34    16    17    1
    35    16    15    2
    36    17    18    1
    37     8     9    1
    38    14    15    1
    39    23    24    1
    40    31    30    1
    41    24    26    1
    42    24    25    1
    43    30    28    1
    44    30    32    1
    45    26    27    1
    46    27    28    1
    47    28    29    1
    48    33    32    1
    49    32    34    1
    50    29    34    1
