@<TRIPOS>MOLECULE
1rxc_R1P_B_1.pdb
 14 14 0 0 0
SMALL
GASTEIGER

@<TRIPOS>ATOM
      1  C5'      -28.7360  -13.0860   38.7540 C.3   2012  R1P2012     0.2142
      2  O5'      -29.4660  -14.2940   38.6920 O.3   2012  R1P2012    -0.2176
      3  C4'      -29.0310  -12.2020   39.9460 C.3   2012  R1P2012     0.1836
      4  O4'      -28.8250  -13.0450   41.0770 O.3   2012  R1P2012    -0.3253
      5  C1'      -28.4560  -12.3720   42.2840 C.3   2012  R1P2012     0.2781
      6  C2'      -27.4010  -11.6020   41.4820 C.3   2012  R1P2012     0.2409
      7  O2'      -26.5440  -10.7600   42.2270 O.3   2012  R1P2012    -0.2149
      8  C3'      -28.1560  -11.0130   40.2980 C.3   2012  R1P2012     0.2168
      9  O3'      -29.0630   -9.9570   40.6050 O.3   2012  R1P2012    -0.2175
     10  O1'      -29.3070  -11.8470   43.3090 O.3   2012  R1P2012    -0.2416
     11  P        -30.8680  -11.4760   43.3210 P.3   2012  R1P2012     0.5346
     12  O1P      -31.0590  -10.7060   42.0290 O.2   2012  R1P2012    -0.2223
     13  O2P      -31.0020  -10.6240   44.5480 O.3   2012  R1P2012    -0.1145
     14  O3P      -31.6030  -12.7990   43.3670 O.3   2012  R1P2012    -0.1145
@<TRIPOS>BOND
     1     2     1    1
     2     1     3    1
     3     3     8    1
     4     3     4    1
     5     8     9    1
     6     8     6    1
     7     4     5    1
     8     6     7    1
     9     6     5    1
    10    12    11    2
    11     5    10    1
    12    10    11    1
    13    11    14    1
    14    11    13    1
