@<TRIPOS>MOLECULE
1rxc_5UD_J_1.pdb
 18 19 0 0 0
SMALL
GASTEIGER

@<TRIPOS>ATOM
      1  F5       -23.2290  -54.3250   -3.7890 F     2051  5UD2051    -0.1891
      2  C5       -22.4040  -53.3600   -3.3270 C.2   2051  5UD2051     0.2499
      3  C4       -21.1400  -53.8850   -2.7560 C.1   2051  5UD2051     0.2454
      4  O4       -20.8720  -55.1060   -2.7080 O.2   2051  5UD2051    -0.2062
      5  N3       -20.2970  -52.9740   -2.2910 N.2   2051  5UD2051    -0.2430
      6  C2       -20.5540  -51.6520   -2.3310 C.1   2051  5UD2051     0.2846
      7  O2       -19.6590  -50.9350   -1.8600 O.2   2051  5UD2051    -0.1918
      8  C6       -22.6360  -51.9620   -3.3540 C.2   2051  5UD2051     0.1222
      9  N1       -21.7220  -51.0810   -2.8700 N.am  2051  5UD2051    -0.1744
     10  C1'      -22.0100  -49.6090   -2.8810 C.3   2051  5UD2051     0.2401
     11  C2'      -21.1210  -48.4130   -2.4750 C.3   2051  5UD2051     0.2319
     12  O2'      -21.3560  -47.7030   -1.2640 O.3   2051  5UD2051    -0.2157
     13  C3'      -20.8480  -47.6510   -3.7630 C.3   2051  5UD2051     0.2159
     14  O3'      -21.1300  -46.2750   -3.9580 O.3   2051  5UD2051    -0.2175
     15  C4'      -21.7280  -48.2550   -4.8360 C.3   2051  5UD2051     0.1829
     16  O4'      -22.6230  -49.0040   -4.0220 O.3   2051  5UD2051    -0.3318
     17  C5'      -20.9940  -49.2520   -5.7210 C.3   2051  5UD2051     0.2142
     18  O5'      -21.7060  -50.2840   -6.3730 O.3   2051  5UD2051    -0.2176
@<TRIPOS>BOND
     1    18    17    1
     2    17    15    1
     3    15    16    1
     4    15    13    1
     5    16    10    1
     6    14    13    1
     7     1     2    1
     8    13    11    1
     9     8     2    2
    10     8     9    1
    11     2     3    1
    12    10     9    1
    13    10    11    1
    14     9     6   am
    15     3     4    2
    16     3     5    2
    17    11    12    1
    18     6     5    2
    19     6     7    2
