@<TRIPOS>MOLECULE
1rxe_MNB_A_1.pdb
 13 13 0 0 0
SMALL
GASTEIGER

@<TRIPOS>ATOM
      1  C6        20.3470   10.5150   37.9030 C.ar  151  MNB151      0.0152
      2  C1        21.5570   10.2930   38.5620 C.ar  151  MNB151      0.1027
      3  C2        21.5630   10.1240   39.9450 C.ar  151  MNB151      0.1492
      4  C3        20.3700   10.2000   40.6520 C.ar  151  MNB151      0.0248
      5  C4        19.1640   10.4420   40.0000 C.ar  151  MNB151      0.0087
      6  C5        19.1590   10.6000   38.6170 C.ar  151  MNB151      0.0360
      7  S5        17.6610   10.9870   37.6750 S.3   151  MNB151     -0.0507
      8  C10       22.8440   10.4070   37.7440 C.2   151  MNB151      0.3894
      9  O12       22.8630   10.0720   36.5600 O.co2 151  MNB151     -0.2405
     10  O11       23.8780   10.8440   38.2490 O.co2 151  MNB151     -0.2405
     11  N7        22.6790    9.8500   40.6230 N.pl3 151  MNB151      0.0579
     12  O9        22.6100    9.6430   42.0270 O.2   151  MNB151     -0.1261
     13  O8        23.9320    9.7250   39.9750 O.2   151  MNB151     -0.1261
@<TRIPOS>BOND
     1     9     8   ar
     2     7     6    1
     3     8    10   ar
     4     8     2    1
     5     1     2   ar
     6     1     6   ar
     7     2     3   ar
     8     6     5   ar
     9     3    11    1
    10     3     4   ar
    11    13    11    2
    12     5     4   ar
    13    11    12    2
