@<TRIPOS>MOLECULE
1rxg_AKG_A_1.pdb
 10 9 0 0 0
SMALL
GASTEIGER

@<TRIPOS>ATOM
      1  C1         5.9890   14.8110   54.6150 C.2   313  AKG313      0.4219
      2  O1         4.8020   15.2360   54.6630 O.co2 313  AKG313     -0.2373
      3  O2         6.6370   14.1440   53.7820 O.co2 313  AKG313     -0.2373
      4  C2         6.8630   15.1690   55.8530 C.2   313  AKG313      0.2526
      5  O5         7.9810   14.6600   55.8300 O.2   313  AKG313     -0.2843
      6  C3         6.2640   16.0630   56.8870 C.3   313  AKG313      0.0881
      7  C4         7.3090   16.7380   57.7180 C.3   313  AKG313      0.1224
      8  C5         6.9180   17.8160   58.6720 C.2   313  AKG313      0.3653
      9  O3         7.7510   18.5850   59.1270 O.co2 313  AKG313     -0.2456
     10  O4         5.6530   17.8970   58.9890 O.co2 313  AKG313     -0.2456
@<TRIPOS>BOND
     1     3     1   ar
     2     1     2   ar
     3     1     4    1
     4     5     4    2
     5     4     6    1
     6     6     7    1
     7     7     8    1
     8     8    10   ar
     9     8     9   ar
