@<TRIPOS>MOLECULE
1rxh_BNI_A_1.pdb
 25 27 0 0 0
SMALL
GASTEIGER

@<TRIPOS>ATOM
      1  C1        39.3850   29.5740   32.7740 C.2   501  BNI501      0.2456
      2  C10       39.5220   28.1390   32.2240 C.3   501  BNI501      0.0872
      3  C9        40.9730   27.6720   31.8710 C.3   501  BNI501      0.0097
      4  C8        41.6620   28.6100   30.8790 C.3   501  BNI501      0.0014
      5  C7        42.3680   27.8920   29.7530 C.3   501  BNI501      0.0129
      6  C2        43.0310   28.9390   28.7770 C.3   501  BNI501      0.0729
      7  C6        43.6730   29.8290   26.5190 C.3   501  BNI501      0.0848
      8  C4        44.5770   28.7690   28.6420 C.3   501  BNI501      0.1500
      9  C5        44.9150   29.3470   27.2470 C.3   501  BNI501      0.1509
     10  C3        45.5630   27.1630   27.3410 C.1   501  BNI501      0.2386
     11  O2        38.2000   29.9850   32.7930 O.2   501  BNI501     -0.2730
     12  O3        46.0410   26.0990   26.9550 O.2   501  BNI501     -0.2023
     13  N1        45.5060   28.2480   26.5750 N.2   501  BNI501     -0.1859
     14  N2        45.0410   27.3820   28.5540 N.2   501  BNI501     -0.1860
     15  S1        42.3380   28.7290   27.0790 S.3   501  BNI501     -0.1369
     16  N17       40.1940   29.9200   33.7440 N.am  501  BNI501     -0.1792
     17  C18       40.3820   31.0830   34.4040 C.ar  501  BNI501      0.0735
     18  C20       41.5360   31.2990   35.2680 C.ar  501  BNI501      0.0183
     19  C21       41.7000   32.5870   35.9220 C.ar  501  BNI501      0.0254
     20  C22       40.6990   33.6580   35.7030 C.ar  501  BNI501      0.1430
     21  C23       39.5310   33.4390   34.8400 C.ar  501  BNI501      0.0254
     22  C24       39.3690   32.1720   34.1930 C.ar  501  BNI501      0.0183
     23  N25       40.8700   34.9970   36.3550 N.pl3 501  BNI501      0.0577
     24  O26       41.8320   35.2310   37.0760 O.2   501  BNI501     -0.1261
     25  O27       40.0420   35.8840   36.1630 O.2   501  BNI501     -0.1261
@<TRIPOS>BOND
     1     7    15    1
     2     7     9    1
     3    13     9    1
     4    13    10    2
     5    12    10    2
     6    15     6    1
     7     9     8    1
     8    10    14    2
     9    14     8    1
    10     8     6    1
    11     6     5    1
    12     5     4    1
    13     4     3    1
    14     3     2    1
    15     2     1    1
    16     1    11    2
    17     1    16   am
    18    16    17    1
    19    22    17   ar
    20    22    21   ar
    21    17    18   ar
    22    21    20   ar
    23    18    19   ar
    24    20    19   ar
    25    20    23    1
    26    25    23    2
    27    23    24    2
