@<TRIPOS>MOLECULE
1rxj_BNI_A_1.pdb
 25 27 0 0 0
SMALL
GASTEIGER

@<TRIPOS>ATOM
      1  C1        25.6410   -3.3090   20.1840 C.2   801  BNI801      0.2456
      2  C10       25.7280   -4.8100   20.4800 C.3   801  BNI801      0.0872
      3  C9        25.6080   -5.7750   19.2970 C.3   801  BNI801      0.0097
      4  C8        24.3170   -5.6150   18.5010 C.3   801  BNI801      0.0014
      5  C7        24.2610   -6.6170   17.3710 C.3   801  BNI801      0.0129
      6  C2        22.9760   -6.3880   16.5000 C.3   801  BNI801      0.0729
      7  C6        20.5490   -6.7800   15.8070 C.3   801  BNI801      0.0848
      8  C4        22.9580   -7.1520   15.1460 C.3   801  BNI801      0.1500
      9  C5        21.4810   -7.3050   14.7280 C.3   801  BNI801      0.1509
     10  C3        22.4760   -9.3690   14.8540 C.1   801  BNI801      0.2386
     11  O2        25.0320   -2.5480   20.9520 O.2   801  BNI801     -0.2730
     12  O3        22.6010  -10.6130   14.8020 O.2   801  BNI801     -0.2023
     13  N1        21.3470   -8.7200   14.5640 N.2   801  BNI801     -0.1859
     14  N2        23.4270   -8.5310   15.2420 N.2   801  BNI801     -0.1860
     15  S1        21.4820   -7.0260   17.3650 S.3   801  BNI801     -0.1369
     16  N17       26.2300   -2.7990   19.0980 N.am  801  BNI801     -0.1792
     17  C18       26.0930   -1.5450   18.5670 C.ar  801  BNI801      0.0735
     18  C20       24.9850   -0.6720   18.8410 C.ar  801  BNI801      0.0183
     19  C21       24.9360    0.6320   18.2280 C.ar  801  BNI801      0.0254
     20  C22       26.0100    1.0520   17.3280 C.ar  801  BNI801      0.1430
     21  C23       27.1090    0.1800   17.0620 C.ar  801  BNI801      0.0254
     22  C24       27.1610   -1.1000   17.6680 C.ar  801  BNI801      0.0183
     23  N25       25.9630    2.4120   16.6770 N.pl3 801  BNI801      0.0577
     24  O26       25.0540    3.1610   16.8890 O.2   801  BNI801     -0.1261
     25  O27       26.8370    2.7770   15.9420 O.2   801  BNI801     -0.1261
@<TRIPOS>BOND
     1    13     9    1
     2    13    10    2
     3     9     8    1
     4     9     7    1
     5    12    10    2
     6    10    14    2
     7     8    14    1
     8     8     6    1
     9     7    15    1
    10    25    23    2
    11     6    15    1
    12     6     5    1
    13    23    24    2
    14    23    20    1
    15    21    20   ar
    16    21    22   ar
    17    20    19   ar
    18     5     4    1
    19    22    17   ar
    20    19    18   ar
    21     4     3    1
    22    17    18   ar
    23    17    16    1
    24    16     1   am
    25     3     2    1
    26     1     2    1
    27     1    11    2
