@<TRIPOS>MOLECULE
1rxk_BNI_A_1.pdb
 25 27 0 0 0
SMALL
GASTEIGER

@<TRIPOS>ATOM
      1  C1        31.0390   12.5350    8.3170 C.2   501  BNI501      0.2456
      2  C10       29.7940   13.2930    8.7990 C.3   501  BNI501      0.0872
      3  C9        30.0760   14.6780    9.3850 C.3   501  BNI501      0.0097
      4  C8        30.8110   14.6290   10.7090 C.3   501  BNI501      0.0014
      5  C7        31.0380   16.0340   11.2460 C.3   501  BNI501      0.0129
      6  C2        31.9950   16.0800   12.4870 C.3   501  BNI501      0.0729
      7  C6        32.5840   15.9960   14.9510 C.3   501  BNI501      0.0848
      8  C4        32.4600   17.5040   12.9410 C.3   501  BNI501      0.1500
      9  C5        32.8290   17.4000   14.4360 C.3   501  BNI501      0.1509
     10  C3        31.2250   19.0160   14.1620 C.1   501  BNI501      0.2386
     11  O2        31.1900   11.3050    8.4860 O.2   501  BNI501     -0.2730
     12  O3        30.4110   19.9330   14.4480 O.2   501  BNI501     -0.2023
     13  N1        31.9880   18.4100   15.0630 N.2   501  BNI501     -0.1859
     14  N2        31.4110   18.5330   12.9290 N.2   501  BNI501     -0.1860
     15  S1        31.1470   15.4220   13.9900 S.3   501  BNI501     -0.1369
     16  N17       31.9490   13.2590    7.6610 N.am  501  BNI501     -0.1792
     17  C18       33.1620   12.9240    7.1110 C.ar  501  BNI501      0.0735
     18  C20       33.9790   11.8490    7.5940 C.ar  501  BNI501      0.0183
     19  C21       35.2390   11.5780    6.9370 C.ar  501  BNI501      0.0254
     20  C22       35.6670   12.3910    5.7870 C.ar  501  BNI501      0.1430
     21  C23       34.8290   13.4610    5.3090 C.ar  501  BNI501      0.0254
     22  C24       33.5870   13.7330    5.9640 C.ar  501  BNI501      0.0183
     23  N25       36.9970   12.0960    5.0940 N.pl3 501  BNI501      0.0577
     24  O26       37.7260   11.2190    5.4550 O.2   501  BNI501     -0.1261
     25  O27       37.3780   12.7370    4.1590 O.2   501  BNI501     -0.1261
@<TRIPOS>BOND
     1    25    23    2
     2    23    24    2
     3    23    20    1
     4    21    20   ar
     5    21    22   ar
     6    20    19   ar
     7    22    17   ar
     8    19    18   ar
     9    17    18   ar
    10    17    16    1
    11    16     1   am
    12     1    11    2
    13     1     2    1
    14     2     3    1
    15     3     4    1
    16     4     5    1
    17     5     6    1
    18     6     8    1
    19     6    15    1
    20    14     8    1
    21    14    10    2
    22     8     9    1
    23    15     7    1
    24    10    12    2
    25    10    13    2
    26     9     7    1
    27     9    13    1
