@<TRIPOS>MOLECULE
1rxo_RUB_B_1.pdb
 18 17 0 0 0
SMALL
GASTEIGER

@<TRIPOS>ATOM
      1  C1        -4.4380   75.2680   30.1300 C.3   476  RUB476      0.2203
      2  C2        -4.6580   74.4170   31.3860 C.2   476  RUB476      0.2137
      3  C3        -3.4240   74.3110   32.3710 C.3   476  RUB476      0.2438
      4  C4        -3.0790   75.6100   33.0990 C.3   476  RUB476      0.2194
      5  C5        -1.9320   75.4410   34.1140 C.3   476  RUB476      0.1896
      6  O1        -5.4180   75.2360   29.0570 O.3   476  RUB476     -0.2621
      7  O2        -5.7290   73.8060   31.5810 O.2   476  RUB476     -0.2906
      8  O3        -3.6890   73.3540   33.3330 O.3   476  RUB476     -0.2122
      9  O4        -2.7100   76.5840   32.1800 O.3   476  RUB476     -0.2172
     10  O5        -1.7550   76.4390   35.1340 O.3   476  RUB476     -0.2674
     11  P1        -5.2320   76.1630   27.7600 P.3   476  RUB476      0.5330
     12  P2        -0.2850   76.8050   35.7560 P.3   476  RUB476      0.5327
     13  O1P       -6.4350   76.0600   26.9350 O.2   476  RUB476     -0.2224
     14  O2P       -4.0350   75.4190   26.9930 O.3   476  RUB476     -0.1145
     15  O3P       -4.7550   77.4760   28.1830 O.3   476  RUB476     -0.1145
     16  O4P       -0.4210   78.1080   36.5080 O.3   476  RUB476     -0.1145
     17  O5P        0.5980   77.0500   34.4620 O.2   476  RUB476     -0.2224
     18  O6P        0.2550   75.5980   36.4410 O.3   476  RUB476     -0.1145
@<TRIPOS>BOND
     1    13    11    2
     2    14    11    1
     3    11    15    1
     4    11     6    1
     5     6     1    1
     6     1     2    1
     7     2     7    2
     8     2     3    1
     9     9     4    1
    10     3     4    1
    11     3     8    1
    12     4     5    1
    13     5    10    1
    14    17    12    2
    15    10    12    1
    16    12    18    1
    17    12    16    1
