@<TRIPOS>MOLECULE
1rxp_169_A_1.pdb
 30 30 0 0 0
SMALL
GASTEIGER

@<TRIPOS>ATOM
      1  C1        -0.0580   21.7020   30.4130 C.3   991  169991      0.0218
      2  C2         0.7520   21.4590   29.1230 C.3   991  169991      0.0803
      3  C3         1.3380   22.8030   28.6460 C.3   991  169991      0.0218
      4  C4         1.9140   20.4920   29.4290 C.3   991  169991      0.0218
      5  N1        -0.7800   18.7820   27.1110 N.am  991  169991     -0.2594
      6  C5        -1.9520   18.5330   26.1750 C.3   991  169991      0.1166
      7  C6        -1.7320   19.3560   24.8910 C.3   991  169991      0.1166
      8  C7         0.6210   18.5060   26.5600 C.3   991  169991      0.1166
      9  C8         0.8190   19.2190   25.2040 C.3   991  169991      0.1166
     10  C9        -0.3200   17.8640   23.3350 C.2   991  169991      0.3238
     11  O1         0.3170   16.8710   23.5740 O.2   991  169991     -0.2508
     12  N2        -0.3900   18.9840   24.3160 N.am  991  169991     -0.2593
     13  C10       -1.1460   16.1930   20.4830 C.3   991  169991      0.1176
     14  C11       -0.9680   15.1650   21.5720 C.2   991  169991      0.2136
     15  N3        -1.0250   18.0520   22.1610 N.am  991  169991     -0.1778
     16  C12       -0.4520   17.5140   20.9210 C.3   991  169991      0.2106
     17  O2        -1.8680   14.8670   22.3280 O.2   991  169991     -0.2879
     18  C13       -0.6830   15.5500   19.1450 C.2   991  169991     -0.0174
     19  C14       -1.2950   14.1690   18.7860 C.2   991  169991      0.0162
     20  C15       -0.9520   13.6370   17.3850 C.3   991  169991      0.2464
     21  N4        -1.8020   14.1970   16.3760 N.pl3 991  169991     -0.0815
     22  C16       -2.0120   13.5910   15.2660 C.cat 991  169991      0.5349
     23  N5        -2.6570   14.1180   14.1700 N.pl3 991  169991      0.1354
     24  N6        -1.6300   12.2950   14.9500 N.pl3 991  169991      0.1354
     25  C17       -0.6400   18.5270   19.8500 C.2   991  169991      0.3850
     26  O3        -1.6830   19.0990   19.6510 O.co2 991  169991     -0.2437
     27  O4         0.4570   18.7500   19.0970 O.co2 991  169991     -0.2437
     28  C18       -0.9530   19.8050   28.2040 C.2   991  169991      0.3232
     29  O5        -1.7580   19.6610   29.0960 O.2   991  169991     -0.2508
     30  N7        -0.1210   20.8820   28.0640 N.am  991  169991     -0.1919
@<TRIPOS>BOND
     1    23    22    1
     2    24    22    1
     3    22    21    2
     4    21    20    1
     5    20    19    1
     6    19    18    2
     7    27    25   ar
     8    18    13    1
     9    26    25   ar
    10    25    16    1
    11    13    16    1
    12    13    14    1
    13    16    15    1
    14    14    17    2
    15    15    10   am
    16    10    11    2
    17    10    12   am
    18    12     7    1
    19    12     9    1
    20     7     6    1
    21     9     8    1
    22     6     5    1
    23     8     5    1
    24     5    28   am
    25    30    28   am
    26    30     2    1
    27    28    29    2
    28     3     2    1
    29     2     4    1
    30     2     1    1
