@<TRIPOS>MOLECULE
1rxs_DUR_a_1.pdb
 16 17 0 0 0
SMALL
GASTEIGER

@<TRIPOS>ATOM
      1  N1        -6.1780  -12.6510   37.1180 N.am  3012  DUR3012    -0.1790
      2  C2        -4.7850  -12.8040   37.2270 C.1   3012  DUR3012     0.2844
      3  N3        -4.1720  -14.0830   37.2020 N.2   3012  DUR3012    -0.2452
      4  C4        -4.8140  -15.3420   37.0710 C.1   3012  DUR3012     0.2182
      5  C5        -6.2730  -15.1760   36.9680 C.2   3012  DUR3012     0.1242
      6  C6        -6.8720  -13.8330   37.0050 C.2   3012  DUR3012     0.0928
      7  O2        -4.0530  -11.8510   37.3660 O.2   3012  DUR3012    -0.1918
      8  O4        -4.1780  -16.3900   37.0510 O.2   3012  DUR3012    -0.2085
      9  C1'       -6.8010  -11.2960   37.1600 C.3   3012  DUR3012     0.2090
     10  C2'       -6.7900   -9.7970   37.7680 C.3   3012  DUR3012     0.0874
     11  C3'       -6.8650   -8.8660   36.4990 C.3   3012  DUR3012     0.1858
     12  C4'       -7.3970   -9.8150   35.4450 C.3   3012  DUR3012     0.1802
     13  O3'       -7.7920   -7.7620   36.5080 O.3   3012  DUR3012    -0.2203
     14  O4'       -7.8150  -11.0250   36.1740 O.3   3012  DUR3012    -0.3338
     15  C5'       -6.4830  -10.2960   34.3620 C.3   3012  DUR3012     0.2141
     16  O5'       -6.8980  -11.5990   33.9360 O.3   3012  DUR3012    -0.2176
@<TRIPOS>BOND
     1    16    15    1
     2    15    12    1
     3    12    14    1
     4    12    11    1
     5    14     9    1
     6    11    13    1
     7    11    10    1
     8     5     6    2
     9     5     4    1
    10     6     1    1
    11     8     4    2
    12     4     3    2
    13     1     9    1
    14     1     2   am
    15     9    10    1
    16     3     2    2
    17     2     7    2
