@<TRIPOS>MOLECULE
1rxs_V7O_A_1.pdb
 11 9 0 0 0
SMALL
GASTEIGER

@<TRIPOS>ATOM
      1  V5        15.1840    8.5950   44.0620 V     5011  V7O5011     0.0000
      2  V6        15.7360    7.5470   47.1090 V     5011  V7O5011     0.0000
      3  V7        18.1180    7.2780   44.8490 V     5011  V7O5011     0.0000
      4  O12       13.4750    8.5050   44.9250 O.3   5011  V7O5011     0.0000
      5  O13       15.2750    7.4880   42.4990 O.3   5011  V7O5011     0.0000
      6  O14       16.3790    7.8620   45.3480 O.3   5011  V7O5011     0.0000
      7  O15       14.3340    8.8050   47.4570 O.3   5011  V7O5011     0.0000
      8  O16       17.2640    7.7590   48.2320 O.3   5011  V7O5011     0.0000
      9  O17       19.4540    8.4530   45.5250 O.3   5011  V7O5011     0.0000
     10  O18       18.2250    7.2420   42.9220 O.3   5011  V7O5011     0.0000
     11  O19       18.3610    5.5280   45.5880 O.3   5011  V7O5011     0.0000
@<TRIPOS>BOND
     1     5     1    1
     2    10     3    1
     3     1     4    1
     4     3     6    1
     5     3     9    1
     6     3    11    1
     7     6     2    1
     8     2     7    1
     9     2     8    1
