@<TRIPOS>MOLECULE
1rxu_THM_A_1.pdb
 17 18 0 0 0
SMALL
GASTEIGER

@<TRIPOS>ATOM
      1  O5'       -8.0350  -12.2770   52.7020 O.3   2012  THM2012    -0.2176
      2  C5'       -8.3850  -10.9280   52.9920 C.3   2012  THM2012     0.2141
      3  C4'       -7.2370  -10.1770   53.6620 C.3   2012  THM2012     0.1802
      4  O4'       -6.2330  -11.1030   54.0910 O.3   2012  THM2012    -0.3338
      5  C3'       -6.5080   -9.1340   52.8390 C.3   2012  THM2012     0.1858
      6  O3'       -6.9880   -7.9050   53.3510 O.3   2012  THM2012    -0.2203
      7  C2'       -5.0610   -9.4810   53.1330 C.3   2012  THM2012     0.0874
      8  C1'       -5.1370  -10.9960   53.1860 C.3   2012  THM2012     0.2090
      9  N1        -4.7130  -12.2830   52.6320 N.am  2012  THM2012    -0.1794
     10  C2        -4.0400  -12.3560   51.3290 C.1   2012  THM2012     0.2844
     11  O2        -3.8480  -11.3590   50.6440 O.2   2012  THM2012    -0.1918
     12  N3        -3.6440  -13.6330   50.7860 N.2   2012  THM2012    -0.2455
     13  C4        -3.8980  -14.8500   51.5100 C.1   2012  THM2012     0.2134
     14  O4        -3.5300  -15.9630   51.1390 O.2   2012  THM2012    -0.2088
     15  C5        -4.5330  -14.6090   52.8490 C.2   2012  THM2012     0.0891
     16  C5M       -4.8400  -15.8130   53.7290 C.3   2012  THM2012     0.0462
     17  C6        -4.8890  -13.3710   53.2580 C.2   2012  THM2012     0.0877
@<TRIPOS>BOND
     1    11    10    2
     2    12    10    2
     3    12    13    2
     4    14    13    2
     5    10     9   am
     6    13    15    1
     7     9     8    1
     8     9    17    1
     9     1     2    1
    10     5     7    1
    11     5     6    1
    12     5     3    1
    13    15    17    2
    14    15    16    1
    15     2     3    1
    16     7     8    1
    17     8     4    1
    18     3     4    1
