@<TRIPOS>MOLECULE
1ry0_PG2_A_1.pdb
 25 25 0 0 0
SMALL
GASTEIGER

@<TRIPOS>ATOM
      1  C1        -0.2000  -16.1020    7.1040 C.2   2325  PG22325     0.3649
      2  C2         0.5180  -16.9240    8.1080 C.3   2325  PG22325     0.1144
      3  C3        -0.1730  -17.1590    9.4410 C.3   2325  PG22325     0.0165
      4  C4        -0.9260  -18.4820    9.5230 C.3   2325  PG22325     0.0263
      5  C5        -1.2840  -18.7450   10.9590 C.2   2325  PG22325    -0.0307
      6  C6        -2.0240  -19.7800   11.4290 C.2   2325  PG22325    -0.0306
      7  C7        -2.6800  -20.8940   10.8290 C.3   2325  PG22325     0.0290
      8  C8        -4.0030  -20.6160   10.1260 C.3   2325  PG22325     0.0462
      9  C9        -4.5450  -21.7270    9.2740 C.3   2325  PG22325     0.1603
     10  C10       -5.8330  -22.1690    9.7660 C.3   2325  PG22325     0.0977
     11  C11       -6.4400  -20.9090   10.2800 C.2   2325  PG22325     0.1569
     12  C12       -5.2350  -20.2310   11.0590 C.3   2325  PG22325     0.0821
     13  C13       -5.3840  -18.7960   11.2630 C.2   2325  PG22325    -0.0211
     14  C14       -5.4450  -18.1090   12.3600 C.2   2325  PG22325     0.0019
     15  C15       -5.5900  -16.6500   12.4180 C.3   2325  PG22325     0.1737
     16  C16       -6.1980  -16.1170   13.7760 C.3   2325  PG22325     0.0375
     17  C17       -5.2240  -16.0860   14.9170 C.3   2325  PG22325     0.0030
     18  C18       -5.8370  -15.1790   16.0750 C.3   2325  PG22325     0.0001
     19  C19       -5.6240  -15.6680   17.3990 C.3   2325  PG22325     0.0000
     20  C20       -4.5170  -14.8320   18.1710 C.3   2325  PG22325     0.0000
     21  O1        -0.2280  -14.9150    7.2450 O.co2 2325  PG22325    -0.2457
     22  O2        -0.8950  -16.7520    6.2870 O.co2 2325  PG22325    -0.2457
     23  O3        -3.6880  -22.8240    9.0570 O.3   2325  PG22325    -0.2227
     24  O4        -7.5760  -20.4890   10.1630 O.2   2325  PG22325    -0.2956
     25  O5        -6.4720  -16.2140   11.3620 O.3   2325  PG22325    -0.2183
@<TRIPOS>BOND
     1    22     1   ar
     2     1    21   ar
     3     1     2    1
     4     2     3    1
     5    23     9    1
     6     9    10    1
     7     9     8    1
     8     3     4    1
     9     4     5    1
    10    10    11    1
    11     8     7    1
    12     8    12    1
    13    24    11    2
    14    11    12    1
    15     7     6    1
    16     5     6    2
    17    12    13    1
    18    13    14    2
    19    25    15    1
    20    14    15    1
    21    15    16    1
    22    16    17    1
    23    17    18    1
    24    18    19    1
    25    19    20    1
