@<TRIPOS>MOLECULE
1ry0_NAP_A_1.pdb
 48 52 0 0 0
SMALL
GASTEIGER

@<TRIPOS>ATOM
      1  PA       -10.1430  -29.7310   15.0320 P.3   2324  NAP2324     0.2189
      2  O1A       -9.7920  -29.2100   16.3020 O.3   2324  NAP2324    -0.4371
      3  O2A      -11.5330  -30.0120   14.5440 O.2   2324  NAP2324    -0.5170
      4  O5B       -9.2960  -31.0320   14.7870 O.3   2324  NAP2324    -0.3112
      5  C5B       -9.6240  -32.2530   15.3800 C.3   2324  NAP2324     0.1813
      6  C4B       -8.4260  -33.1150   14.9110 C.3   2324  NAP2324     0.1820
      7  O4B       -8.7830  -34.3940   15.5170 O.3   2324  NAP2324    -0.3136
      8  C3B       -8.4000  -33.3750   13.3810 C.3   2324  NAP2324     0.2157
      9  O3B       -7.0870  -33.0500   12.9200 O.3   2324  NAP2324    -0.2175
     10  C2B       -8.7300  -34.8380   13.1870 C.3   2324  NAP2324     0.2314
     11  O2B       -7.7580  -35.6250   12.5400 O.3   2324  NAP2324    -0.2630
     12  C1B       -9.0020  -35.4250   14.5890 C.3   2324  NAP2324     0.3158
     13  N9A      -10.3620  -35.9010   14.6700 N.pl3 2324  NAP2324    -0.1439
     14  C8A      -11.5280  -35.4840   14.0600 C.3   2324  NAP2324     0.3377
     15  N7A      -12.5990  -36.1800   14.3980 N.2   2324  NAP2324    -0.2095
     16  C5A      -12.0890  -37.1190   15.2880 C.2   2324  NAP2324     0.2526
     17  C6A      -12.7440  -38.1420   15.9920 C.2   2324  NAP2324     0.4393
     18  N6A      -14.0530  -38.4410   15.9490 N.pl3 2324  NAP2324     0.2180
     19  N1A      -11.9520  -38.9440   16.8360 N.2   2324  NAP2324     0.0021
     20  C2A      -10.5720  -38.7230   16.9610 C.3   2324  NAP2324     0.5254
     21  N3A       -9.9020  -37.7180   16.2770 N.2   2324  NAP2324    -0.0055
     22  C4A      -10.7050  -36.9430   15.4560 C.2   2324  NAP2324     0.3518
     23  O3        -9.4370  -28.9320   13.8850 O.3   2324  NAP2324    -0.2703
     24  PN        -8.9920  -27.4600   13.6010 P.3   2324  NAP2324     0.2189
     25  O1N       -8.4570  -27.4120   12.2350 O.2   2324  NAP2324    -0.5170
     26  O2N       -8.0650  -27.0490   14.6900 O.3   2324  NAP2324    -0.4371
     27  O5D      -10.3210  -26.6350   13.6400 O.3   2324  NAP2324    -0.3112
     28  C5D      -11.4840  -27.1220   12.9410 C.3   2324  NAP2324     0.1813
     29  C4D      -11.8170  -26.2030   11.7990 C.3   2324  NAP2324     0.1799
     30  O4D      -12.2180  -24.8520   12.1870 O.3   2324  NAP2324    -0.3327
     31  C3D      -10.7480  -25.9930   10.6600 C.3   2324  NAP2324     0.2158
     32  O3D      -10.6570  -27.0670    9.7160 O.3   2324  NAP2324    -0.2175
     33  C2D      -11.1630  -24.6670   10.0670 C.3   2324  NAP2324     0.2309
     34  O2D      -12.2150  -24.8180    9.1200 O.3   2324  NAP2324    -0.2158
     35  C1D      -11.6240  -23.8860   11.2510 C.3   2324  NAP2324     0.2263
     36  N1N      -10.5930  -22.9960   11.9230 N.pl3 2324  NAP2324    -0.2787
     37  C2N      -10.7960  -21.5950   11.9400 C.3   2324  NAP2324     0.1244
     38  C3N       -9.8370  -20.7700   12.5190 C.2   2324  NAP2324     0.0544
     39  C7N      -10.0860  -19.2480   12.5170 C.2   2324  NAP2324     0.2818
     40  O7N       -9.2200  -18.5490   12.9900 O.2   2324  NAP2324    -0.2670
     41  N7N      -11.1760  -18.7430   12.0130 N.am  2324  NAP2324    -0.0839
     42  C4N       -8.6130  -21.3270   13.1090 C.2   2324  NAP2324     0.0033
     43  C5N       -8.4390  -22.7430   13.0860 C.2   2324  NAP2324     0.0157
     44  C6N       -9.4190  -23.6050   12.4950 C.2   2324  NAP2324     0.0633
     45  P2B       -8.1510  -36.5710   11.2790 P.3   2324  NAP2324     0.5328
     46  O1X       -8.2260  -35.6340   10.0670 O.2   2324  NAP2324    -0.2224
     47  O2X       -6.9930  -37.4990   11.2430 O.3   2324  NAP2324    -0.1145
     48  O3X       -9.4940  -37.1710   11.6040 O.3   2324  NAP2324    -0.1145
@<TRIPOS>BOND
     1    34    33    1
     2    32    31    1
     3    46    45    2
     4    33    31    1
     5    33    35    1
     6    31    29    1
     7    47    45    1
     8    35    36    1
     9    35    30    1
    10    45    48    1
    11    45    11    1
    12    29    30    1
    13    29    28    1
    14    36    37    1
    15    36    44    1
    16    37    38    1
    17    41    39   am
    18    25    24    2
    19    44    43    2
    20    39    38    1
    21    39    40    2
    22    38    42    2
    23    11    10    1
    24     9     8    1
    25    28    27    1
    26    43    42    1
    27    10     8    1
    28    10    12    1
    29     8     6    1
    30    24    27    1
    31    24    23    1
    32    24    26    1
    33    23     1    1
    34    14    15    1
    35    14    13    1
    36    15    16    2
    37     3     1    2
    38    12    13    1
    39    12     7    1
    40    13    22    1
    41     4     1    1
    42     4     5    1
    43     6     5    1
    44     6     7    1
    45     1     2    1
    46    16    22    1
    47    16    17    1
    48    22    21    2
    49    18    17    1
    50    17    19    2
    51    21    20    1
    52    19    20    1
