@<TRIPOS>MOLECULE
1ry2_AMP_A_1.pdb
 23 25 0 0 0
SMALL
GASTEIGER

@<TRIPOS>ATOM
      1  P         93.1760   31.8950   -5.0810 P.3   720  AMP720      0.5327
      2  O1P       92.4060   31.2350   -3.9030 O.3   720  AMP720     -0.1145
      3  O2P       92.5120   31.5620   -6.3640 O.2   720  AMP720     -0.2224
      4  O3P       94.6390   31.3810   -5.0920 O.3   720  AMP720     -0.1145
      5  O5'       93.2100   33.4780   -4.8730 O.3   720  AMP720     -0.2675
      6  C5'       93.7850   34.0320   -3.7180 C.3   720  AMP720      0.1860
      7  C4'       93.7570   35.5350   -3.8010 C.3   720  AMP720      0.1823
      8  O4'       92.4780   36.0650   -3.4520 O.3   720  AMP720     -0.3135
      9  C3'       94.7910   36.1930   -2.9090 C.3   720  AMP720      0.2184
     10  O3'       95.8280   36.7950   -3.6550 O.3   720  AMP720     -0.2174
     11  C2'       94.0160   37.1690   -2.0440 C.3   720  AMP720      0.2570
     12  O2'       94.4440   38.4910   -2.2080 O.3   720  AMP720     -0.2130
     13  C1'       92.5530   37.0430   -2.4200 C.3   720  AMP720      0.3186
     14  N9        91.6990   36.6530   -1.2520 N.pl3 720  AMP720     -0.1439
     15  C8        91.3650   35.3810   -0.8450 C.3   720  AMP720      0.3377
     16  N7        90.5820   35.4410    0.2660 N.2   720  AMP720     -0.2095
     17  C5        90.4110   36.7420    0.5720 C.2   720  AMP720      0.2526
     18  C6        89.6980   37.3480    1.6160 C.2   720  AMP720      0.4393
     19  N6        89.0460   36.6050    2.5040 N.pl3 720  AMP720      0.2180
     20  N1        89.7030   38.7600    1.6820 N.2   720  AMP720      0.0021
     21  C2        90.3860   39.5390    0.7540 C.3   720  AMP720      0.5254
     22  N3        91.1000   38.9280   -0.2890 N.2   720  AMP720     -0.0055
     23  C4        91.1030   37.5330   -0.3670 C.2   720  AMP720      0.3518
@<TRIPOS>BOND
     1     3     1    2
     2     4     1    1
     3     1     5    1
     4     1     2    1
     5     5     6    1
     6     7     6    1
     7     7     8    1
     8     7     9    1
     9    10     9    1
    10     8    13    1
    11     9    11    1
    12    13    11    1
    13    13    14    1
    14    12    11    1
    15    14    15    1
    16    14    23    1
    17    15    16    1
    18    23    22    2
    19    23    17    1
    20    22    21    1
    21    16    17    2
    22    17    18    1
    23    21    20    1
    24    18    20    2
    25    18    19    1
