@<TRIPOS>MOLECULE
1ry5_U10_L_1.pdb
 24 24 0 0 0
SMALL
GASTEIGER

@<TRIPOS>ATOM
      1  C1        81.1510    6.7390   88.8220 C.2   859  U10859      0.0198
      2  C2        80.3640    6.9840   87.5770 C.2   859  U10859      0.2282
      3  C3        79.1430    6.1920   87.2560 C.2   859  U10859      0.2140
      4  C4        78.7770    5.2230   88.1650 C.2   859  U10859      0.2140
      5  C5        79.5250    4.9550   89.3990 C.2   859  U10859      0.2285
      6  C6        80.7630    5.7480   89.7370 C.2   859  U10859      0.0235
      7  C1M       82.3940    7.5960   89.0650 C.3   859  U10859      0.0343
      8  C3M       78.6410    6.2710   84.6590 C.3   859  U10859      0.2528
      9  C4M       77.7300    3.3260   86.9680 C.3   859  U10859      0.2528
     10  C7        81.4700    5.3710   91.0550 C.3   859  U10859      0.0548
     11  C8        81.2720    6.2420   92.1980 C.2   859  U10859     -0.0298
     12  C9        81.4040    5.9470   93.5580 C.2   859  U10859     -0.0475
     13  C10       81.8010    4.5740   94.1300 C.3   859  U10859      0.0260
     14  C11       81.1620    6.9970   94.6530 C.3   859  U10859      0.0264
     15  C12       82.4190    7.8500   94.8500 C.3   859  U10859      0.0297
     16  C13       82.4310    8.4570   96.2030 C.2   859  U10859     -0.0343
     17  C14       83.0580    9.6930   96.5270 C.2   859  U10859     -0.0482
     18  C15       83.8000   10.5080   95.4220 C.3   859  U10859      0.0260
     19  C16       83.1080   10.3670   97.8860 C.3   859  U10859      0.0217
     20  C17       81.8200   10.8730   98.5190 C.3   859  U10859      0.0047
     21  O2        80.6390    7.8250   86.7300 O.2   859  U10859     -0.2836
     22  O3        78.5230    6.5710   86.0010 O.2   859  U10859     -0.4652
     23  O4        77.5840    4.3990   87.9060 O.2   859  U10859     -0.4652
     24  O5        79.2180    4.0920   90.2260 O.2   859  U10859     -0.2835
@<TRIPOS>BOND
     1     8    22    1
     2    22     3    1
     3    21     2    2
     4     9    23    1
     5     3     2    1
     6     3     4    2
     7     2     1    1
     8    23     4    1
     9     4     5    1
    10     1     7    1
    11     1     6    2
    12     5     6    1
    13     5    24    2
    14     6    10    1
    15    10    11    1
    16    11    12    2
    17    12    13    1
    18    12    14    1
    19    14    15    1
    20    15    16    1
    21    18    17    1
    22    16    17    2
    23    17    19    1
    24    19    20    1
