@<TRIPOS>MOLECULE
1ry5_SPO_M_1.pdb
 42 41 0 0 0
SMALL
GASTEIGER

@<TRIPOS>ATOM
      1  CM1       97.1600    2.4210  115.5990 C.3   860  SPO860      0.1743
      2  O1        96.1410    3.3800  116.2970 O.3   860  SPO860     -0.3518
      3  C1        94.6040    3.1530  116.0800 C.3   860  SPO860      0.1114
      4  C2        93.5440    4.1870  116.4640 C.3   860  SPO860      0.0342
      5  C3        94.1630    1.9980  115.1400 C.3   860  SPO860      0.0342
      6  C4        94.7330    3.9950  114.7430 C.2   860  SPO860      0.0002
      7  C5        95.3590    5.3790  114.7760 C.2   860  SPO860     -0.0026
      8  C6        95.8930    6.0110  113.4620 C.2   860  SPO860     -0.0045
      9  C7        95.7650    7.3730  113.1280 C.2   860  SPO860     -0.0219
     10  C8        95.0790    8.4110  114.0700 C.3   860  SPO860      0.0310
     11  C9        96.3350    7.7220  111.8860 C.2   860  SPO860     -0.0043
     12  C10       96.2950    9.1350  111.3050 C.2   860  SPO860     -0.0006
     13  C11       96.9720    9.4270  109.9370 C.2   860  SPO860     -0.0043
     14  C12       96.9310   10.7140  109.3740 C.2   860  SPO860     -0.0222
     15  C13       96.1960   11.8820  110.0990 C.3   860  SPO860      0.0310
     16  C14       97.5840   10.8990  108.1330 C.2   860  SPO860     -0.0085
     17  C15       97.5450   12.2740  107.4950 C.2   860  SPO860     -0.0221
     18  C16       98.2270   12.6940  106.1770 C.3   860  SPO860      0.0476
     19  C17       98.0350   14.0430  105.7520 C.2   860  SPO860     -0.0438
     20  C18       97.1650   15.0120  106.5690 C.3   860  SPO860      0.0264
     21  C19       98.6290   14.5420  104.5820 C.2   860  SPO860     -0.0339
     22  C20       99.4900   13.7570  103.6970 C.3   860  SPO860      0.0300
     23  C21      100.4920   14.4170  102.8060 C.3   860  SPO860      0.0303
     24  C22      101.4530   13.4660  102.2800 C.2   860  SPO860     -0.0300
     25  C23      102.0690   13.4910  101.0440 C.2   860  SPO860     -0.0261
     26  C24      101.8970   14.6260  100.0020 C.3   860  SPO860      0.0307
     27  C25      102.9050   12.3920  100.8830 C.2   860  SPO860     -0.0046
     28  C26      103.6770   12.0740   99.6810 C.2   860  SPO860     -0.0010
     29  C27      104.5280   10.8320   99.7400 C.2   860  SPO860     -0.0085
     30  C28      105.2720   10.4040   98.6460 C.2   860  SPO860     -0.0436
     31  C29      105.3250   11.0900   97.2600 C.3   860  SPO860      0.0264
     32  C30      106.1430    9.1560   98.7220 C.3   860  SPO860      0.0267
     33  C31      107.4710    9.4880   99.3640 C.3   860  SPO860      0.0297
     34  C32      108.3130    8.3270   99.5550 C.2   860  SPO860     -0.0343
     35  C33      109.5870    8.2360  100.1180 C.2   860  SPO860     -0.0482
     36  C34      110.3560    9.4430  100.6960 C.3   860  SPO860      0.0260
     37  C35      110.3690    6.9060  100.2490 C.3   860  SPO860      0.0217
     38  C36      111.3020    6.6310   99.0670 C.3   860  SPO860      0.0043
     39  C37      110.7550    5.5820   98.1620 C.3   860  SPO860      0.0003
     40  C38      111.3750    4.5050   97.5150 C.3   860  SPO860      0.0000
     41  C39      112.4320    3.5860   98.1760 C.3   860  SPO860      0.0000
     42  C40      111.0830    4.0910   96.0530 C.3   860  SPO860      0.0000
@<TRIPOS>BOND
     1    42    40    1
     2    31    30    1
     3    40    39    1
     4    40    41    1
     5    39    38    1
     6    30    32    1
     7    30    29    2
     8    32    33    1
     9    38    37    1
    10    33    34    1
    11    34    35    2
    12    28    29    1
    13    28    27    2
    14    26    25    1
    15    35    37    1
    16    35    36    1
    17    27    25    1
    18    25    24    2
    19    24    23    1
    20    23    22    1
    21    22    21    1
    22    21    19    2
    23    19    18    1
    24    19    20    1
    25    18    17    1
    26    17    16    2
    27    16    14    1
    28    14    13    2
    29    14    15    1
    30    13    12    1
    31    12    11    2
    32    11     9    1
    33     9     8    2
    34     9    10    1
    35     8     7    1
    36     6     7    2
    37     6     3    1
    38     5     3    1
    39     1     2    1
    40     3     2    1
    41     3     4    1
