@<TRIPOS>MOLECULE
1ry8_NDP_A_1.pdb
 48 52 0 0 0
SMALL
GASTEIGER

@<TRIPOS>ATOM
      1  PA        -9.9330  -29.8140   15.0310 P.3   2324  NDP2324     0.2189
      2  O1A       -9.6170  -29.4160   16.3520 O.3   2324  NDP2324    -0.4371
      3  O2A      -11.3150  -29.9250   14.4460 O.2   2324  NDP2324    -0.5170
      4  O5B       -9.2040  -31.1570   14.7310 O.3   2324  NDP2324    -0.3112
      5  C5B       -9.5660  -32.3570   15.3090 C.3   2324  NDP2324     0.1813
      6  C4B       -8.3420  -33.1910   14.8680 C.3   2324  NDP2324     0.1820
      7  O4B       -8.7010  -34.4670   15.4460 O.3   2324  NDP2324    -0.3136
      8  C3B       -8.2680  -33.4210   13.3340 C.3   2324  NDP2324     0.2157
      9  O3B       -6.9350  -33.0870   12.9270 O.3   2324  NDP2324    -0.2175
     10  C2B       -8.5950  -34.8740   13.1100 C.3   2324  NDP2324     0.2314
     11  O2B       -7.6040  -35.6370   12.4650 O.3   2324  NDP2324    -0.2630
     12  C1B       -8.8890  -35.4790   14.5110 C.3   2324  NDP2324     0.3158
     13  N9A      -10.2390  -35.9670   14.5840 N.pl3 2324  NDP2324    -0.1439
     14  C8A      -11.3990  -35.6030   13.9370 C.3   2324  NDP2324     0.3377
     15  N7A      -12.4560  -36.3080   14.2860 N.2   2324  NDP2324    -0.2095
     16  C5A      -11.9420  -37.1910   15.2260 C.2   2324  NDP2324     0.2526
     17  C6A      -12.5840  -38.1960   15.9590 C.2   2324  NDP2324     0.4393
     18  N6A      -13.8820  -38.5320   15.9060 N.pl3 2324  NDP2324     0.2180
     19  N1A      -11.7960  -38.9360   16.8440 N.2   2324  NDP2324     0.0021
     20  C2A      -10.4240  -38.6760   16.9880 C.3   2324  NDP2324     0.5254
     21  N3A       -9.7650  -37.6900   16.2750 N.2   2324  NDP2324    -0.0055
     22  C4A      -10.5730  -36.9750   15.4090 C.2   2324  NDP2324     0.3518
     23  O3        -9.0020  -29.0680   14.0060 O.3   2324  NDP2324    -0.2703
     24  PN        -8.9100  -27.6190   13.4910 P.3   2324  NDP2324     0.2189
     25  O1N       -8.3530  -27.6260   12.1380 O.2   2324  NDP2324    -0.5170
     26  O2N       -8.1710  -26.8580   14.5260 O.3   2324  NDP2324    -0.4371
     27  O5D      -10.4510  -27.3890   13.4060 O.3   2324  NDP2324    -0.3112
     28  C5D      -11.0070  -26.1190   13.3850 C.3   2324  NDP2324     0.1813
     29  C4D      -11.5850  -25.9030   12.0180 C.3   2324  NDP2324     0.1799
     30  O4D      -12.0760  -24.5650   12.1550 O.3   2324  NDP2324    -0.3327
     31  C3D      -10.5580  -25.8380   10.8050 C.3   2324  NDP2324     0.2158
     32  O3D      -10.5060  -27.0050    9.9580 O.3   2324  NDP2324    -0.2175
     33  C2D      -10.9900  -24.5820   10.0720 C.3   2324  NDP2324     0.2309
     34  O2D      -12.0310  -24.8340    9.1420 O.3   2324  NDP2324    -0.2158
     35  C1D      -11.4750  -23.6980   11.1570 C.3   2324  NDP2324     0.2263
     36  N1N      -10.4540  -22.8230   11.8620 N.pl3 2324  NDP2324    -0.2787
     37  C2N      -10.6360  -21.4340   11.8870 C.3   2324  NDP2324     0.1244
     38  C3N       -9.6780  -20.6470   12.5050 C.2   2324  NDP2324     0.0544
     39  C7N       -9.8830  -19.1350   12.5000 C.2   2324  NDP2324     0.2818
     40  O7N       -9.0040  -18.4770   12.9920 O.2   2324  NDP2324    -0.2670
     41  N7N      -10.9390  -18.6030   11.9620 N.am  2324  NDP2324    -0.0839
     42  C4N       -8.4780  -21.2250   13.1310 C.2   2324  NDP2324     0.0033
     43  C5N       -8.3230  -22.6330   13.1020 C.2   2324  NDP2324     0.0157
     44  C6N       -9.2910  -23.4500   12.4730 C.2   2324  NDP2324     0.0633
     45  P2B       -7.9640  -36.5540   11.1760 P.3   2324  NDP2324     0.5328
     46  O1X       -8.0180  -35.5870    9.9910 O.2   2324  NDP2324    -0.2224
     47  O2X       -6.8020  -37.4760   11.1380 O.3   2324  NDP2324    -0.1145
     48  O3X       -9.3070  -37.1800   11.4550 O.3   2324  NDP2324    -0.1145
@<TRIPOS>BOND
     1    34    33    1
     2    32    31    1
     3    46    45    2
     4    33    31    1
     5    33    35    1
     6    31    29    1
     7    47    45    1
     8    35    36    1
     9    35    30    1
    10    45    48    1
    11    45    11    1
    12    36    37    1
    13    36    44    1
    14    37    38    1
    15    41    39   am
    16    29    30    1
    17    29    28    1
    18    25    24    2
    19    11    10    1
    20    44    43    2
    21    39    38    1
    22    39    40    2
    23    38    42    2
    24     9     8    1
    25    43    42    1
    26    10     8    1
    27    10    12    1
    28     8     6    1
    29    28    27    1
    30    27    24    1
    31    24    23    1
    32    24    26    1
    33    14    15    1
    34    14    13    1
    35    23     1    1
    36    15    16    2
    37     3     1    2
    38    12    13    1
    39    12     7    1
    40    13    22    1
    41     4     1    1
    42     4     5    1
    43     6     5    1
    44     6     7    1
    45     1     2    1
    46    16    22    1
    47    16    17    1
    48    22    21    2
    49    18    17    1
    50    17    19    2
    51    21    20    1
    52    19    20    1
