@<TRIPOS>MOLECULE
1ry8_RUT_A_1.pdb
 43 47 0 0 0
SMALL
GASTEIGER

@<TRIPOS>ATOM
      1  O1        -3.2020  -23.8260   10.3510 O.2   2325  RUT2325    -0.4500
      2  C1        -3.0610  -22.5230    9.8160 C.ar  2325  RUT2325     0.1823
      3  C2        -1.8560  -22.0960    9.2610 C.ar  2325  RUT2325     0.2144
      4  O2        -1.7320  -20.8220    8.7270 O.3   2325  RUT2325    -0.4440
      5  C3        -0.6860  -23.0630    9.2190 C.ar  2325  RUT2325     0.2384
      6  O3         0.4240  -22.7210    8.7050 O.2   2325  RUT2325    -0.2830
      7  C4         0.1120  -25.5330    9.8150 C.ar  2325  RUT2325     0.2050
      8  O4         1.3400  -25.2090    9.2540 O.3   2325  RUT2325    -0.2862
      9  C5        -0.1670  -26.7910   10.3530 C.ar  2325  RUT2325     0.0843
     10  C6        -1.5160  -27.0090   10.9110 C.ar  2325  RUT2325     0.2020
     11  O5        -1.8320  -28.2350   11.4500 O.3   2325  RUT2325    -0.2864
     12  C7        -2.6080  -26.0740   10.9670 C.ar  2325  RUT2325     0.0798
     13  C8        -2.1800  -24.7900   10.3590 C.ar  2325  RUT2325     0.1549
     14  C9        -0.9070  -24.4300    9.7860 C.ar  2325  RUT2325     0.1156
     15  C10       -4.4180  -21.8330    9.9570 C.ar  2325  RUT2325     0.0411
     16  C11       -5.5190  -22.6370    9.8500 C.ar  2325  RUT2325     0.0485
     17  C12       -6.7870  -22.0930    9.9030 C.ar  2325  RUT2325     0.2344
     18  O6        -7.8610  -22.8810    9.8010 O.3   2325  RUT2325    -0.2831
     19  C13       -6.9750  -20.7240   10.0620 C.ar  2325  RUT2325     0.2343
     20  O7        -8.2450  -20.2370   10.0880 O.3   2325  RUT2325    -0.2831
     21  C14       -5.9040  -19.8870   10.1780 C.ar  2325  RUT2325     0.0455
     22  C15       -4.5440  -20.3330   10.1410 C.ar  2325  RUT2325     0.0066
     23  C16       -0.9720  -19.8280    9.5140 C.3   2325  RUT2325     0.3220
     24  C17       -0.0890  -19.0260    8.5200 C.3   2325  RUT2325     0.2542
     25  O8         0.8120  -19.9680    7.8560 O.3   2325  RUT2325    -0.2135
     26  C18        0.6940  -17.9150    9.4050 C.3   2325  RUT2325     0.2211
     27  O9         1.5260  -17.1720    8.5380 O.3   2325  RUT2325    -0.2173
     28  C19       -0.3200  -17.0700   10.0520 C.3   2325  RUT2325     0.2144
     29  O10        0.2940  -16.0610   10.8350 O.3   2325  RUT2325    -0.2176
     30  C20       -1.2850  -17.9170   11.0120 C.3   2325  RUT2325     0.1813
     31  C21       -2.3590  -17.0860   11.7020 C.3   2325  RUT2325     0.1771
     32  O11       -1.9240  -18.9650   10.2010 O.3   2325  RUT2325    -0.3158
     33  C22       -4.4720  -17.4070   12.8420 C.3   2325  RUT2325     0.2695
     34  O12       -3.1990  -18.0000   12.5050 O.3   2325  RUT2325    -0.3259
     35  C23       -5.3430  -18.4590   13.6250 C.3   2325  RUT2325     0.2406
     36  O13       -6.5950  -17.8190   13.8790 O.3   2325  RUT2325    -0.2149
     37  C24       -4.7460  -18.8410   15.0060 C.3   2325  RUT2325     0.2197
     38  O14       -5.5750  -19.8070   15.6770 O.3   2325  RUT2325    -0.2174
     39  C25       -4.5650  -17.5400   15.8930 C.3   2325  RUT2325     0.2118
     40  O15       -4.0260  -17.8790   17.1550 O.3   2325  RUT2325    -0.2177
     41  C26       -3.6320  -16.5480   15.0370 C.3   2325  RUT2325     0.1508
     42  C27       -3.4540  -15.2020   15.8700 C.3   2325  RUT2325     0.0350
     43  O16       -4.2720  -16.2350   13.7210 O.3   2325  RUT2325    -0.3284
@<TRIPOS>BOND
     1    25    24    1
     2    24    26    1
     3    24    23    1
     4    27    26    1
     5     6     5    2
     6     4     3    1
     7     4    23    1
     8     5     3   ar
     9     5    14   ar
    10     8     7    1
    11     3     2   ar
    12    26    28    1
    13    23    32    1
    14    14     7   ar
    15    14    13   ar
    16    18    17    1
    17     7     9   ar
    18     2    15    1
    19     2     1   ar
    20    16    17   ar
    21    16    15   ar
    22    17    19   ar
    23    15    22   ar
    24    28    29    1
    25    28    30    1
    26    19    20    1
    27    19    21   ar
    28    22    21   ar
    29    32    30    1
    30     1    13   ar
    31     9    10   ar
    32    13    12   ar
    33    10    12   ar
    34    10    11    1
    35    30    31    1
    36    31    34    1
    37    34    33    1
    38    33    35    1
    39    33    43    1
    40    35    36    1
    41    35    37    1
    42    43    41    1
    43    37    38    1
    44    37    39    1
    45    41    42    1
    46    41    39    1
    47    39    40    1
