@<TRIPOS>MOLECULE
1rya_GDP_A_1.pdb
 28 30 0 0 0
SMALL
GASTEIGER

@<TRIPOS>ATOM
      1  PB        31.1260   27.8770   47.9700 P.3   770  GDP770      0.5373
      2  O1B       32.0860   26.7960   48.3000 O.3   770  GDP770     -0.1143
      3  O2B       31.3110   28.3720   46.5480 O.2   770  GDP770     -0.2221
      4  O3B       31.1650   28.9670   49.0140 O.3   770  GDP770     -0.1143
      5  O3A       29.7130   27.1070   48.0460 O.3   770  GDP770     -0.2261
      6  PA        28.2620   27.4240   48.6240 P.3   770  GDP770      0.2231
      7  O1A       27.2930   27.5690   47.5180 O.2   770  GDP770     -0.5169
      8  O2A       28.3760   28.5400   49.6300 O.3   770  GDP770     -0.4370
      9  O5'       27.9030   26.0240   49.2850 O.3   770  GDP770     -0.3111
     10  C5'       28.4040   25.5990   50.5460 C.3   770  GDP770      0.1813
     11  C4'       28.8910   24.1540   50.4880 C.3   770  GDP770      0.1799
     12  O4'       27.9060   23.3440   49.8540 O.3   770  GDP770     -0.3326
     13  C3'       30.1460   23.9300   49.6680 C.3   770  GDP770      0.2158
     14  O3'       30.8940   22.8620   50.2540 O.3   770  GDP770     -0.2175
     15  C2'       29.6300   23.5340   48.2890 C.3   770  GDP770      0.2310
     16  O2'       30.4920   22.7070   47.5450 O.3   770  GDP770     -0.2158
     17  C1'       28.4070   22.7540   48.6630 C.3   770  GDP770      0.2293
     18  N9        27.3130   22.7830   47.6830 N.pl3 770  GDP770     -0.2354
     19  C8        26.7350   23.8710   47.0780 C.3   770  GDP770      0.2246
     20  N7        25.7000   23.4380   46.3200 N.2   770  GDP770     -0.2322
     21  C5        25.6210   22.0890   46.4410 C.2   770  GDP770      0.2182
     22  C6        24.7460   21.1400   45.9300 C.1   770  GDP770      0.2372
     23  O6        23.7000   21.3980   45.3100 O.2   770  GDP770     -0.2069
     24  N1        24.9700   19.8400   46.2990 N.2   770  GDP770     -0.2485
     25  C2        25.9860   19.4620   47.1420 C.1   770  GDP770      0.2531
     26  N2        26.1390   18.1600   47.3950 N.pl3 770  GDP770     -0.0226
     27  N3        26.8330   20.3850   47.6700 N.2   770  GDP770     -0.3074
     28  C4        26.6190   21.6720   47.3160 C.2   770  GDP770      0.2300
@<TRIPOS>BOND
     1    23    22    2
     2    22    24    2
     3    22    21    1
     4    24    25    2
     5    20    21    2
     6    20    19    1
     7    21    28    1
     8     3     1    2
     9    19    18    1
    10    25    26    1
    11    25    27    2
    12    28    27    2
    13    28    18    1
    14     7     6    2
    15    16    15    1
    16    18    17    1
    17     1     5    1
    18     1     2    1
    19     1     4    1
    20     5     6    1
    21    15    17    1
    22    15    13    1
    23     6     9    1
    24     6     8    1
    25    17    12    1
    26     9    10    1
    27    13    14    1
    28    13    11    1
    29    12    11    1
    30    11    10    1
