@<TRIPOS>MOLECULE
1ryc_HEM_A_1.pdb
 43 50 0 0 0
SMALL
GASTEIGER

@<TRIPOS>ATOM
      1 FE         28.1730   94.0610   52.9350 Fe    295  HEM295      0.0000
      2  CHA       27.9790   96.1070   50.2610 C.2   295  HEM295      0.0000
      3  CHB       30.5140   96.0110   54.3200 C.2   295  HEM295      0.0000
      4  CHC       28.3890   91.8920   55.5800 C.2   295  HEM295      0.0000
      5  CHD       25.6800   92.1720   51.6440 C.2   295  HEM295      0.0000
      6  NA        29.2140   95.7160   52.3060 N.2   295  HEM295      0.0000
      7  C1A       28.9100   96.4670   51.2490 C.2   295  HEM295      0.0000
      8  C2A       29.6250   97.6580   51.2610 C.2   295  HEM295      0.0000
      9  C3A       30.3720   97.6320   52.4350 C.2   295  HEM295      0.0000
     10  C4A       30.0490   96.4320   53.0590 C.2   295  HEM295      0.0000
     11  CMA       31.3820   98.6600   52.9100 C.3   295  HEM295      0.0000
     12  CAA       29.5810   98.7410   50.1840 C.3   295  HEM295      0.0000
     13  CBA       28.4430   99.7650   50.3520 C.3   295  HEM295      0.0000
     14  CGA       28.4500  100.8190   49.2640 C.2   295  HEM295      0.0000
     15  O1A       29.4150  101.5530   49.1010 O.co2 295  HEM295      0.0000
     16  O2A       27.5060  100.9440   48.5130 O.co2 295  HEM295      0.0000
     17  NB        29.2610   93.9650   54.6880 N.ar  295  HEM295      0.0000
     18  C1B       30.1890   94.8620   55.0660 C.ar  295  HEM295      0.0000
     19  C2B       30.8040   94.4870   56.2480 C.ar  295  HEM295      0.0000
     20  C3B       30.2460   93.2370   56.5640 C.ar  295  HEM295      0.0000
     21  C4B       29.2660   92.9970   55.6110 C.ar  295  HEM295      0.0000
     22  CMB       31.9040   95.3070   56.9390 C.3   295  HEM295      0.0000
     23  CAB       30.5750   92.3210   57.5640 C.3   295  HEM295      0.0000
     24  CBB       31.6890   92.3950   58.4940 C.3   295  HEM295      0.0000
     25  NC        27.1230   92.3820   53.5500 N.2   295  HEM295      0.0000
     26  C1C       27.3770   91.6200   54.6350 C.2   295  HEM295      0.0000
     27  C2C       26.4890   90.5550   54.7350 C.2   295  HEM295      0.0000
     28  C3C       25.6340   90.7050   53.6350 C.2   295  HEM295      0.0000
     29  C4C       26.1360   91.7760   52.9010 C.2   295  HEM295      0.0000
     30  CMC       26.4240   89.6140   55.9430 C.3   295  HEM295      0.0000
     31  CAC       24.4740   90.0050   53.2600 C.3   295  HEM295      0.0000
     32  CBC       23.9410   88.7760   53.8170 C.3   295  HEM295      0.0000
     33  ND        26.9980   94.1440   51.2370 N.ar  295  HEM295      0.0000
     34  C1D       26.1060   93.2310   50.8480 C.ar  295  HEM295      0.0000
     35  C2D       25.6900   93.4510   49.5390 C.ar  295  HEM295      0.0000
     36  C3D       26.3570   94.6040   49.1280 C.ar  295  HEM295      0.0000
     37  C4D       27.1330   94.9940   50.2190 C.ar  295  HEM295      0.0000
     38  CMD       24.7230   92.5900   48.7220 C.3   295  HEM295      0.0000
     39  CAD       26.2810   95.2700   47.7630 C.3   295  HEM295      0.0000
     40  CBD       25.3060   96.4500   47.7340 C.3   295  HEM295      0.0000
     41  CGD       25.1740   97.1680   46.3800 C.2   295  HEM295      0.0000
     42  O1D       24.6400   98.2720   46.3210 O.co2 295  HEM295      0.0000
     43  O2D       25.5680   96.6350   45.3480 O.co2 295  HEM295      0.0000
@<TRIPOS>BOND
     1    43    41   ar
     2    42    41   ar
     3    41    40    1
     4    40    39    1
     5    39    36    1
     6    16    14   ar
     7    38    35    1
     8    15    14   ar
     9    36    35   ar
    10    36    37   ar
    11    14    13    1
    12    35    34   ar
    13    12    13    1
    14    12     8    1
    15    37     2    2
    16    37    33   ar
    17     2     7    1
    18    34    33   ar
    19    34     5    2
    20    33     1    1
    21     7     8    1
    22     7     6    2
    23     8     9    2
    24     5    29    1
    25     6     1    1
    26     6    10    1
    27     9    11    1
    28     9    10    1
    29    29    25    2
    30    29    28    1
    31     1    25    1
    32     1    17    1
    33    10     3    2
    34    31    28    1
    35    31    32    1
    36    25    26    1
    37    28    27    2
    38     3    18    1
    39    26    27    1
    40    26     4    2
    41    17    18   ar
    42    17    21   ar
    43    27    30    1
    44    18    19   ar
    45     4    21    1
    46    21    20   ar
    47    19    20   ar
    48    19    22    1
    49    20    23    1
    50    23    24    1
