@<TRIPOS>MOLECULE
1ryd_NDP_A_1.pdb
 48 52 0 0 0
SMALL
GASTEIGER

@<TRIPOS>ATOM
      1  PA        24.0450   34.3540   65.6660 P.3   700  NDP700      0.2189
      2  O1A       24.5130   35.8220   65.8460 O.3   700  NDP700     -0.4371
      3  O2A       22.5010   33.8280   65.7110 O.2   700  NDP700     -0.5170
      4  O5B       24.7070   33.7820   64.1920 O.3   700  NDP700     -0.3112
      5  C5B       24.1960   32.5550   63.6420 C.3   700  NDP700      0.1813
      6  C4B       24.4230   32.8030   62.1190 C.3   700  NDP700      0.1820
      7  O4B       24.2190   31.4610   61.5420 O.3   700  NDP700     -0.3136
      8  C3B       23.2760   33.5960   61.4520 C.3   700  NDP700      0.2157
      9  O3B       23.5670   34.9980   61.3560 O.3   700  NDP700     -0.2175
     10  C2B       23.1710   32.9910   60.0600 C.3   700  NDP700      0.2314
     11  O2B       24.0280   33.5660   59.0670 O.3   700  NDP700     -0.2630
     12  C1B       23.6180   31.5080   60.2800 C.3   700  NDP700      0.3158
     13  N9A       22.4920   30.6210   60.1390 N.pl3 700  NDP700     -0.1439
     14  C8A       22.1980   29.7560   59.1100 C.3   700  NDP700      0.3377
     15  N7A       21.0170   29.1750   59.2370 N.2   700  NDP700     -0.2095
     16  C5A       20.7240   29.3590   60.5840 C.2   700  NDP700      0.2526
     17  C6A       19.5880   28.9330   61.3070 C.2   700  NDP700      0.4393
     18  N6A       18.8490   27.8350   61.0620 N.pl3 700  NDP700      0.2180
     19  N1A       19.2360   29.6780   62.4540 N.2   700  NDP700      0.0021
     20  C2A       20.0960   30.6780   62.9530 C.3   700  NDP700      0.5254
     21  N3A       21.2240   31.1290   62.2650 N.2   700  NDP700     -0.0055
     22  C4A       21.5190   30.4120   61.0940 C.2   700  NDP700      0.3518
     23  O3        24.8710   33.3430   66.7200 O.3   700  NDP700     -0.2703
     24  PN        26.2800   33.5400   67.3290 P.3   700  NDP700      0.2189
     25  O1N       26.1290   34.0850   68.7070 O.3   700  NDP700     -0.4371
     26  O2N       27.0500   34.3270   66.3450 O.2   700  NDP700     -0.5170
     27  O5D       26.8120   32.0550   67.4820 O.3   700  NDP700     -0.3112
     28  C5D       27.1270   31.2310   66.3070 C.3   700  NDP700      0.1813
     29  C4D       28.0580   30.1220   66.7670 C.3   700  NDP700      0.1799
     30  O4D       29.2490   30.7150   67.3340 O.3   700  NDP700     -0.3327
     31  C3D       27.4900   29.1850   67.8840 C.3   700  NDP700      0.2158
     32  O3D       27.8990   27.8190   67.6680 O.3   700  NDP700     -0.2175
     33  C2D       28.1140   29.7470   69.1600 C.3   700  NDP700      0.2309
     34  O2D       28.3110   28.7640   70.1610 O.3   700  NDP700     -0.2158
     35  C1D       29.4490   30.1880   68.6800 C.3   700  NDP700      0.2263
     36  N1N       30.0680   31.3290   69.4140 N.pl3 700  NDP700     -0.2787
     37  C2N       31.3820   31.2590   69.9280 C.3   700  NDP700      0.1244
     38  C3N       31.7900   32.2320   70.8300 C.2   700  NDP700      0.0544
     39  C7N       33.2190   32.1680   71.3660 C.2   700  NDP700      0.2818
     40  O7N       33.5640   33.1040   72.0530 O.2   700  NDP700     -0.2670
     41  N7N       34.0920   31.3590   70.8170 N.am  700  NDP700     -0.0839
     42  C4N       30.8810   33.2890   71.2760 C.2   700  NDP700      0.0033
     43  C5N       29.6370   33.4230   70.6010 C.2   700  NDP700      0.0157
     44  C6N       29.2100   32.4620   69.6410 C.2   700  NDP700      0.0633
     45  P2B       23.4250   34.5290   57.8960 P.3   700  NDP700      0.5328
     46  O1X       22.8940   33.5930   56.8090 O.2   700  NDP700     -0.2224
     47  O2X       24.6670   35.2820   57.5030 O.3   700  NDP700     -0.1145
     48  O3X       22.2960   35.3390   58.5020 O.3   700  NDP700     -0.1145
@<TRIPOS>BOND
     1    46    45    2
     2    47    45    1
     3    45    48    1
     4    45    11    1
     5    11    10    1
     6    14    15    1
     7    14    13    1
     8    15    16    2
     9    10    12    1
    10    10     8    1
    11    13    12    1
    12    13    22    1
    13    12     7    1
    14    16    22    1
    15    16    17    1
    16    18    17    1
    17    22    21    2
    18    17    19    2
    19     9     8    1
    20     8     6    1
    21     7     6    1
    22     6     5    1
    23    21    20    1
    24    19    20    1
    25     5     4    1
    26     4     1    1
    27     1     3    2
    28     1     2    1
    29     1    23    1
    30    28    29    1
    31    28    27    1
    32    26    24    2
    33    23    24    1
    34    29    30    1
    35    29    31    1
    36    24    27    1
    37    24    25    1
    38    30    35    1
    39    32    31    1
    40    31    33    1
    41    35    33    1
    42    35    36    1
    43    33    34    1
    44    36    44    1
    45    36    37    1
    46    44    43    2
    47    37    38    1
    48    43    42    1
    49    41    39   am
    50    38    42    2
    51    38    39    1
    52    39    40    2
