@<TRIPOS>MOLECULE
1ryd_GLC_B_1.pdb
 11 11 0 0 0
SMALL
GASTEIGER

@<TRIPOS>ATOM
      1  C1        25.0010   16.4530   93.2530 C.3   601  GLC601      0.1777
      2  C2        26.4330   16.3380   93.8170 C.3   601  GLC601      0.2141
      3  C3        26.8810   17.7020   94.3080 C.3   601  GLC601      0.2173
      4  C4        26.8260   18.7130   93.1480 C.3   601  GLC601      0.2142
      5  C5        25.3640   18.7600   92.6400 C.3   601  GLC601      0.1810
      6  C6        25.0970   19.6880   91.5100 C.3   601  GLC601      0.2141
      7  O2        26.4050   15.3960   94.8680 O.3   601  GLC601     -0.2176
      8  O3        28.2200   17.5920   94.8370 O.3   601  GLC601     -0.2175
      9  O4        27.2240   20.0110   93.5980 O.3   601  GLC601     -0.2176
     10  O5        24.9700   17.4220   92.1920 O.3   601  GLC601     -0.3481
     11  O6        24.0280   20.5620   91.7790 O.3   601  GLC601     -0.2176
@<TRIPOS>BOND
     1     6    11    1
     2     6     5    1
     3    10     5    1
     4    10     1    1
     5     5     4    1
     6     4     9    1
     7     4     3    1
     8     1     2    1
     9     2     3    1
    10     2     7    1
    11     3     8    1
