@<TRIPOS>MOLECULE
1rye_NDP_A_1.pdb
 48 52 0 0 0
SMALL
GASTEIGER

@<TRIPOS>ATOM
      1  PA        19.5990   33.7920  -19.0400 P.3   500  NDP500      0.2189
      2  O1A       19.9410   32.2030  -18.9460 O.3   500  NDP500     -0.4371
      3  O2A       20.4010   35.0890  -19.4950 O.2   500  NDP500     -0.5170
      4  O5B       18.3720   33.8120  -20.3590 O.3   500  NDP500     -0.3112
      5  C5B       18.1840   35.1910  -20.8080 C.3   500  NDP500      0.1813
      6  C4B       17.4170   35.0450  -22.0580 C.3   500  NDP500      0.1820
      7  O4B       16.7640   36.2270  -22.4870 O.3   500  NDP500     -0.3136
      8  C3B       18.4650   34.7720  -23.1130 C.3   500  NDP500      0.2157
      9  O3B       19.0340   33.5170  -23.2830 O.3   500  NDP500     -0.2175
     10  C2B       17.9500   35.2660  -24.4050 C.3   500  NDP500      0.2314
     11  O2B       17.4650   34.1960  -25.1760 O.3   500  NDP500     -0.2630
     12  C1B       17.3360   36.4700  -23.7510 C.3   500  NDP500      0.3158
     13  N9A       17.7200   37.8520  -23.9930 N.pl3 500  NDP500     -0.1439
     14  C8A       17.2460   38.6710  -24.9560 C.3   500  NDP500      0.3377
     15  N7A       17.9560   39.8270  -24.8860 N.2   500  NDP500     -0.2095
     16  C5A       18.8580   39.7710  -23.8860 C.2   500  NDP500      0.2526
     17  C6A       19.7480   40.6110  -23.2810 C.2   500  NDP500      0.4393
     18  N6A       20.1000   41.8670  -23.6280 N.pl3 500  NDP500      0.2180
     19  N1A       20.4370   40.0480  -22.2500 N.2   500  NDP500      0.0021
     20  C2A       20.2620   38.8180  -21.7380 C.3   500  NDP500      0.5254
     21  N3A       19.3660   37.9970  -22.3400 N.2   500  NDP500     -0.0055
     22  C4A       18.6980   38.5100  -23.3590 C.2   500  NDP500      0.3518
     23  O3        18.5960   34.3850  -17.6860 O.3   500  NDP500     -0.2703
     24  PN        17.8370   33.3690  -16.7530 P.3   500  NDP500      0.2189
     25  O1N       18.5290   33.0710  -15.4570 O.3   500  NDP500     -0.4371
     26  O2N       17.1030   32.4860  -17.6760 O.2   500  NDP500     -0.5170
     27  O5D       16.8400   34.5630  -16.2680 O.3   500  NDP500     -0.3112
     28  C5D       15.7180   34.9290  -17.0420 C.3   500  NDP500      0.1813
     29  C4D       14.5830   35.4520  -16.1610 C.3   500  NDP500      0.1799
     30  O4D       14.1140   34.3450  -15.4340 O.3   500  NDP500     -0.3327
     31  C3D       14.8930   36.5110  -15.1000 C.3   500  NDP500      0.2158
     32  O3D       13.8080   37.4250  -14.9980 O.3   500  NDP500     -0.2175
     33  C2D       15.1460   35.7660  -13.8000 C.3   500  NDP500      0.2309
     34  O2D       15.1170   36.4900  -12.5630 O.3   500  NDP500     -0.2158
     35  C1D       14.1190   34.6760  -14.0440 C.3   500  NDP500      0.2263
     36  N1N       14.5260   33.4010  -13.4320 N.pl3 500  NDP500     -0.2787
     37  C2N       13.5640   32.9940  -12.5610 C.3   500  NDP500      0.1244
     38  C3N       13.8390   32.0000  -11.6330 C.2   500  NDP500      0.0544
     39  C7N       12.6370   31.6790  -10.7640 C.2   500  NDP500      0.2818
     40  O7N       12.7890   30.4570  -10.0660 O.2   500  NDP500     -0.2670
     41  N7N       11.5330   32.4540  -10.7140 N.am  500  NDP500     -0.0839
     42  C4N       15.2250   31.3460  -11.5770 C.2   500  NDP500      0.0033
     43  C5N       16.1940   31.8270  -12.6250 C.2   500  NDP500      0.0157
     44  C6N       15.7830   32.8260  -13.5130 C.2   500  NDP500      0.0633
     45  P2B       17.7850   34.2570  -26.6930 P.3   500  NDP500      0.5328
     46  O1X       17.3090   35.5690  -27.2570 O.2   500  NDP500     -0.2224
     47  O2X       17.0450   33.0230  -27.0300 O.3   500  NDP500     -0.1145
     48  O3X       19.2530   33.9680  -26.6390 O.3   500  NDP500     -0.1145
@<TRIPOS>BOND
     1    46    45    2
     2    47    45    1
     3    45    48    1
     4    45    11    1
     5    11    10    1
     6    14    15    1
     7    14    13    1
     8    15    16    2
     9    10    12    1
    10    10     8    1
    11    13    12    1
    12    13    22    1
    13    16    22    1
    14    16    17    1
    15    12     7    1
    16    18    17    1
    17    22    21    2
    18     9     8    1
    19    17    19    2
    20     8     6    1
    21     7     6    1
    22    21    20    1
    23    19    20    1
    24     6     5    1
    25     5     4    1
    26     4     1    1
    27     3     1    2
    28     1     2    1
    29     1    23    1
    30    23    24    1
    31    26    24    2
    32    28    27    1
    33    28    29    1
    34    24    27    1
    35    24    25    1
    36    29    30    1
    37    29    31    1
    38    30    35    1
    39    31    32    1
    40    31    33    1
    41    35    33    1
    42    35    36    1
    43    33    34    1
    44    44    36    1
    45    44    43    2
    46    36    37    1
    47    43    42    1
    48    37    38    1
    49    38    42    2
    50    38    39    1
    51    39    41   am
    52    39    40    2
