@<TRIPOS>MOLECULE
1ryf_GDP_A_1.pdb
 28 30 0 0 0
SMALL
GASTEIGER

@<TRIPOS>ATOM
      1  PB        -6.0300   71.8690   35.9780 P.3   538  GDP538      0.5373
      2  O1B       -6.4980   70.8830   37.0280 O.3   538  GDP538     -0.1143
      3  O2B       -5.4230   71.2010   34.7190 O.2   538  GDP538     -0.2221
      4  O3B       -7.0300   72.9560   35.6890 O.3   538  GDP538     -0.1143
      5  O3A       -4.7530   72.5760   36.7200 O.3   538  GDP538     -0.2261
      6  PA        -3.3350   72.9640   36.0270 P.3   538  GDP538      0.2231
      7  O1A       -2.4450   71.7770   35.8540 O.3   538  GDP538     -0.4370
      8  O2A       -3.5640   73.9080   34.8500 O.2   538  GDP538     -0.5169
      9  O5'       -2.6310   73.7990   37.2590 O.3   538  GDP538     -0.3111
     10  C5'       -3.3070   74.9420   37.7940 C.3   538  GDP538      0.1813
     11  C4'       -2.3600   75.8340   38.6380 C.3   538  GDP538      0.1799
     12  O4'       -1.7780   75.0490   39.6880 O.3   538  GDP538     -0.3326
     13  C3'       -1.2410   76.3290   37.7600 C.3   538  GDP538      0.2158
     14  O3'       -0.9220   77.6940   38.0290 O.3   538  GDP538     -0.2175
     15  C2'       -0.1180   75.3980   38.0630 C.3   538  GDP538      0.2310
     16  O2'        1.1330   75.9880   37.8510 O.3   538  GDP538     -0.2158
     17  C1'       -0.3550   75.0800   39.5530 C.3   538  GDP538      0.2293
     18  N9         0.1870   73.7810   39.9830 N.pl3 538  GDP538     -0.2354
     19  C8        -0.0090   72.5820   39.3620 C.3   538  GDP538      0.2246
     20  N7         0.5980   71.5810   40.0710 N.2   538  GDP538     -0.2322
     21  C5         1.2120   72.1760   41.1230 C.2   538  GDP538      0.2182
     22  C6         1.9860   71.7050   42.1700 C.1   538  GDP538      0.2372
     23  O6         2.2300   70.5090   42.2590 O.2   538  GDP538     -0.2069
     24  N1         2.4700   72.6030   43.1190 N.2   538  GDP538     -0.2485
     25  C2         2.1830   73.9470   43.0350 C.1   538  GDP538      0.2531
     26  N2         2.7380   74.8500   43.8540 N.pl3 538  GDP538     -0.0226
     27  N3         1.4560   74.4370   41.9810 N.2   538  GDP538     -0.3074
     28  C4         0.9300   73.5530   41.0840 C.2   538  GDP538      0.2300
@<TRIPOS>BOND
     1     3     1    2
     2     8     6    2
     3     4     1    1
     4     7     6    1
     5     1     5    1
     6     1     2    1
     7     6     5    1
     8     6     9    1
     9     9    10    1
    10    13    14    1
    11    13    15    1
    12    13    11    1
    13    10    11    1
    14    16    15    1
    15    15    17    1
    16    11    12    1
    17    19    18    1
    18    19    20    1
    19    17    12    1
    20    17    18    1
    21    18    28    1
    22    20    21    2
    23    28    21    1
    24    28    27    2
    25    21    22    1
    26    27    25    2
    27    22    23    2
    28    22    24    2
    29    25    24    2
    30    25    26    1
