@<TRIPOS>MOLECULE
1ryh_GNP_A_1.pdb
 32 34 0 0 0
SMALL
GASTEIGER

@<TRIPOS>ATOM
      1  PG        -8.6030   72.9660   34.4650 P.3   538  GNP538      0.4884
      2  O1G       -9.5890   72.0280   35.1350 O.3   538  GNP538     -0.1240
      3  O2G       -8.0480   72.6470   33.0800 O.2   538  GNP538     -0.2331
      4  O3G       -9.2550   74.2540   34.4380 O.3   538  GNP538     -0.1240
      5  N3B       -7.3600   73.1320   35.5270 N.3   538  GNP538     -0.0163
      6  PB        -6.2810   72.0080   35.9460 P.3   538  GNP538      0.4669
      7  O1B       -6.8600   71.1520   36.9690 O.3   538  GNP538     -0.1253
      8  O2B       -5.7960   71.3870   34.7080 O.2   538  GNP538     -0.2351
      9  O3A       -5.0780   72.7350   36.6320 O.3   538  GNP538     -0.2360
     10  PA        -3.6580   73.0790   36.0400 P.3   538  GNP538      0.2220
     11  O1A       -2.8320   71.8800   35.9170 O.3   538  GNP538     -0.4370
     12  O2A       -3.8790   74.0200   34.9130 O.2   538  GNP538     -0.5170
     13  O5'       -2.9460   73.9110   37.2140 O.3   538  GNP538     -0.3111
     14  C5'       -3.6630   74.9820   37.8680 C.3   538  GNP538      0.1813
     15  C4'       -2.7260   75.9640   38.5920 C.3   538  GNP538      0.1799
     16  O4'       -2.1160   75.2220   39.6910 O.3   538  GNP538     -0.3326
     17  C3'       -1.5900   76.4920   37.7600 C.3   538  GNP538      0.2158
     18  O3'       -1.2080   77.8010   38.1540 O.3   538  GNP538     -0.2175
     19  C2'       -0.4540   75.5420   38.0350 C.3   538  GNP538      0.2310
     20  O2'        0.8490   76.0810   37.8900 O.3   538  GNP538     -0.2158
     21  C1'       -0.7060   75.2510   39.5250 C.3   538  GNP538      0.2293
     22  N9        -0.2010   73.9530   39.9660 N.pl3 538  GNP538     -0.2354
     23  C8        -0.4570   72.7360   39.3930 C.3   538  GNP538      0.2246
     24  N7         0.1050   71.7260   40.0300 N.2   538  GNP538     -0.2322
     25  C5         0.7940   72.3400   41.0850 C.2   538  GNP538      0.2182
     26  C6         1.5870   71.7700   42.1070 C.1   538  GNP538      0.2372
     27  O6         1.8520   70.5700   42.2900 O.2   538  GNP538     -0.2069
     28  N1         2.0560   72.7060   43.0250 N.2   538  GNP538     -0.2485
     29  C2         1.8500   74.0890   42.9520 C.1   538  GNP538      0.2531
     30  N2         2.3990   74.9380   43.8900 N.pl3 538  GNP538     -0.0226
     31  N3         1.1040   74.6400   41.9510 N.2   538  GNP538     -0.3074
     32  C4         0.5820   73.6910   41.1000 C.2   538  GNP538      0.2300
@<TRIPOS>BOND
     1     3     1    2
     2     4     1    1
     3     1     2    1
     4     1     5    1
     5     8     6    2
     6    12    10    2
     7     5     6    1
     8    11    10    1
     9     6     9    1
    10     6     7    1
    11    10     9    1
    12    10    13    1
    13    13    14    1
    14    17    19    1
    15    17    18    1
    16    17    15    1
    17    14    15    1
    18    20    19    1
    19    19    21    1
    20    15    16    1
    21    23    22    1
    22    23    24    1
    23    21    16    1
    24    21    22    1
    25    22    32    1
    26    24    25    2
    27    25    32    1
    28    25    26    1
    29    32    31    2
    30    31    29    2
    31    26    27    2
    32    26    28    2
    33    29    28    2
    34    29    30    1
