@<TRIPOS>MOLECULE
1ryr_ATP_A_1.pdb
 29 31 0 0 0
SMALL
GASTEIGER

@<TRIPOS>ATOM
      1  PG        22.8910   10.5640    5.3740 P.3   1814  ATP1814     0.5373
      2  O1G       23.7600   10.0910    4.2310 O.2   1814  ATP1814    -0.2221
      3  O2G       22.3990    9.4920    6.1440 O.3   1814  ATP1814    -0.1143
      4  O3G       21.7810   11.4240    4.8800 O.3   1814  ATP1814    -0.1143
      5  PB        24.6530   12.7590    6.4040 P.3   1814  ATP1814     0.2277
      6  O1B       24.9780   13.1530    4.9440 O.2   1814  ATP1814    -0.5168
      7  O2B       26.0630   12.4700    6.5990 O.3   1814  ATP1814    -0.4368
      8  O3B       23.3790   11.9340    5.9140 O.3   1814  ATP1814    -0.2258
      9  PA        23.1540   14.9610    7.6690 P.3   1814  ATP1814     0.2189
     10  O1A       23.9160   15.2300    8.7800 O.3   1814  ATP1814    -0.4371
     11  O2A       23.3120   16.0120    6.7100 O.2   1814  ATP1814    -0.5170
     12  O3A       23.5610   13.5120    7.2390 O.3   1814  ATP1814    -0.2700
     13  O5'       21.9260   14.5990    8.3390 O.3   1814  ATP1814    -0.3109
     14  C5'       20.7630   14.0670    7.9300 C.3   1814  ATP1814     0.1832
     15  C4'       20.1490   13.4100    9.2090 C.3   1814  ATP1814     0.1713
     16  O4'       19.6210   14.5370   10.0350 O.3   1814  ATP1814    -0.3103
     17  C3'       19.0310   12.5740    8.8160 C.2   1814  ATP1814     0.0076
     18  C2'       17.8130   13.2240    9.3540 C.2   1814  ATP1814     0.0503
     19  C1'       18.2310   14.5160   10.0770 C.3   1814  ATP1814     0.3090
     20  N9        17.7690   15.7320    9.3430 N.pl3 1814  ATP1814    -0.1423
     21  C8        18.4440   16.6930    8.6020 C.3   1814  ATP1814     0.3379
     22  N7        17.6870   17.6500    8.0870 N.2   1814  ATP1814    -0.2095
     23  C5        16.4390   17.2780    8.5260 C.2   1814  ATP1814     0.2526
     24  C6        15.1320   17.8510    8.3580 C.2   1814  ATP1814     0.4393
     25  N6        14.9480   18.9550    7.6580 N.pl3 1814  ATP1814     0.2180
     26  N1        14.0560   17.2180    8.9440 N.2   1814  ATP1814     0.0021
     27  C2        14.2290   16.0820    9.6660 C.3   1814  ATP1814     0.5254
     28  N3        15.4060   15.4600    9.8880 N.2   1814  ATP1814    -0.0055
     29  C4        16.4640   16.1180    9.2940 C.2   1814  ATP1814     0.3520
@<TRIPOS>BOND
     1     2     1    2
     2     4     1    1
     3     6     5    2
     4     1     8    1
     5     1     3    1
     6     8     5    1
     7     5     7    1
     8     5    12    1
     9    11     9    2
    10    12     9    1
    11    25    24    1
    12     9    13    1
    13     9    10    1
    14    14    13    1
    15    14    15    1
    16    22    23    2
    17    22    21    1
    18    24    23    1
    19    24    26    2
    20    23    29    1
    21    21    20    1
    22    17    15    1
    23    17    18    2
    24    26    27    1
    25    15    16    1
    26    29    20    1
    27    29    28    2
    28    20    19    1
    29    18    19    1
    30    27    28    1
    31    16    19    1
