@<TRIPOS>MOLECULE
1rys_ATP_A_1.pdb
 29 31 0 0 0
SMALL
GASTEIGER

@<TRIPOS>ATOM
      1  PG        47.5400   10.7140   32.2550 P.3   1814  ATP1814     0.5373
      2  O1G       48.4370    9.9270   31.3840 O.2   1814  ATP1814    -0.2221
      3  O2G       47.2920    9.9500   33.4250 O.3   1814  ATP1814    -0.1143
      4  O3G       46.2440   11.1680   31.5230 O.3   1814  ATP1814    -0.1143
      5  PB        49.3190   12.9390   33.5410 P.3   1814  ATP1814     0.2277
      6  O1B       49.6520   14.0370   32.5480 O.2   1814  ATP1814    -0.5168
      7  O2B       50.3710   12.1030   34.1510 O.3   1814  ATP1814    -0.4368
      8  O3B       48.1560   12.1280   32.7690 O.3   1814  ATP1814    -0.2258
      9  PA        48.1570   15.2490   34.8830 P.3   1814  ATP1814     0.2189
     10  O1A       49.3640   15.7300   35.7110 O.3   1814  ATP1814    -0.4371
     11  O2A       47.8950   16.0950   33.7810 O.2   1814  ATP1814    -0.5170
     12  O3A       48.3420   13.6190   34.5690 O.3   1814  ATP1814    -0.2700
     13  O5'       47.0380   15.2790   35.7730 O.3   1814  ATP1814    -0.3113
     14  C5'       45.7870   14.7190   35.2440 C.3   1814  ATP1814     0.1786
     15  C4'       45.0540   13.9770   36.3700 C.3   1814  ATP1814     0.1493
     16  O4'       44.6320   15.0770   37.1690 O.3   1814  ATP1814    -0.3183
     17  C3'       43.7310   13.2340   36.0580 C.3   1814  ATP1814     0.0392
     18  C2'       42.9250   13.5280   37.3080 C.3   1814  ATP1814     0.0823
     19  C1'       43.3960   14.9160   37.7380 C.3   1814  ATP1814     0.2847
     20  N9        42.4560   15.9680   37.2670 N.pl3 1814  ATP1814    -0.1461
     21  C8        41.1530   16.0750   37.6100 C.3   1814  ATP1814     0.3377
     22  N7        40.4990   17.0600   37.0790 N.2   1814  ATP1814    -0.2095
     23  C5        41.4400   17.6740   36.3260 C.2   1814  ATP1814     0.2526
     24  C6        41.3920   18.8260   35.4570 C.2   1814  ATP1814     0.4393
     25  N6        40.2850   19.5340   35.2880 N.pl3 1814  ATP1814     0.2180
     26  N1        42.5370   19.2050   34.8130 N.2   1814  ATP1814     0.0021
     27  C2        43.6710   18.4910   34.9820 C.3   1814  ATP1814     0.5254
     28  N3        43.8260   17.3860   35.7670 N.2   1814  ATP1814    -0.0055
     29  C4        42.6660   17.0330   36.3970 C.2   1814  ATP1814     0.3518
@<TRIPOS>BOND
     1     2     1    2
     2     4     1    1
     3     1     8    1
     4     1     3    1
     5     6     5    2
     6     8     5    1
     7     5     7    1
     8     5    12    1
     9    11     9    2
    10    12     9    1
    11    26    27    1
    12    26    24    2
    13     9    10    1
    14     9    13    1
    15    27    28    1
    16    14    13    1
    17    14    15    1
    18    25    24    1
    19    24    23    1
    20    28    29    2
    21    17    15    1
    22    17    18    1
    23    23    29    1
    24    23    22    2
    25    15    16    1
    26    29    20    1
    27    22    21    1
    28    16    19    1
    29    20    21    1
    30    20    19    1
    31    18    19    1
