@<TRIPOS>MOLECULE
1ryw_EPU_A_1.pdb
 44 46 0 0 0
SMALL
GASTEIGER

@<TRIPOS>ATOM
      1  N1U       30.4820   19.1610   83.0230 N.am  2450  EPU2450    -0.1766
      2  C2U       30.9720   19.5660   84.2870 C.1   2450  EPU2450     0.2845
      3  N3U       30.4580   18.9730   85.4090 N.2   2450  EPU2450    -0.2452
      4  C4U       29.4740   17.9820   85.4630 C.1   2450  EPU2450     0.2182
      5  C5U       28.9590   17.5440   84.1500 C.2   2450  EPU2450     0.1242
      6  C6U       29.4710   18.1350   82.9830 C.2   2450  EPU2450     0.0929
      7  O2U       31.8330   20.4180   84.4070 O.2   2450  EPU2450    -0.1918
      8  O4U       29.0880   17.5200   86.5420 O.2   2450  EPU2450    -0.2085
      9  C1D       31.0050   19.7790   81.7120 C.3   2450  EPU2450     0.2401
     10  C2D       31.6270   18.8460   80.7560 C.3   2450  EPU2450     0.2319
     11  O2D       32.9110   18.1710   81.1900 O.3   2450  EPU2450    -0.2157
     12  C3D       31.6200   19.5970   79.4450 C.3   2450  EPU2450     0.2158
     13  C4D       30.1480   20.1830   79.5940 C.3   2450  EPU2450     0.1799
     14  O4D       29.8820   20.2850   81.0340 O.3   2450  EPU2450    -0.3320
     15  O3D       32.7910   20.4820   79.5360 O.3   2450  EPU2450    -0.2175
     16  C5D       28.9820   19.3060   79.0130 C.3   2450  EPU2450     0.1813
     17  O5D       28.8880   17.9810   79.5970 O.3   2450  EPU2450    -0.3112
     18  PA        27.5910   17.1180   79.6700 P.3   2450  EPU2450     0.2189
     19  O1A       26.4900   17.8660   79.0550 O.2   2450  EPU2450    -0.5170
     20  O2A       27.2680   16.8150   81.0900 O.3   2450  EPU2450    -0.4371
     21  O3A       27.5430   15.9230   78.7500 O.3   2450  EPU2450    -0.2703
     22  PB        27.5580   14.4000   79.1090 P.3   2450  EPU2450     0.2208
     23  O1B       26.4290   14.0430   79.8960 O.3   2450  EPU2450    -0.4371
     24  O2B       28.7950   14.0040   79.7570 O.2   2450  EPU2450    -0.5170
     25  C1        26.2600   13.7040   76.9290 C.3   2450  EPU2450     0.2632
     26  C2        26.4190   12.7340   75.6980 C.3   2450  EPU2450     0.1813
     27  C3        27.6820   13.1410   74.8950 C.3   2450  EPU2450     0.1734
     28  C4        27.4410   14.6360   74.4010 C.3   2450  EPU2450     0.2103
     29  C5        27.2780   15.5870   75.6060 C.3   2450  EPU2450     0.1833
     30  C6        26.9910   17.0260   75.1240 C.3   2450  EPU2450     0.2142
     31  C7        25.5330   10.5830   76.6760 C.2   2450  EPU2450     0.2420
     32  C8        25.9660    9.2010   77.0920 C.3   2450  EPU2450     0.0964
     33  N2        26.5420   11.3340   76.1980 N.am  2450  EPU2450    -0.1994
     34  O1        27.4250   13.5700   77.8060 O.3   2450  EPU2450    -0.2864
     35  O3        27.7920   12.2330   73.7940 O.3   2450  EPU2450    -0.3429
     36  O4        28.5650   15.1910   73.6130 O.3   2450  EPU2450    -0.2178
     37  O5        26.1350   15.0690   76.4100 O.3   2450  EPU2450    -0.3260
     38  O6        25.7500   17.1640   74.2700 O.3   2450  EPU2450    -0.2176
     39  O7        24.3670   11.0140   76.7430 O.2   2450  EPU2450    -0.2733
     40  C1E       28.8200   11.0150   71.9670 C.2   2450  EPU2450     0.3913
     41  O1E       29.6160   11.1200   70.9940 O.co2 2450  EPU2450    -0.2430
     42  O2E       27.8480   10.2220   71.9950 O.co2 2450  EPU2450    -0.2430
     43  C2E       28.9910   11.9230   73.1820 C.3   2450  EPU2450     0.2178
     44  C3E       30.2150   12.4260   73.5740 C.3   2450  EPU2450     0.0444
@<TRIPOS>BOND
     1    41    40   ar
     2    40    42   ar
     3    40    43    1
     4    43    44    1
     5    43    35    1
     6    36    28    1
     7    35    27    1
     8    38    30    1
     9    28    27    1
    10    28    29    1
    11    27    26    1
    12    30    29    1
    13    29    37    1
    14    26    33    1
    15    26    25    1
    16    33    31   am
    17    37    25    1
    18    31    39    2
    19    31    32    1
    20    25    34    1
    21    34    22    1
    22    21    22    1
    23    21    18    1
    24    16    13    1
    25    16    17    1
    26    19    18    2
    27    22    24    2
    28    22    23    1
    29    12    15    1
    30    12    13    1
    31    12    10    1
    32    13    14    1
    33    17    18    1
    34    18    20    1
    35    10    11    1
    36    10     9    1
    37    14     9    1
    38     9     1    1
    39     6     1    1
    40     6     5    2
    41     1     2   am
    42     5     4    1
    43     2     7    2
    44     2     3    2
    45     3     4    2
    46     4     8    2
