@<TRIPOS>MOLECULE
1rz1_NAD_A_1.pdb
 44 48 0 0 0
SMALL
GASTEIGER

@<TRIPOS>ATOM
      1  PA        -1.6600   16.1030   85.1550 P.3   1201  NAD1201     0.2189
      2  O1A       -2.0070   17.5260   84.8930 O.2   1201  NAD1201    -0.5170
      3  O2A       -2.6930   15.4000   86.0410 O.3   1201  NAD1201    -0.4371
      4  O5B       -1.5030   15.3770   83.7390 O.3   1201  NAD1201    -0.3112
      5  C5B       -2.3820   14.3720   83.3250 C.3   1201  NAD1201     0.1813
      6  C4B       -2.4980   14.4860   81.8170 C.3   1201  NAD1201     0.1821
      7  O4B       -3.1090   15.7110   81.4640 O.3   1201  NAD1201    -0.3135
      8  C3B       -1.1460   14.4430   81.1040 C.3   1201  NAD1201     0.2184
      9  O3B       -0.6820   13.1270   80.8840 O.3   1201  NAD1201    -0.2174
     10  C2B       -1.4560   15.1980   79.8260 C.3   1201  NAD1201     0.2570
     11  O2B       -1.9820   14.2960   78.8790 O.3   1201  NAD1201    -0.2130
     12  C1B       -2.5530   16.1770   80.2340 C.3   1201  NAD1201     0.3186
     13  N9A       -1.9970   17.5410   80.3780 N.pl3 1201  NAD1201    -0.1439
     14  C8A       -1.5940   18.1460   81.5540 C.3   1201  NAD1201     0.3377
     15  N7A       -1.1510   19.3880   81.2650 N.2   1201  NAD1201    -0.2095
     16  C5A       -1.2400   19.5830   79.9300 C.2   1201  NAD1201     0.2526
     17  C6A       -0.9170   20.6630   79.1130 C.2   1201  NAD1201     0.4393
     18  N6A       -0.4100   21.7790   79.6380 N.pl3 1201  NAD1201     0.2180
     19  N1A       -1.1350   20.5670   77.7530 N.2   1201  NAD1201     0.0021
     20  C2A       -1.6570   19.4100   77.2030 C.3   1201  NAD1201     0.5254
     21  N3A       -1.9660   18.3330   78.0150 N.2   1201  NAD1201    -0.0055
     22  C4A       -1.7690   18.4210   79.3570 C.2   1201  NAD1201     0.3518
     23  O3        -0.1720   15.9190   85.7140 O.3   1201  NAD1201    -0.2703
     24  PN         0.5650   16.9470   86.7090 P.3   1201  NAD1201     0.2189
     25  O1N        1.2190   16.1010   87.7290 O.3   1201  NAD1201    -0.4371
     26  O2N       -0.3440   18.0540   87.1110 O.2   1201  NAD1201    -0.5170
     27  O5D        1.7170   17.6010   85.7920 O.3   1201  NAD1201    -0.3112
     28  C5D        2.5160   18.6160   86.3810 C.3   1201  NAD1201     0.1813
     29  C4D        2.6920   19.7940   85.4360 C.3   1201  NAD1201     0.1799
     30  O4D        3.2190   19.3340   84.1930 O.3   1201  NAD1201    -0.3327
     31  C3D        1.3720   20.5110   85.1670 C.3   1201  NAD1201     0.2158
     32  O3D        1.5640   21.9190   85.1660 O.3   1201  NAD1201    -0.2175
     33  C2D        1.0110   20.0430   83.7720 C.3   1201  NAD1201     0.2309
     34  O2D        0.2890   21.0020   83.0530 O.3   1201  NAD1201    -0.2158
     35  C1D        2.3640   19.7300   83.1230 C.3   1201  NAD1201     0.2263
     36  N1N        2.1800   18.6880   82.0870 N.pl3 1201  NAD1201    -0.2787
     37  C2N        2.1720   19.0650   80.7820 C.3   1201  NAD1201     0.1244
     38  C3N        1.9850   18.1330   79.7650 C.2   1201  NAD1201     0.0544
     39  C7N        1.9990   18.5980   78.3330 C.2   1201  NAD1201     0.2818
     40  O7N        1.7980   17.6770   77.2770 O.2   1201  NAD1201    -0.2670
     41  N7N        2.2000   19.8850   78.1130 N.am  1201  NAD1201    -0.0839
     42  C4N        1.8020   16.7910   80.0840 C.2   1201  NAD1201     0.0033
     43  C5N        1.8020   16.4100   81.4280 C.2   1201  NAD1201     0.0157
     44  C6N        1.9870   17.3730   82.4290 C.2   1201  NAD1201     0.0633
@<TRIPOS>BOND
     1    20    19    1
     2    20    21    1
     3    40    39    2
     4    19    17    2
     5    21    22    2
     6    41    39   am
     7    39    38    1
     8    11    10    1
     9    17    18    1
    10    17    16    1
    11    22    16    1
    12    22    13    1
    13    38    42    2
    14    38    37    1
    15    10    12    1
    16    10     8    1
    17    16    15    2
    18    42    43    1
    19    12    13    1
    20    12     7    1
    21    13    14    1
    22    37    36    1
    23     9     8    1
    24     8     6    1
    25    15    14    1
    26    43    44    2
    27     7     6    1
    28     6     5    1
    29    36    44    1
    30    36    35    1
    31    34    33    1
    32    35    33    1
    33    35    30    1
    34     5     4    1
    35     4     1    1
    36    33    31    1
    37    30    29    1
    38     2     1    2
    39     1    23    1
    40     1     3    1
    41    32    31    1
    42    31    29    1
    43    29    28    1
    44    23    24    1
    45    27    28    1
    46    27    24    1
    47    24    26    2
    48    24    25    1
