@<TRIPOS>MOLECULE
1rz5_HEM_A_1.pdb
 43 50 0 0 0
SMALL
GASTEIGER

@<TRIPOS>ATOM
      1  CHA       62.6860   61.5390   89.9920 C.2   401  HEM401      0.0000
      2  CHB       58.0870   60.1520   90.1140 C.2   401  HEM401      0.0000
      3  CHC       59.3210   56.1690   92.4700 C.2   401  HEM401      0.0000
      4  CHD       63.5510   58.2500   93.4010 C.2   401  HEM401      0.0000
      5  C1A       61.3230   61.5460   89.8090 C.ar  401  HEM401      0.0000
      6  C2A       60.5600   62.5390   89.0810 C.ar  401  HEM401      0.0000
      7  C3A       59.2500   62.2070   89.1920 C.ar  401  HEM401      0.0000
      8  C4A       59.1860   60.9320   89.8960 C.ar  401  HEM401      0.0000
      9  CMA       58.0250   62.9470   88.6130 C.3   401  HEM401      0.0000
     10  CAA       61.1860   63.7360   88.3340 C.3   401  HEM401      0.0000
     11  CBA       61.0520   65.0470   89.0450 C.3   401  HEM401      0.0000
     12  CGA       60.8710   66.1970   88.0730 C.2   401  HEM401      0.0000
     13  O1A       61.3310   67.2300   88.6430 O.co2 401  HEM401      0.0000
     14  O2A       60.3830   66.1640   86.9430 O.co2 401  HEM401      0.0000
     15  C1B       58.0290   58.9120   90.7040 C.2   401  HEM401      0.0000
     16  C2B       56.8400   58.1000   90.8370 C.2   401  HEM401      0.0000
     17  C3B       57.2190   56.9250   91.4070 C.2   401  HEM401      0.0000
     18  C4B       58.5880   57.0610   91.7420 C.2   401  HEM401      0.0000
     19  CMB       55.4380   58.5550   90.4040 C.3   401  HEM401      0.0000
     20  CAB       56.3580   55.6880   91.7010 C.3   401  HEM401      0.0000
     21  CBB       55.9090   54.9860   90.3780 C.3   401  HEM401      0.0000
     22  C1C       60.5690   56.4480   92.9700 C.ar  401  HEM401      0.0000
     23  C2C       61.1750   55.6550   94.0080 C.ar  401  HEM401      0.0000
     24  C3C       62.3270   56.2670   94.3270 C.ar  401  HEM401      0.0000
     25  C4C       62.4540   57.4330   93.4890 C.ar  401  HEM401      0.0000
     26  CMC       60.5100   54.4120   94.6360 C.3   401  HEM401      0.0000
     27  CAC       63.3570   55.9580   95.4310 C.3   401  HEM401      0.0000
     28  CBC       63.8600   54.5200   95.5590 C.3   401  HEM401      0.0000
     29  C1D       63.7460   59.2680   92.5060 C.2   401  HEM401      0.0000
     30  C2D       64.9880   59.9830   92.2760 C.2   401  HEM401      0.0000
     31  C3D       64.7510   60.8060   91.2110 C.2   401  HEM401      0.0000
     32  C4D       63.3470   60.7200   90.8880 C.2   401  HEM401      0.0000
     33  CMD       66.3030   59.7570   93.0360 C.3   401  HEM401      0.0000
     34  CAD       65.7760   61.6970   90.5090 C.3   401  HEM401      0.0000
     35  CBD       66.4410   60.7890   89.4220 C.3   401  HEM401      0.0000
     36  CGD       67.5440   61.4580   88.6500 C.2   401  HEM401      0.0000
     37  O1D       68.6250   60.8870   88.4160 O.co2 401  HEM401      0.0000
     38  O2D       67.2690   62.5700   88.1920 O.co2 401  HEM401      0.0000
     39  NA        60.4510   60.6240   90.3300 N.ar  401  HEM401      0.0000
     40  NB        59.0820   58.2600   91.3220 N.2   401  HEM401      0.0000
     41  NC        61.3470   57.5410   92.6910 N.ar  401  HEM401      0.0000
     42  ND        62.7440   59.7340   91.6550 N.2   401  HEM401      0.0000
     43 FE         60.8900   59.0970   91.5530 Fe    401  HEM401      0.0000
@<TRIPOS>BOND
     1    14    12   ar
     2    12    13   ar
     3    12    11    1
     4    38    36   ar
     5    10    11    1
     6    10     6    1
     7    37    36   ar
     8     9     7    1
     9    36    35    1
    10     6     7   ar
    11     6     5   ar
    12     7     8   ar
    13    35    34    1
    14     5     1    2
    15     5    39   ar
    16     8     2    2
    17     8    39   ar
    18     1    32    1
    19     2    15    1
    20    39    43    1
    21    21    20    1
    22    19    16    1
    23    34    31    1
    24    15    16    1
    25    15    40    2
    26    16    17    2
    27    32    31    1
    28    32    42    2
    29    31    30    2
    30    40    43    1
    31    40    18    1
    32    17    20    1
    33    17    18    1
    34    43    42    1
    35    43    41    1
    36    42    29    1
    37    18     3    2
    38    30    29    1
    39    30    33    1
    40     3    22    1
    41    29     4    2
    42    41    22   ar
    43    41    25   ar
    44    22    23   ar
    45     4    25    1
    46    25    24   ar
    47    23    24   ar
    48    23    26    1
    49    24    27    1
    50    27    28    1
