@<TRIPOS>MOLECULE
1rz6_HEM_A_1.pdb
 43 50 0 0 0
SMALL
GASTEIGER

@<TRIPOS>ATOM
      1  CHA       45.7070   15.7360   25.3690 C.2   401  HEM401      0.0000
      2  CHB       49.1920   14.4740   28.4120 C.2   401  HEM401      0.0000
      3  CHC       46.0990   11.5520   30.5410 C.2   401  HEM401      0.0000
      4  CHD       43.3010   11.8000   26.6310 C.2   401  HEM401      0.0000
      5  C1A       46.9370   15.7240   25.9930 C.2   401  HEM401      0.0000
      6  C2A       48.1180   16.5520   25.7420 C.2   401  HEM401      0.0000
      7  C3A       49.1350   16.1330   26.5180 C.2   401  HEM401      0.0000
      8  C4A       48.5700   15.0910   27.3590 C.2   401  HEM401      0.0000
      9  CMA       50.5870   16.6360   26.5780 C.3   401  HEM401      0.0000
     10  CAA       48.1400   17.6770   24.6920 C.3   401  HEM401      0.0000
     11  CBA       49.0380   17.4260   23.4700 C.3   401  HEM401      0.0000
     12  CGA       49.0780   18.5910   22.4950 C.2   401  HEM401      0.0000
     13  O1A       50.0050   18.5300   21.6300 O.co2 401  HEM401      0.0000
     14  O2A       48.2170   19.4700   22.5450 O.co2 401  HEM401      0.0000
     15  C1B       48.6410   13.6420   29.3360 C.ar  401  HEM401      0.0000
     16  C2B       49.3010   13.2410   30.5550 C.ar  401  HEM401      0.0000
     17  C3B       48.3750   12.4910   31.2080 C.ar  401  HEM401      0.0000
     18  C4B       47.2270   12.3480   30.3550 C.ar  401  HEM401      0.0000
     19  CMB       50.7220   13.6340   31.0060 C.3   401  HEM401      0.0000
     20  CAB       48.5040   11.8610   32.5960 C.3   401  HEM401      0.0000
     21  CBB       48.5410   12.8950   33.7580 C.3   401  HEM401      0.0000
     22  C1C       45.0980   11.2830   29.6280 C.2   401  HEM401      0.0000
     23  C2C       44.1280   10.1860   29.7120 C.2   401  HEM401      0.0000
     24  C3C       43.3790   10.1930   28.5940 C.2   401  HEM401      0.0000
     25  C4C       43.8560   11.3100   27.7880 C.2   401  HEM401      0.0000
     26  CMC       44.1290    9.2290   30.9260 C.3   401  HEM401      0.0000
     27  CAC       42.2810    9.2270   28.0860 C.3   401  HEM401      0.0000
     28  CBC       41.0980    8.8830   29.0010 C.3   401  HEM401      0.0000
     29  C1D       43.6210   12.9420   25.9390 C.ar  401  HEM401      0.0000
     30  C2D       42.8690   13.5490   24.8550 C.ar  401  HEM401      0.0000
     31  C3D       43.4990   14.7420   24.6420 C.ar  401  HEM401      0.0000
     32  C4D       44.7140   14.7600   25.4350 C.ar  401  HEM401      0.0000
     33  CMD       41.5610   12.9740   24.2420 C.3   401  HEM401      0.0000
     34  CAD       43.0210   15.9810   23.8550 C.3   401  HEM401      0.0000
     35  CBD       41.7680   16.4450   24.6490 C.3   401  HEM401      0.0000
     36  CGD       42.0560   17.5550   25.6180 C.2   401  HEM401      0.0000
     37  O1D       43.1300   18.1770   25.5570 O.co2 401  HEM401      0.0000
     38  O2D       41.4700   17.3560   26.6900 O.co2 401  HEM401      0.0000
     39  NA        47.2780   14.8260   26.9620 N.2   401  HEM401      0.0000
     40  NB        47.3690   13.1010   29.2130 N.ar  401  HEM401      0.0000
     41  NC        44.9180   11.9220   28.4260 N.2   401  HEM401      0.0000
     42  ND        44.7530   13.6890   26.2910 N.ar  401  HEM401      0.0000
     43 FE         46.0880   13.3660   27.6870 Fe    401  HEM401      0.0000
@<TRIPOS>BOND
     1    13    12   ar
     2    12    14   ar
     3    12    11    1
     4    11    10    1
     5    34    31    1
     6    34    35    1
     7    33    30    1
     8    31    30   ar
     9    31    32   ar
    10    35    36    1
    11    10     6    1
    12    30    29   ar
    13     1    32    2
    14     1     5    1
    15    32    42   ar
    16    37    36   ar
    17    36    38   ar
    18     6     5    1
    19     6     7    2
    20    29    42   ar
    21    29     4    2
    22     5    39    2
    23    42    43    1
    24     7     9    1
    25     7     8    1
    26     4    25    1
    27    39     8    1
    28    39    43    1
    29     8     2    2
    30    43    41    1
    31    43    40    1
    32    25    41    2
    33    25    24    1
    34    27    24    1
    35    27    28    1
    36     2    15    1
    37    41    22    1
    38    24    23    2
    39    40    15   ar
    40    40    18   ar
    41    15    16   ar
    42    22    23    1
    43    22     3    2
    44    23    26    1
    45    18     3    1
    46    18    17   ar
    47    16    19    1
    48    16    17   ar
    49    17    20    1
    50    20    21    1
