@<TRIPOS>MOLECULE
1rzh_U10_L_1.pdb
 33 33 0 0 0
SMALL
GASTEIGER

@<TRIPOS>ATOM
      1  C1        81.8460    6.7550    1.3440 C.2   859  U10859      0.0198
      2  C2        81.3630    5.7800    0.3290 C.2   859  U10859      0.2282
      3  C3        81.3920    6.0840   -1.1290 C.2   859  U10859      0.2140
      4  C4        81.8900    7.3130   -1.4950 C.2   859  U10859      0.2140
      5  C5        82.3800    8.3040   -0.5220 C.2   859  U10859      0.2285
      6  C6        82.3550    8.0120    0.9540 C.2   859  U10859      0.0235
      7  C1M       81.7640    6.3390    2.8170 C.3   859  U10859      0.0343
      8  C3M       81.3020    4.1980   -2.9850 C.3   859  U10859      0.2528
      9  C4M       83.2240    7.8230   -3.5340 C.3   859  U10859      0.2528
     10  C7        82.8920    9.1400    1.8680 C.3   859  U10859      0.0548
     11  C8        84.0930    8.8620    2.6410 C.2   859  U10859     -0.0298
     12  C9        84.4670    9.3700    3.8890 C.2   859  U10859     -0.0475
     13  C10       83.6400   10.3730    4.7200 C.3   859  U10859      0.0260
     14  C11       85.7760    8.9620    4.5800 C.3   859  U10859      0.0264
     15  C12       85.5300    7.7280    5.4530 C.3   859  U10859      0.0297
     16  C13       86.8040    7.0700    5.8150 C.2   859  U10859     -0.0342
     17  C14       86.9140    5.7260    6.2590 C.2   859  U10859     -0.0478
     18  C15       85.6390    4.8330    6.3940 C.3   859  U10859      0.0260
     19  C16       88.1820    4.9970    6.6470 C.3   859  U10859      0.0263
     20  C17       88.9210    4.1790    5.6020 C.3   859  U10859      0.0297
     21  C18       88.9460    2.7670    5.9940 C.2   859  U10859     -0.0342
     22  C19       89.8620    1.9810    6.6870 C.2   859  U10859     -0.0478
     23  C20       91.2080    2.5070    7.2520 C.3   859  U10859      0.0260
     24  C21       89.6940    0.4890    7.0000 C.3   859  U10859      0.0263
     25  C22       88.6080    0.0900    7.9770 C.3   859  U10859      0.0297
     26  C23       88.6020   -1.3710    8.1520 C.2   859  U10859     -0.0342
     27  C24       87.9420   -2.1410    9.1280 C.2   859  U10859     -0.0478
     28  C25       87.0740   -1.4790   10.2200 C.3   859  U10859      0.0260
     29  C26       88.0140   -3.6680    9.2090 C.3   859  U10859      0.0260
     30  O2        80.9090    4.6730    0.5960 O.2   859  U10859     -0.2836
     31  O3        80.8770    5.0130   -1.9540 O.2   859  U10859     -0.4652
     32  O4        81.9410    7.6790   -2.9290 O.2   859  U10859     -0.4652
     33  O5        82.8310    9.4150   -0.8220 O.2   859  U10859     -0.2835
@<TRIPOS>BOND
     1     9    32    1
     2     8    31    1
     3    32     4    1
     4    31     3    1
     5     4     3    2
     6     4     5    1
     7     3     2    1
     8    33     5    2
     9     5     6    1
    10     2    30    2
    11     2     1    1
    12     6     1    2
    13     6    10    1
    14     1     7    1
    15    10    11    1
    16    11    12    2
    17    12    14    1
    18    12    13    1
    19    14    15    1
    20    15    16    1
    21    20    21    1
    22    20    19    1
    23    16    17    2
    24    21    22    2
    25    17    18    1
    26    17    19    1
    27    22    24    1
    28    22    23    1
    29    24    25    1
    30    25    26    1
    31    26    27    2
    32    27    29    1
    33    27    28    1
