@<TRIPOS>MOLECULE
1rzh_SPO_M_1.pdb
 42 41 0 0 0
SMALL
GASTEIGER

@<TRIPOS>ATOM
      1  CM1       93.8200    4.8920   24.9570 C.3   860  SPO860      0.1739
      2  O1        93.7390    3.7820   23.8700 O.3   860  SPO860     -0.3559
      3  C1        95.0450    3.1420   23.2680 C.3   860  SPO860      0.0933
      4  C2        95.0310    2.2470   22.0460 C.3   860  SPO860      0.0296
      5  C3        96.4360    3.6720   23.7300 C.3   860  SPO860      0.0296
      6  C4        94.9160    4.2250   22.1100 C.3   860  SPO860      0.0319
      7  C5        95.4770    5.6240   22.2350 C.3   860  SPO860      0.0281
      8  C6        96.0110    6.3370   20.9730 C.2   860  SPO860     -0.0303
      9  C7        95.8550    7.7090   20.7140 C.2   860  SPO860     -0.0261
     10  C8        95.1350    8.6870   21.6950 C.3   860  SPO860      0.0307
     11  C9        96.4250    8.1210   19.5030 C.2   860  SPO860     -0.0046
     12  C10       96.3620    9.5460   18.9820 C.2   860  SPO860     -0.0007
     13  C11       97.0320    9.8820   17.6320 C.2   860  SPO860     -0.0043
     14  C12       96.9650   11.1770   17.1100 C.2   860  SPO860     -0.0222
     15  C13       96.2100   12.3090   17.8720 C.3   860  SPO860      0.0310
     16  C14       97.6110   11.3990   15.8760 C.2   860  SPO860     -0.0085
     17  C15       97.5480   12.7840   15.2670 C.2   860  SPO860     -0.0221
     18  C16       98.2250   13.2300   13.9600 C.3   860  SPO860      0.0476
     19  C17       98.0170   14.5840   13.5510 C.2   860  SPO860     -0.0438
     20  C18       97.1300   15.5320   14.3730 C.3   860  SPO860      0.0264
     21  C19       98.6160   15.0960   12.3910 C.2   860  SPO860     -0.0339
     22  C20       99.4870   14.3030   11.5260 C.3   860  SPO860      0.0300
     23  C21      100.5150   14.9280   10.6500 C.3   860  SPO860      0.0303
     24  C22      101.4560   13.9390   10.1500 C.2   860  SPO860     -0.0300
     25  C23      102.1540   13.9630    8.9550 C.2   860  SPO860     -0.0261
     26  C24      102.1310   15.1500    7.9430 C.3   860  SPO860      0.0307
     27  C25      102.9430   12.8260    8.8100 C.2   860  SPO860     -0.0046
     28  C26      103.7630   12.5110    7.6370 C.2   860  SPO860     -0.0010
     29  C27      104.5770   11.2360    7.6750 C.2   860  SPO860     -0.0085
     30  C28      105.3480   10.8410    6.5820 C.2   860  SPO860     -0.0436
     31  C29      105.4600   11.5930    5.2360 C.3   860  SPO860      0.0264
     32  C30      106.1960    9.5750    6.6170 C.3   860  SPO860      0.0267
     33  C31      107.5800    9.9070    7.1360 C.3   860  SPO860      0.0297
     34  C32      108.3760    8.7410    7.4520 C.2   860  SPO860     -0.0343
     35  C33      109.6720    8.6660    7.9630 C.2   860  SPO860     -0.0482
     36  C34      110.5200    9.9030    8.3430 C.3   860  SPO860      0.0260
     37  C35      110.3960    7.3280    8.2450 C.3   860  SPO860      0.0217
     38  C36      111.5710    7.0580    7.3050 C.3   860  SPO860      0.0043
     39  C37      112.0750    5.6660    7.4420 C.3   860  SPO860      0.0003
     40  C38      112.4700    4.7260    6.4810 C.3   860  SPO860      0.0000
     41  C39      113.5740    3.6640    6.7150 C.3   860  SPO860      0.0000
     42  C40      111.8530    4.6210    5.0600 C.3   860  SPO860      0.0000
@<TRIPOS>BOND
     1    42    40    1
     2    31    30    1
     3    40    41    1
     4    40    39    1
     5    30    32    1
     6    30    29    2
     7    32    33    1
     8    33    34    1
     9    38    39    1
    10    38    37    1
    11    34    35    2
    12    28    29    1
    13    28    27    2
    14    26    25    1
    15    35    37    1
    16    35    36    1
    17    27    25    1
    18    25    24    2
    19    24    23    1
    20    23    22    1
    21    22    21    1
    22    21    19    2
    23    19    18    1
    24    19    20    1
    25    18    17    1
    26    17    16    2
    27    16    14    1
    28    14    13    2
    29    14    15    1
    30    13    12    1
    31    12    11    2
    32    11     9    1
    33     9     8    2
    34     9    10    1
    35     8     7    1
    36     4     3    1
    37     6     7    1
    38     6     3    1
    39     3     5    1
    40     3     2    1
    41     2     1    1
