@<TRIPOS>MOLECULE
1rzo_GAL_A_1.pdb
 12 12 0 0 0
SMALL
GASTEIGER

@<TRIPOS>ATOM
      1  C1         3.9450   31.6550  -18.9930 C.3   5001  GAL5001     0.3024
      2  C2         2.8660   32.7700  -18.8460 C.3   5001  GAL5001     0.2434
      3  C3         3.3740   33.6880  -17.9230 C.3   5001  GAL5001     0.2199
      4  C4         3.6880   33.1080  -16.4700 C.3   5001  GAL5001     0.2144
      5  C5         4.6210   31.8980  -16.6530 C.3   5001  GAL5001     0.1836
      6  C6         4.7460   31.0790  -15.3750 C.3   5001  GAL5001     0.2142
      7  O1         3.4800   30.7100  -19.8970 O.3   5001  GAL5001    -0.1869
      8  O2         2.6570   33.4530  -20.0960 O.3   5001  GAL5001    -0.2148
      9  O3         2.4980   34.8560  -17.6070 O.3   5001  GAL5001    -0.2174
     10  O4         2.4310   32.7160  -15.8660 O.3   5001  GAL5001    -0.2176
     11  O5         4.1120   30.9800  -17.6930 O.3   5001  GAL5001    -0.3236
     12  O6         5.6150   29.9590  -15.5380 O.3   5001  GAL5001    -0.2176
@<TRIPOS>BOND
     1     8     2    1
     2     7     1    1
     3     1     2    1
     4     1    11    1
     5     2     3    1
     6     3     9    1
     7     3     4    1
     8    11     5    1
     9     5     4    1
    10     5     6    1
    11     4    10    1
    12    12     6    1
