@<TRIPOS>MOLECULE
1rzu_ADP_A_1.pdb
 27 29 0 0 0
SMALL
GASTEIGER

@<TRIPOS>ATOM
      1  PB         6.3900   88.6330   23.5610 P.3   1531  ADP1531     0.5373
      2  O1B        5.9370   88.1060   22.2070 O.2   1531  ADP1531    -0.2221
      3  O2B        5.3540   89.1020   24.5560 O.3   1531  ADP1531    -0.1143
      4  O3B        7.4530   87.7690   24.1670 O.3   1531  ADP1531    -0.1143
      5  PA         8.5030   90.3190   23.4490 P.3   1531  ADP1531     0.2231
      6  O1A        9.4880   89.1750   23.2170 O.2   1531  ADP1531    -0.5169
      7  O2A        9.0290   91.7690   23.4390 O.3   1531  ADP1531    -0.4370
      8  O3A        6.9640   90.0530   23.1080 O.3   1531  ADP1531    -0.2261
      9  O5'        8.4870   90.4290   21.8410 O.3   1531  ADP1531    -0.3111
     10  C5'        7.8980   91.5550   21.1950 C.3   1531  ADP1531     0.1813
     11  C4'        8.4170   91.6470   19.7670 C.3   1531  ADP1531     0.1821
     12  O4'        9.7500   92.1510   19.7300 O.3   1531  ADP1531    -0.3135
     13  C3'        8.4920   90.3200   19.0620 C.3   1531  ADP1531     0.2184
     14  O3'        8.2250   90.6490   17.7090 O.3   1531  ADP1531    -0.2174
     15  C2'        9.9190   89.8470   19.2100 C.3   1531  ADP1531     0.2570
     16  O2'       10.3420   89.0760   18.0890 O.3   1531  ADP1531    -0.2130
     17  C1'       10.6780   91.1530   19.2670 C.3   1531  ADP1531     0.3186
     18  N9        11.8040   91.2140   20.2190 N.pl3 1531  ADP1531    -0.1439
     19  C8        11.8630   90.6880   21.4510 C.3   1531  ADP1531     0.3377
     20  N7        13.0360   91.0010   22.0580 N.2   1531  ADP1531    -0.2095
     21  C5        13.7150   91.7510   21.2010 C.2   1531  ADP1531     0.2526
     22  C6        15.0250   92.4170   21.2060 C.2   1531  ADP1531     0.4393
     23  N6        15.8070   92.3050   22.3040 N.pl3 1531  ADP1531     0.2180
     24  N1        15.3790   93.1090   20.1230 N.2   1531  ADP1531     0.0021
     25  C2        14.5700   93.1930   19.0610 C.3   1531  ADP1531     0.5254
     26  N3        13.3630   92.6110   18.9920 N.2   1531  ADP1531    -0.0055
     27  C4        12.9010   91.9000   20.0010 C.2   1531  ADP1531     0.3518
@<TRIPOS>BOND
     1    14    13    1
     2    16    15    1
     3    26    25    1
     4    26    27    2
     5    25    24    1
     6    13    15    1
     7    13    11    1
     8    15    17    1
     9    17    12    1
    10    17    18    1
    11    12    11    1
    12    11    10    1
    13    27    18    1
    14    27    21    1
    15    24    22    2
    16    18    19    1
    17    10     9    1
    18    21    22    1
    19    21    20    2
    20    22    23    1
    21    19    20    1
    22     9     5    1
    23     2     1    2
    24     8     5    1
    25     8     1    1
    26     6     5    2
    27     7     5    1
    28     1     4    1
    29     1     3    1
