@<TRIPOS>MOLECULE
1rzx_III_B_1.pdb
 50 49 0 0 0
SMALL
GASTEIGER

@<TRIPOS>ATOM
      1  C          5.3050   29.5130   -2.9530 C.2     1  ACE1        0.2423
      2  O          5.3300   28.3070   -2.6930 O.2     1  ACE1       -0.2733
      3  CH3        3.9920   30.2180   -3.2980 C.3     1  ACE1        0.0964
      4  N          6.2120   30.3680   -2.4950 N.am    2  VAL2       -0.1978
      5  CA         7.6390   30.1140   -2.6460 C.3     2  VAL2        0.1726
      6  C          8.0850   28.9530   -1.7580 C.2     2  VAL2        0.2616
      7  O          7.6490   28.8270   -0.6130 O.2     2  VAL2       -0.2715
      8  CB         8.4680   31.3620   -2.2720 C.3     2  VAL2        0.0290
      9  CG1        9.9390   31.1240   -2.5780 C.3     2  VAL2        0.0023
     10  CG2        7.9510   32.5740   -3.0300 C.3     2  VAL2        0.0023
     11  N          8.9490   28.1020   -2.2990 N.am    3  LYS3       -0.1963
     12  CA         9.4740   26.9650   -1.5540 C.3     3  LYS3        0.1728
     13  C         10.8350   27.3530   -0.9930 C.2     3  LYS3        0.2616
     14  O         11.7440   27.6830   -1.7450 O.2     3  LYS3       -0.2715
     15  CB         9.6270   25.7510   -2.4720 C.3     3  LYS3        0.0311
     16  CG        10.3300   24.5540   -1.8310 C.3     3  LYS3        0.0038
     17  CD         9.4640   23.8770   -0.7810 C.3     3  LYS3        0.0206
     18  CE        10.1440   22.6210   -0.2350 C.3     3  LYS3        0.1093
     19  NZ         9.2250   21.8070    0.6190 N.3     3  LYS3       -0.1314
     20  N         10.9730   27.3310    0.3260 N.am    4  GLU4       -0.1963
     21  CA        12.2440   27.6720    0.9480 C.3     4  GLU4        0.1733
     22  C         12.6900   26.5640    1.8850 C.2     4  GLU4        0.2617
     23  O         11.8740   25.7900    2.3780 O.2     4  GLU4       -0.2715
     24  CB        12.1480   29.0210    1.6760 C.3     4  GLU4        0.0429
     25  CG        11.1800   29.0680    2.8310 C.3     4  GLU4        0.1163
     26  CD        10.6130   30.4640    3.0470 C.2     4  GLU4        0.3649
     27  OE1       11.3700   31.4520    2.9340 O.co2   4  GLU4       -0.2457
     28  OE2        9.4040   30.5760    3.3410 O.co2   4  GLU4       -0.2457
     29  N         13.9970   26.4950    2.1120 N.am    5  SER5       -0.1936
     30  CA        14.5950   25.4650    2.9520 C.3     5  SER5        0.2055
     31  C         15.4590   26.0790    4.0500 C.2     5  SER5        0.2643
     32  O         16.3550   26.8790    3.7670 O.2     5  SER5       -0.2714
     33  CB        15.4320   24.5270    2.0680 C.3     5  SER5        0.2130
     34  OG        16.2600   23.6750    2.8390 O.3     5  SER5       -0.2179
     35  N         15.1700   25.7130    5.2980 N.am    6  LEU6       -0.1963
     36  CA        15.8990   26.2370    6.4490 C.3     6  LEU6        0.1728
     37  C         17.2520   25.5460    6.6440 C.2     6  LEU6        0.2617
     38  O         17.3830   24.3310    6.4900 O.2     6  LEU6       -0.2715
     39  CB        15.0740   26.0420    7.7190 C.3     6  LEU6        0.0311
     40  CG        15.7440   26.3650    9.0590 C.3     6  LEU6        0.0022
     41  CD1       15.9820   27.8690    9.1410 C.3     6  LEU6        0.0001
     42  CD2       14.8580   25.9090   10.2250 C.3     6  LEU6        0.0001
     43  N         18.2560   26.3370    6.9810 N.am    7  VAL7       -0.1942
     44  CA        19.5830   25.8070    7.2520 C.3     7  VAL7        0.1977
     45  C         20.0380   26.4630    8.5580 C.2     7  VAL7        0.3842
     46  O         19.5840   27.6060    8.7990 O.co2   7  VAL7       -0.2437
     47  CB        20.5660   26.1330    6.1000 C.3     7  VAL7        0.0311
     48  CG1       20.0870   25.4590    4.8120 C.3     7  VAL7        0.0023
     49  CG2       20.6840   27.6230    5.8920 C.3     7  VAL7        0.0023
     50  OXT       20.8150   25.8400    9.3220 O.co2   7  VAL7       -0.2437
@<TRIPOS>BOND
     1     3     1    1
     2    10     8    1
     3     1     2    2
     4     1     4   am
     5     5     4    1
     6     5     8    1
     7     5     6    1
     8     9     8    1
     9    15    16    1
    10    15    12    1
    11    11     6   am
    12    11    12    1
    13    16    17    1
    14     6     7    2
    15    14    13    2
    16    12    13    1
    17    13    20   am
    18    17    18    1
    19    18    19    1
    20    20    21    1
    21    21    24    1
    22    21    22    1
    23    24    25    1
    24    22    29   am
    25    22    23    2
    26    33    34    1
    27    33    30    1
    28    29    30    1
    29    25    26    1
    30    27    26   ar
    31    30    31    1
    32    26    28   ar
    33    32    31    2
    34    31    35   am
    35    48    47    1
    36    35    36    1
    37    49    47    1
    38    47    44    1
    39    36    37    1
    40    36    39    1
    41    38    37    2
    42    37    43   am
    43    43    44    1
    44    44    45    1
    45    39    40    1
    46    45    46   ar
    47    45    50   ar
    48    40    41    1
    49    40    42    1
