@<TRIPOS>MOLECULE
1rzy_5AS_A_1.pdb
 25 27 0 0 0
SMALL
GASTEIGER

@<TRIPOS>ATOM
      1  S         11.5310    6.9730   60.5640 S.3   301  5AS301      0.0657
      2  N1S       10.6160    5.5980   60.4840 N.3   301  5AS301     -0.0780
      3  O2S       12.7120    6.7840   59.6990 O.3   301  5AS301     -0.0542
      4  O3S       11.8700    7.2180   61.9650 O.3   301  5AS301     -0.0542
      5  O5'       10.7330    8.2770   60.1090 O.3   301  5AS301     -0.2257
      6  C5'       10.6160    8.6390   58.6450 C.3   301  5AS301      0.2061
      7  C4'        9.3640    9.4410   58.3910 C.3   301  5AS301      0.1842
      8  O4'        9.5580   10.1340   57.1620 O.3   301  5AS301     -0.3135
      9  C3'        8.0960    8.5540   58.2770 C.3   301  5AS301      0.2185
     10  O3'        7.0820    8.8970   59.2140 O.3   301  5AS301     -0.2174
     11  C2'        7.5630    8.6880   56.8720 C.3   301  5AS301      0.2570
     12  O2'        6.1920    9.0770   56.8960 O.3   301  5AS301     -0.2130
     13  C1'        8.5260    9.7330   56.3060 C.3   301  5AS301      0.3186
     14  N9         8.4750   10.2440   54.9550 N.pl3 301  5AS301     -0.1439
     15  C8         8.9580    9.6330   53.8270 C.3   301  5AS301      0.3377
     16  N7         8.8270   10.3680   52.7680 N.2   301  5AS301     -0.2095
     17  C5         8.2200   11.5520   53.1800 C.2   301  5AS301      0.2526
     18  C6         7.8080   12.7420   52.5230 C.2   301  5AS301      0.4393
     19  N6         7.9800   12.9330   51.1930 N.pl3 301  5AS301      0.2180
     20  N1         7.2270   13.7060   53.3010 N.2   301  5AS301      0.0021
     21  C2         7.0570   13.5220   54.6140 C.3   301  5AS301      0.5254
     22  N3         7.3990   12.4500   55.3610 N.2   301  5AS301     -0.0055
     23  C4         7.9890   11.4630   54.5890 C.2   301  5AS301      0.3518
     24  C10        9.1640    5.5440   60.6390 C.3   301  5AS301      0.1156
     25  C11        8.8100    6.3610   61.8460 C.3   301  5AS301      0.0224
@<TRIPOS>BOND
     1    19    18    1
     2    18    17    1
     3    18    20    2
     4    16    17    2
     5    16    15    1
     6    17    23    1
     7    20    21    1
     8    15    14    1
     9    23    14    1
    10    23    22    2
    11    21    22    1
    12    14    13    1
    13    13    11    1
    14    13     8    1
    15    11    12    1
    16    11     9    1
    17     8     7    1
    18     9     7    1
    19     9    10    1
    20     7     6    1
    21     6     5    1
    22     3     1    1
    23     5     1    1
    24     2     1    1
    25     2    24    1
    26     1     4    1
    27    24    25    1
