@<TRIPOS>MOLECULE
1rzz_SPO_M_1.pdb
 42 41 0 0 0
SMALL
GASTEIGER

@<TRIPOS>ATOM
      1  CM1       72.9900   91.6150   63.5840 C.3   1010  SPO1010     0.1739
      2  O1        72.7760   90.3580   62.6830 O.3   1010  SPO1010    -0.3559
      3  C1        73.8350   90.0090   61.5820 C.3   1010  SPO1010     0.0930
      4  C2        73.5610   88.9900   60.4710 C.3   1010  SPO1010     0.0296
      5  C3        75.0620   90.9360   61.3900 C.3   1010  SPO1010     0.0296
      6  C4        73.0740   91.0810   60.6660 C.3   1010  SPO1010     0.0276
      7  C5        71.5920   90.8890   60.3820 C.3   1010  SPO1010     0.0067
      8  C6        70.6790   92.0840   59.9880 C.3   1010  SPO1010     0.0218
      9  C7        69.5360   91.9580   59.1660 C.2   1010  SPO1010    -0.0478
     10  C8        69.0600   90.6050   58.5750 C.3   1010  SPO1010     0.0260
     11  C9        68.8470   93.1570   58.9390 C.2   1010  SPO1010    -0.0299
     12  C10       67.6020   93.2700   58.0530 C.3   1010  SPO1010     0.0510
     13  C11       66.9410   94.6560   57.8940 C.2   1010  SPO1010    -0.0257
     14  C12       65.8240   94.8540   57.0800 C.2   1010  SPO1010    -0.0261
     15  C13       65.1990   93.6770   56.2820 C.3   1010  SPO1010     0.0307
     16  C14       65.3010   96.1750   57.0290 C.2   1010  SPO1010    -0.0088
     17  C15       64.1030   96.4750   56.1450 C.2   1010  SPO1010    -0.0221
     18  C16       63.3650   97.8480   56.0340 C.3   1010  SPO1010     0.0476
     19  C17       62.2740   97.9300   55.1090 C.2   1010  SPO1010    -0.0438
     20  C18       61.8900   96.7240   54.2400 C.3   1010  SPO1010     0.0264
     21  C19       61.5030   99.0920   54.9540 C.2   1010  SPO1010    -0.0343
     22  C20       61.7070  100.3240   55.7050 C.3   1010  SPO1010     0.0257
     23  C21       60.5720  101.2570   55.9860 C.3   1010  SPO1010     0.0090
     24  C22       60.8960  102.1640   57.0810 C.3   1010  SPO1010     0.0221
     25  C23       60.4670  103.4740   57.2540 C.2   1010  SPO1010    -0.0478
     26  C24       59.4170  104.1700   56.3580 C.3   1010  SPO1010     0.0260
     27  C25       61.0210  104.0500   58.3930 C.2   1010  SPO1010    -0.0299
     28  C26       60.8260  105.4380   58.7850 C.3   1010  SPO1010     0.0507
     29  C27       61.4780  105.8960   60.0540 C.2   1010  SPO1010    -0.0299
     30  C28       61.3990  107.2180   60.4550 C.2   1010  SPO1010    -0.0475
     31  C29       60.6970  108.3560   59.6850 C.3   1010  SPO1010     0.0260
     32  C30       62.0260  107.6870   61.7520 C.3   1010  SPO1010     0.0264
     33  C31       61.0940  107.3610   62.9020 C.3   1010  SPO1010     0.0297
     34  C32       61.6720  107.6080   64.2040 C.2   1010  SPO1010    -0.0343
     35  C33       61.1130  107.3980   65.4600 C.2   1010  SPO1010    -0.0482
     36  C34       59.7100  106.7890   65.6700 C.3   1010  SPO1010     0.0260
     37  C35       61.8570  107.7110   66.7840 C.3   1010  SPO1010     0.0217
     38  C36       61.1820  108.7720   67.6520 C.3   1010  SPO1010     0.0043
     39  C37       62.1590  109.4680   68.5270 C.3   1010  SPO1010     0.0003
     40  C38       62.7870  110.7200   68.3970 C.3   1010  SPO1010     0.0000
     41  C39       62.8830  111.7600   69.5420 C.3   1010  SPO1010     0.0000
     42  C40       63.4650  111.2270   67.0920 C.3   1010  SPO1010     0.0000
@<TRIPOS>BOND
     1    20    19    1
     2    21    19    2
     3    21    22    1
     4    19    18    1
     5    22    23    1
     6    23    24    1
     7    18    17    1
     8    17    16    2
     9    15    14    1
    10    26    25    1
    11    16    14    1
    12    14    13    2
    13    24    25    1
    14    25    27    2
    15    13    12    1
    16    12    11    1
    17    27    28    1
    18    10     9    1
    19    28    29    1
    20    11     9    2
    21     9     8    1
    22    31    30    1
    23     8     7    1
    24    29    30    2
    25     7     6    1
    26    30    32    1
    27     4     3    1
    28     6     3    1
    29     5     3    1
    30     3     2    1
    31    32    33    1
    32     2     1    1
    33    33    34    1
    34    34    35    2
    35    35    36    1
    36    35    37    1
    37    37    38    1
    38    42    40    1
    39    38    39    1
    40    40    39    1
    41    40    41    1
