@<TRIPOS>MOLECULE
1rzz_U10_L_1.pdb
 44 44 0 0 0
SMALL
GASTEIGER

@<TRIPOS>ATOM
      1  C1        76.7170  106.4050   41.6040 C.2   1009  U101009     0.0198
      2  C2        77.8410  107.3470   41.3560 C.2   1009  U101009     0.2282
      3  C3        77.6280  108.6950   40.7620 C.2   1009  U101009     0.2140
      4  C4        76.3410  109.0350   40.4500 C.2   1009  U101009     0.2140
      5  C5        75.1910  108.1320   40.6800 C.2   1009  U101009     0.2285
      6  C6        75.3910  106.7590   41.2820 C.2   1009  U101009     0.0235
      7  C1M       77.0620  105.0440   42.2140 C.3   1009  U101009     0.0343
      8  C3M       79.3560  110.4620   39.8000 C.3   1009  U101009     0.2528
      9  C4M       75.5510  111.3920   40.6760 C.3   1009  U101009     0.2528
     10  C7        74.1030  105.9000   41.4650 C.3   1009  U101009     0.0548
     11  C8        73.7050  105.5190   42.8170 C.2   1009  U101009    -0.0298
     12  C9        73.5280  104.2240   43.3530 C.2   1009  U101009    -0.0475
     13  C10       73.7270  102.9140   42.5680 C.3   1009  U101009     0.0260
     14  C11       73.1050  103.9560   44.8170 C.3   1009  U101009     0.0264
     15  C12       73.9410  104.7520   45.8320 C.3   1009  U101009     0.0297
     16  C13       75.2480  104.0990   46.1000 C.2   1009  U101009    -0.0342
     17  C14       75.7990  103.8470   47.3950 C.2   1009  U101009    -0.0478
     18  C15       75.0200  104.2590   48.6810 C.3   1009  U101009     0.0260
     19  C16       77.1310  103.1890   47.7120 C.3   1009  U101009     0.0263
     20  C17       78.0080  102.7300   46.5600 C.3   1009  U101009     0.0297
     21  C18       79.3970  102.5600   46.9780 C.2   1009  U101009    -0.0342
     22  C19       80.4430  101.8250   46.4310 C.2   1009  U101009    -0.0478
     23  C20       80.3030  100.9620   45.1400 C.3   1009  U101009     0.0260
     24  C21       81.8810  101.7310   46.9590 C.3   1009  U101009     0.0263
     25  C22       82.2680  102.3540   48.2870 C.3   1009  U101009     0.0297
     26  C23       83.7060  102.1050   48.4850 C.2   1009  U101009    -0.0342
     27  C24       84.5360  102.3510   49.5860 C.2   1009  U101009    -0.0478
     28  C25       83.9650  102.9810   50.8790 C.3   1009  U101009     0.0260
     29  C26       86.0480  102.0000   49.5820 C.3   1009  U101009     0.0263
     30  C27       87.0040  102.9610   50.3100 C.3   1009  U101009     0.0297
     31  C28       87.6500  102.2880   51.4040 C.2   1009  U101009    -0.0339
     32  C29       88.6860  102.3200   52.3210 C.2   1009  U101009    -0.0432
     33  C30       88.9010  101.1970   53.3810 C.3   1009  U101009     0.0264
     34  C31       89.7680  103.4430   52.4640 C.3   1009  U101009     0.0560
     35  C32       91.2220  102.9230   52.4700 C.2   1009  U101009     0.0189
     36  C33       91.8970  102.8350   53.7210 C.1   1009  U101009    -0.1141
     37  C34       92.1830  102.8960   55.0620 C.2   1009  U101009    -0.0099
     38  C35       93.5720  102.4550   55.5810 C.3   1009  U101009     0.0347
     39  C36       91.1830  103.3810   56.1420 C.3   1009  U101009     0.0297
     40  C37       91.5190  104.7780   56.6460 C.3   1009  U101009     0.0053
     41  O2        79.0140  107.1040   41.6090 O.2   1009  U101009    -0.2836
     42  O3        78.8490  109.4540   40.6010 O.2   1009  U101009    -0.4652
     43  O4        76.0840  110.3650   39.8480 O.2   1009  U101009    -0.4652
     44  O5        74.0190  108.4100   40.4080 O.2   1009  U101009    -0.2835
@<TRIPOS>BOND
     1     8    42    1
     2    43     4    1
     3    43     9    1
     4    44     5    2
     5     4     5    1
     6     4     3    2
     7    42     3    1
     8     5     6    1
     9     3     2    1
    10     6    10    1
    11     6     1    2
    12     2     1    1
    13     2    41    2
    14    10    11    1
    15     1     7    1
    16    13    12    1
    17    11    12    2
    18    12    14    1
    19    14    15    1
    20    23    22    1
    21    15    16    1
    22    16    17    2
    23    22    24    1
    24    22    21    2
    25    20    21    1
    26    20    19    1
    27    24    25    1
    28    17    19    1
    29    17    18    1
    30    25    26    1
    31    26    27    2
    32    29    27    1
    33    29    30    1
    34    27    28    1
    35    30    31    1
    36    31    32    2
    37    32    34    1
    38    32    33    1
    39    34    35    1
    40    35    36    2
    41    36    37    2
    42    37    38    1
    43    37    39    1
    44    39    40    1
