@<TRIPOS>MOLECULE
1s00_SPO_M_1.pdb
 42 41 0 0 0
SMALL
GASTEIGER

@<TRIPOS>ATOM
      1  CM1       71.5320   90.4550   64.0000 C.3   1010  SPO1010     0.1743
      2  O1        71.2390   89.2520   63.0520 O.3   1010  SPO1010    -0.3518
      3  C1        72.2290   88.9670   61.8790 C.3   1010  SPO1010     0.1114
      4  C2        71.8730   88.0240   60.7200 C.3   1010  SPO1010     0.0342
      5  C3        73.4550   89.9090   61.6830 C.3   1010  SPO1010     0.0342
      6  C4        71.4600   90.1000   61.0880 C.2   1010  SPO1010     0.0002
      7  C5        69.9920   89.9240   60.8270 C.2   1010  SPO1010    -0.0026
      8  C6        69.1330   91.1280   60.4330 C.2   1010  SPO1010    -0.0045
      9  C7        67.9880   91.0090   59.6550 C.2   1010  SPO1010    -0.0219
     10  C8        67.4630   89.6450   59.1120 C.3   1010  SPO1010     0.0310
     11  C9        67.3390   92.2190   59.4160 C.2   1010  SPO1010    -0.0043
     12  C10       66.0840   92.3380   58.5650 C.2   1010  SPO1010    -0.0006
     13  C11       65.4620   93.7350   58.3810 C.2   1010  SPO1010    -0.0043
     14  C12       64.3310   93.9160   57.5850 C.2   1010  SPO1010    -0.0222
     15  C13       63.6650   92.7150   56.8510 C.3   1010  SPO1010     0.0310
     16  C14       63.8430   95.2330   57.4860 C.2   1010  SPO1010    -0.0085
     17  C15       62.6490   95.5100   56.6110 C.2   1010  SPO1010    -0.0221
     18  C16       61.9520   96.8850   56.4490 C.3   1010  SPO1010     0.0476
     19  C17       60.8640   96.9390   55.5470 C.2   1010  SPO1010    -0.0438
     20  C18       60.4510   95.6940   54.7500 C.3   1010  SPO1010     0.0264
     21  C19       60.1190   98.1090   55.3530 C.2   1010  SPO1010    -0.0339
     22  C20       60.3780   99.3590   56.0520 C.3   1010  SPO1010     0.0300
     23  C21       59.2840  100.3470   56.2820 C.3   1010  SPO1010     0.0303
     24  C22       59.6220  101.2600   57.3560 C.2   1010  SPO1010    -0.0300
     25  C23       59.1800  102.5480   57.5370 C.2   1010  SPO1010    -0.0261
     26  C24       58.1110  103.2350   56.6430 C.3   1010  SPO1010     0.0307
     27  C25       59.7360  103.1140   58.6830 C.2   1010  SPO1010    -0.0046
     28  C26       59.5110  104.4910   59.1360 C.2   1010  SPO1010    -0.0010
     29  C27       60.1500  104.9240   60.4340 C.2   1010  SPO1010    -0.0085
     30  C28       59.9960  106.2210   60.8870 C.2   1010  SPO1010    -0.0436
     31  C29       59.2230  107.3390   60.1550 C.3   1010  SPO1010     0.0264
     32  C30       60.5800  106.6840   62.1990 C.3   1010  SPO1010     0.0267
     33  C31       59.5860  106.4310   63.3230 C.3   1010  SPO1010     0.0297
     34  C32       60.1730  106.5800   64.6390 C.2   1010  SPO1010    -0.0343
     35  C33       59.6050  106.4040   65.8980 C.2   1010  SPO1010    -0.0482
     36  C34       58.1640  105.9190   66.1130 C.3   1010  SPO1010     0.0260
     37  C35       60.3800  106.6130   67.2230 C.3   1010  SPO1010     0.0217
     38  C36       60.0200  107.8930   67.9760 C.3   1010  SPO1010     0.0043
     39  C37       61.2330  108.6590   68.3650 C.3   1010  SPO1010     0.0003
     40  C38       61.4900  110.0400   68.3980 C.3   1010  SPO1010     0.0000
     41  C39       61.2970  110.9250   69.6550 C.3   1010  SPO1010     0.0000
     42  C40       62.0060  110.8610   67.1870 C.3   1010  SPO1010     0.0000
@<TRIPOS>BOND
     1    20    19    1
     2    21    19    2
     3    21    22    1
     4    19    18    1
     5    22    23    1
     6    23    24    1
     7    18    17    1
     8    17    16    2
     9    26    25    1
    10    15    14    1
    11    24    25    2
    12    16    14    1
    13    25    27    1
    14    14    13    2
    15    13    12    1
    16    12    11    2
    17    27    28    2
    18    10     9    1
    19    28    29    1
    20    11     9    1
    21     9     8    2
    22    31    30    1
    23     8     7    1
    24    29    30    2
    25     4     3    1
    26     7     6    2
    27    30    32    1
    28     6     3    1
    29     5     3    1
    30     3     2    1
    31    32    33    1
    32     2     1    1
    33    33    34    1
    34    34    35    2
    35    35    36    1
    36    35    37    1
    37    42    40    1
    38    37    38    1
    39    38    39    1
    40    39    40    1
    41    40    41    1
