@<TRIPOS>MOLECULE
1s00_U10_L_1.pdb
 30 30 0 0 0
SMALL
GASTEIGER

@<TRIPOS>ATOM
      1  C1        75.3110  105.0070   42.2580 C.2   1009  U101009     0.0198
      2  C2        76.3470  106.0300   41.9510 C.2   1009  U101009     0.2282
      3  C3        76.0170  107.2950   41.2340 C.2   1009  U101009     0.2140
      4  C4        74.7080  107.4730   40.8690 C.2   1009  U101009     0.2140
      5  C5        73.6530  106.4860   41.1560 C.2   1009  U101009     0.2285
      6  C6        73.9670  105.2020   41.8780 C.2   1009  U101009     0.0235
      7  C1M       75.7680  103.7440   42.9950 C.3   1009  U101009     0.0343
      8  C3M       77.6380  109.0570   40.0970 C.3   1009  U101009     0.2528
      9  C4M       73.8830  109.8250   40.9140 C.3   1009  U101009     0.2528
     10  C7        72.7590  104.2480   42.1070 C.3   1009  U101009     0.0548
     11  C8        72.3880  103.9130   43.4780 C.2   1009  U101009    -0.0298
     12  C9        72.1610  102.6400   44.0350 C.2   1009  U101009    -0.0475
     13  C10       72.2640  101.3130   43.2600 C.3   1009  U101009     0.0260
     14  C11       71.7760  102.4170   45.5110 C.3   1009  U101009     0.0264
     15  C12       72.7780  103.0770   46.4700 C.3   1009  U101009     0.0297
     16  C13       73.9780  102.2290   46.6820 C.2   1009  U101009    -0.0342
     17  C14       74.7400  102.1860   47.8870 C.2   1009  U101009    -0.0478
     18  C15       74.3350  103.0680   49.1110 C.3   1009  U101009     0.0260
     19  C16       75.9700  101.3440   48.1620 C.3   1009  U101009     0.0263
     20  C17       77.1500  101.4080   47.2090 C.3   1009  U101009     0.0297
     21  C18       78.3850  101.0460   47.9110 C.2   1009  U101009    -0.0343
     22  C19       79.5620  100.4260   47.5070 C.2   1009  U101009    -0.0482
     23  C20       79.8320   99.9360   46.0570 C.3   1009  U101009     0.0260
     24  C21       80.7660  100.1260   48.4070 C.3   1009  U101009     0.0217
     25  C22       81.6530  101.2790   48.8100 C.3   1009  U101009     0.0043
     26  C23       82.7400  100.8000   49.6630 C.3   1009  U101009     0.0003
     27  O2        77.5290  105.9230   42.2510 O.2   1009  U101009    -0.2836
     28  O3        77.1590  108.1600   41.0290 O.2   1009  U101009    -0.4652
     29  O4        74.3220  108.7050   40.1480 O.2   1009  U101009    -0.4652
     30  O5        72.4720  106.6190   40.8380 O.2   1009  U101009    -0.2835
@<TRIPOS>BOND
     1     8    28    1
     2    29     4    1
     3    29     9    1
     4    30     5    2
     5     4     5    1
     6     4     3    2
     7    28     3    1
     8     5     6    1
     9     3     2    1
    10     6    10    1
    11     6     1    2
    12     2    27    2
    13     2     1    1
    14    10    11    1
    15     1     7    1
    16    13    12    1
    17    11    12    2
    18    12    14    1
    19    14    15    1
    20    23    22    1
    21    15    16    1
    22    16    17    2
    23    20    21    1
    24    20    19    1
    25    22    21    2
    26    22    24    1
    27    17    19    1
    28    17    18    1
    29    24    25    1
    30    25    26    1
