@<TRIPOS>MOLECULE
1s07_PLP_A_1.pdb
 16 16 0 0 0
SMALL
GASTEIGER

@<TRIPOS>ATOM
      1  N1        12.6670   -5.6740   19.3760 N.2   430  PLP430     -0.2458
      2  C2        13.3920   -5.3030   18.3210 C.2   430  PLP430      0.0946
      3  C2A       12.9720   -5.8380   16.9800 C.3   430  PLP430      0.0552
      4  C3        14.5660   -4.4210   18.4970 C.2   430  PLP430      0.1973
      5  O3        15.2660   -4.1080   17.5140 O.2   430  PLP430     -0.2893
      6  C4        14.8970   -3.9610   19.8830 C.3   430  PLP430      0.1498
      7  C4A       16.0610   -3.0940   20.2520 C.2   430  PLP430      0.2190
      8  O4A       16.7850   -2.6480   19.3680 O.2   430  PLP430     -0.2875
      9  C5        13.9990   -4.4510   20.9260 C.2   430  PLP430      0.0192
     10  C6        12.9260   -5.2780   20.6120 C.2   430  PLP430      0.0933
     11  C5A       14.2130   -4.0690   22.3660 C.3   430  PLP430      0.1784
     12  O4P       14.2190   -2.6660   22.5700 O.3   430  PLP430     -0.2656
     13  P         14.8670   -2.1540   23.9290 P.3   430  PLP430      0.5329
     14  O1P       14.2330   -2.8750   25.1180 O.3   430  PLP430     -0.1145
     15  O2P       14.5630   -0.6830   24.0600 O.3   430  PLP430     -0.1145
     16  O3P       16.2630   -2.5620   23.7610 O.2   430  PLP430     -0.2224
@<TRIPOS>BOND
     1     3     2    1
     2     5     4    2
     3     2     4    1
     4     2     1    2
     5     4     6    1
     6     8     7    2
     7     1    10    1
     8     6     7    1
     9     6     9    1
    10    10     9    2
    11     9    11    1
    12    11    12    1
    13    12    13    1
    14    16    13    2
    15    13    15    1
    16    13    14    1
