@<TRIPOS>MOLECULE
1s0h_HEM_A_1.pdb
 43 50 0 0 0
SMALL
GASTEIGER

@<TRIPOS>ATOM
      1 FE          5.1130   -8.8520   16.8360 Fe    142  HEM142      0.0000
      2  CHA        4.1370  -10.1870   19.9770 C.2   142  HEM142      0.0000
      3  CHB        6.5550  -11.6240   16.2680 C.2   142  HEM142      0.0000
      4  CHC        5.5510   -7.9570   13.7400 C.2   142  HEM142      0.0000
      5  CHD        3.5990   -6.0530   17.6030 C.2   142  HEM142      0.0000
      6  NA         5.2290  -10.5540   17.8590 N.ar  142  HEM142      0.0000
      7  C1A        4.9810  -10.9050   19.1530 C.ar  142  HEM142      0.0000
      8  C2A        5.7480  -12.0950   19.4780 C.ar  142  HEM142      0.0000
      9  C3A        6.4100  -12.4180   18.4030 C.ar  142  HEM142      0.0000
     10  C4A        6.0760  -11.4620   17.4580 C.ar  142  HEM142      0.0000
     11  CMA        7.4010  -13.6290   18.1720 C.3   142  HEM142      0.0000
     12  CAA        5.9220  -12.9760   20.7760 C.2   142  HEM142      0.0000
     13  CBA        5.2280  -12.4360   22.0330 C.2   142  HEM142      0.0000
     14  CGA        5.4440  -13.2220   23.3430 C.2   142  HEM142      0.0000
     15  O1A        5.0300  -14.4580   23.4670 O.co2 142  HEM142      0.0000
     16  O2A        6.0170  -12.5030   24.2800 O.co2 142  HEM142      0.0000
     17  NB         5.7990   -9.6540   15.3910 N.2   142  HEM142      0.0000
     18  C1B        6.4370  -10.8120   15.2800 C.2   142  HEM142      0.0000
     19  C2B        7.0290  -11.1010   14.0240 C.2   142  HEM142      0.0000
     20  C3B        6.7960  -10.0630   13.2870 C.2   142  HEM142      0.0000
     21  C4B        6.0010   -9.1690   14.1320 C.2   142  HEM142      0.0000
     22  CMB        7.7730  -12.3730   13.7070 C.3   142  HEM142      0.0000
     23  CAB        7.1640   -9.8190   11.7850 C.2   142  HEM142      0.0000
     24  CBB        7.8910   -8.7550   11.3660 C.2   142  HEM142      0.0000
     25  NC         4.7920   -7.3950   15.9090 N.ar  142  HEM142      0.0000
     26  C1C        4.9410   -7.1390   14.5720 C.ar  142  HEM142      0.0000
     27  C2C        4.3700   -5.8930   14.1430 C.ar  142  HEM142      0.0000
     28  C3C        3.8550   -5.3550   15.2220 C.ar  142  HEM142      0.0000
     29  C4C        4.0980   -6.2890   16.3290 C.ar  142  HEM142      0.0000
     30  CMC        4.3840   -5.2800   12.7020 C.3   142  HEM142      0.0000
     31  CAC        3.0940   -4.0100   15.3670 C.2   142  HEM142      0.0000
     32  CBC        3.3480   -2.8960   14.6820 C.2   142  HEM142      0.0000
     33  ND         3.9980   -8.2730   18.4860 N.2   142  HEM142      0.0000
     34  C1D        3.4900   -6.9920   18.5740 C.2   142  HEM142      0.0000
     35  C2D        2.8580   -6.7530   19.8110 C.2   142  HEM142      0.0000
     36  C3D        3.0020   -8.0110   20.5690 C.2   142  HEM142      0.0000
     37  C4D        3.7170   -8.9080   19.7060 C.2   142  HEM142      0.0000
     38  CMD        2.2600   -5.4430   20.1360 C.3   142  HEM142      0.0000
     39  CAD        2.6120   -8.2440   21.9710 C.3   142  HEM142      0.0000
     40  CBD        3.9730   -8.4550   22.6960 C.3   142  HEM142      0.0000
     41  CGD        4.1060   -8.2820   24.2820 C.2   142  HEM142      0.0000
     42  O1D        3.2920   -7.5160   24.9710 O.co2 142  HEM142      0.0000
     43  O2D        5.0950   -8.9220   24.9250 O.co2 142  HEM142      0.0000
@<TRIPOS>BOND
     1    24    23    2
     2    23    20    1
     3    30    27    1
     4    20    19    2
     5    20    21    1
     6    22    19    1
     7     4    21    2
     8     4    26    1
     9    19    18    1
    10    21    17    1
    11    27    26   ar
    12    27    28   ar
    13    26    25   ar
    14    32    31    2
    15    28    31    1
    16    28    29   ar
    17    18    17    2
    18    18     3    1
    19    17     1    1
    20    25    29   ar
    21    25     1    1
    22     3    10    2
    23    29     5    1
    24     1     6    1
    25     1    33    1
    26    10     6   ar
    27    10     9   ar
    28     5    34    2
    29     6     7   ar
    30    11     9    1
    31     9     8   ar
    32    33    34    1
    33    33    37    2
    34    34    35    1
    35     7     8   ar
    36     7     2    2
    37     8    12    1
    38    37     2    1
    39    37    36    1
    40    35    38    1
    41    35    36    2
    42    36    39    1
    43    12    13    2
    44    39    40    1
    45    13    14    1
    46    40    41    1
    47    14    15   ar
    48    14    16   ar
    49    41    43   ar
    50    41    42   ar
