@<TRIPOS>MOLECULE
1s0i_SLT_A_1.pdb
 43 45 0 0 0
SMALL
GASTEIGER

@<TRIPOS>ATOM
      1  O17        9.9260  -20.7860   -6.1790 O.2   923  SLT923     -0.2733
      2  C17       10.7050  -19.9280   -5.7470 C.2   923  SLT923      0.2420
      3  C18       11.9810  -20.3710   -5.0910 C.3   923  SLT923      0.0964
      4  N12       10.5100  -18.6170   -5.8140 N.am  923  SLT923     -0.2020
      5  C12        9.4230  -18.0230   -6.5960 C.3   923  SLT923      0.1554
      6  C13        8.2220  -17.6560   -5.7110 C.3   923  SLT923      0.1733
      7  O13        7.1520  -17.0810   -6.4470 O.3   923  SLT923     -0.3239
      8  C14        7.6520  -18.8430   -4.9290 C.3   923  SLT923      0.2135
      9  O14        7.3240  -19.9240   -5.8030 O.3   923  SLT923     -0.2176
     10  C15        6.4230  -18.4590   -4.1390 C.3   923  SLT923      0.2173
     11  O15        6.7560  -17.4100   -3.2200 O.3   923  SLT923     -0.2175
     12  C16        5.8820  -19.7050   -3.4280 C.3   923  SLT923      0.2175
     13  O16        6.8450  -20.2160   -2.4810 O.3   923  SLT923     -0.2175
     14  C11        9.8880  -16.7570   -7.3050 C.3   923  SLT923      0.1797
     15  O11       10.8890  -17.1530   -8.2350 O.3   923  SLT923     -0.2210
     16  C10        8.7250  -16.1150   -8.0700 C.3   923  SLT923      0.1028
     17  C9         7.3430  -16.6920   -7.7780 C.3   923  SLT923      0.2863
     18  C19        6.3260  -15.5970   -8.0570 C.2   923  SLT923      0.4152
     19  O20        5.4210  -15.3170   -7.2520 O.co2 923  SLT923     -0.2402
     20  O19        6.3810  -15.0280   -9.1690 O.co2 923  SLT923     -0.2402
     21  O9         7.0650  -17.7940   -8.6540 O.3   923  SLT923     -0.3229
     22  C3         5.7300  -18.0730   -9.0660 C.3   923  SLT923      0.1861
     23  C4         5.6210  -17.8200  -10.5680 C.3   923  SLT923      0.2113
     24  C5         4.2350  -18.2080  -11.0980 C.3   923  SLT923      0.1834
     25  O5         3.9550  -19.5350  -10.7500 O.3   923  SLT923     -0.3256
     26  C6         4.1480  -18.0250  -12.6140 C.3   923  SLT923      0.2142
     27  O6         2.7760  -18.2270  -12.9470 O.3   923  SLT923     -0.2176
     28  O4         6.6310  -18.5900  -11.2160 O.3   923  SLT923     -0.2177
     29  C2         5.2800  -19.4980   -8.7570 C.3   923  SLT923      0.2374
     30  O2         5.1420  -19.6590   -7.3460 O.3   923  SLT923     -0.2150
     31  C1         3.9080  -19.7540   -9.3560 C.3   923  SLT923      0.2694
     32  O1         3.5770  -21.1090   -9.1440 O.3   923  SLT923     -0.3257
     33  C4A        2.1970  -21.4270   -9.1050 C.3   923  SLT923      0.1804
     34  C5A        2.1280  -22.5610   -8.0980 C.3   923  SLT923      0.1804
     35  O5A        0.8010  -23.0530   -8.0410 O.3   923  SLT923     -0.3237
     36  C6A        2.3940  -22.0780   -6.6690 C.3   923  SLT923      0.2141
     37  O6A        3.7870  -21.9100   -6.3890 O.3   923  SLT923     -0.2176
     38  C3A        1.7300  -21.8980  -10.4840 C.3   923  SLT923      0.2168
     39  O3A        1.6320  -20.7890  -11.3770 O.3   923  SLT923     -0.2175
     40  C2A        0.3570  -22.5040  -10.3080 C.3   923  SLT923      0.2433
     41  O2A       -0.0280  -23.0410  -11.5820 O.3   923  SLT923     -0.2148
     42  C1A        0.3650  -23.6130   -9.2680 C.3   923  SLT923      0.3023
     43  O1A        1.2780  -24.6080   -9.6370 O.3   923  SLT923     -0.1869
@<TRIPOS>BOND
     1    27    26    1
     2    26    24    1
     3    41    40    1
     4    39    38    1
     5    28    23    1
     6    24    25    1
     7    24    23    1
     8    25    31    1
     9    23    22    1
    10    38    40    1
    11    38    33    1
    12    40    42    1
    13    43    42    1
    14    31    32    1
    15    31    29    1
    16    42    35    1
    17    20    18   ar
    18    32    33    1
    19    33    34    1
    20    22    29    1
    21    22    21    1
    22    29    30    1
    23    21    17    1
    24    15    14    1
    25    34    35    1
    26    34    36    1
    27    16    17    1
    28    16    14    1
    29    18    17    1
    30    18    19   ar
    31    17     7    1
    32    14     5    1
    33    36    37    1
    34     5     4    1
    35     5     6    1
    36     7     6    1
    37     1     2    2
    38     4     2   am
    39     9     8    1
    40     2     3    1
    41     6     8    1
    42     8    10    1
    43    10    12    1
    44    10    11    1
    45    12    13    1
