@<TRIPOS>MOLECULE
1s0j_MUS_A_1.pdb
 33 35 0 0 0
SMALL
GASTEIGER

@<TRIPOS>ATOM
      1  O16        7.0410  -19.8160   -2.4400 O.3   700  MUS700     -0.2175
      2  C16        6.0640  -19.2020   -3.2710 C.3   700  MUS700      0.2175
      3  C15        6.6700  -18.0140   -4.0270 C.3   700  MUS700      0.2173
      4  O15        7.0240  -16.9900   -3.1220 O.3   700  MUS700     -0.2175
      5  C14        7.9320  -18.5020   -4.7280 C.3   700  MUS700      0.2135
      6  O14        7.5780  -19.7240   -5.3770 O.3   700  MUS700     -0.2176
      7  C13        8.4400  -17.4510   -5.7180 C.3   700  MUS700      0.1743
      8  O13        7.2910  -17.1000   -6.4660 O.3   700  MUS700     -0.3148
      9  C12        9.5640  -18.0000   -6.6210 C.3   700  MUS700      0.1555
     10  N12       10.7380  -18.4450   -5.8660 N.am  700  MUS700     -0.2020
     11  C17       10.9550  -19.7400   -5.6690 C.2   700  MUS700      0.2420
     12  C18       12.2470  -20.1090   -5.0200 C.3   700  MUS700      0.0964
     13  O17       10.1270  -20.6310   -5.9760 O.2   700  MUS700     -0.2733
     14  C11        9.9780  -16.9260   -7.6540 C.3   700  MUS700      0.1810
     15  O11       10.2310  -17.5970   -8.8760 O.3   700  MUS700     -0.2210
     16  C10        8.8530  -15.9450   -7.9440 C.3   700  MUS700      0.1165
     17  C9         7.4730  -16.5560   -7.7400 C.3   700  MUS700      0.3267
     18  C19        6.4040  -15.5000   -7.9750 C.2   700  MUS700      0.4275
     19  O19        5.5650  -15.2220   -7.0830 O.co2 700  MUS700     -0.2389
     20  O20        6.3950  -14.9270   -9.0620 O.co2 700  MUS700     -0.2389
     21  O9         7.2480  -17.5960   -8.6930 O.3   700  MUS700     -0.4488
     22  C7         6.0020  -18.1470   -8.8500 C.ar  700  MUS700      0.1447
     23  C6         5.5140  -19.1780   -8.0360 C.ar  700  MUS700      0.0372
     24  C8         5.3710  -17.8410  -10.0400 C.ar  700  MUS700      0.0745
     25  C8A        4.2130  -18.4950  -10.4010 C.ar  700  MUS700      0.1514
     26  C4A        3.6830  -19.5620   -9.5550 C.ar  700  MUS700      0.0311
     27  C5         4.3740  -19.9290   -8.3940 C.ar  700  MUS700      0.0058
     28  O1         3.5560  -18.1140  -11.5440 O.2   700  MUS700     -0.4209
     29  C2         2.3820  -18.7340  -11.9220 C.ar  700  MUS700      0.3456
     30  O2         1.8420  -18.3150  -12.9680 O.2   700  MUS700     -0.2445
     31  C3         1.8080  -19.7680  -11.1730 C.ar  700  MUS700      0.0781
     32  C4         2.4210  -20.2110  -10.0000 C.ar  700  MUS700     -0.0125
     33  CM4        1.8520  -21.2910   -9.1680 C.3   700  MUS700      0.0313
@<TRIPOS>BOND
     1    30    29    2
     2    29    28   ar
     3    29    31   ar
     4    28    25   ar
     5    31    32   ar
     6    25    24   ar
     7    25    26   ar
     8    24    22   ar
     9    32    26   ar
    10    32    33    1
    11    26    27   ar
    12    20    18   ar
    13    15    14    1
    14    22    21    1
    15    22    23   ar
    16    21    17    1
    17    27    23   ar
    18    18    17    1
    19    18    19   ar
    20    16    17    1
    21    16    14    1
    22    17     8    1
    23    14     9    1
    24     9    10    1
    25     9     7    1
    26     8     7    1
    27    13    11    2
    28    10    11   am
    29     7     5    1
    30    11    12    1
    31     6     5    1
    32     5     3    1
    33     3     2    1
    34     3     4    1
    35     2     1    1
