@<TRIPOS>MOLECULE
1s0m_DTP_A_1.pdb
 30 32 0 0 0
SMALL
GASTEIGER

@<TRIPOS>ATOM
      1  PG        51.4260   13.7580   34.4610 P.3   803  DTP803      0.5373
      2  O1G       52.3280   12.8080   35.1190 O.3   803  DTP803     -0.1143
      3  O2G       50.0920   13.6450   35.0480 O.3   803  DTP803     -0.1143
      4  O3G       52.0190   15.2000   34.5730 O.2   803  DTP803     -0.2221
      5  PB        51.6360   12.3850   32.1790 P.3   803  DTP803      0.2277
      6  O1B       51.6140   12.9410   30.7870 O.2   803  DTP803     -0.5168
      7  O2B       52.7940   11.7390   32.4910 O.3   803  DTP803     -0.4368
      8  O3B       51.5110   13.5890   33.0910 O.3   803  DTP803     -0.2258
      9  PA        49.7160   10.7970   33.1480 P.3   803  DTP803      0.2189
     10  O1A       50.6740   10.7560   34.2440 O.3   803  DTP803     -0.4371
     11  O2A       49.0640    9.5880   32.6180 O.2   803  DTP803     -0.5170
     12  O3A       50.2550   11.8760   32.5720 O.3   803  DTP803     -0.2700
     13  O5'       48.3990   11.8310   33.6470 O.3   803  DTP803     -0.3112
     14  C5'       47.4230   12.8160   34.1210 C.3   803  DTP803      0.1813
     15  C4'       47.2570   14.2710   34.4990 C.3   803  DTP803      0.1795
     16  O4'       46.8540   15.1000   33.3380 O.3   803  DTP803     -0.3155
     17  C3'       45.9120   14.4240   35.1470 C.3   803  DTP803      0.1883
     18  O3'       45.4850   13.5960   36.2690 O.3   803  DTP803     -0.2202
     19  C2'       46.2480   15.8880   35.5010 C.3   803  DTP803      0.1151
     20  C1'       46.2130   16.3110   34.0140 C.3   803  DTP803      0.2873
     21  N9        44.7890   16.7920   33.9460 N.pl3 803  DTP803     -0.1460
     22  C8        43.6660   16.3730   34.7090 C.3   803  DTP803      0.3377
     23  N7        42.6030   16.9910   34.5060 N.2   803  DTP803     -0.2095
     24  C5        42.9900   17.9040   33.5570 C.2   803  DTP803      0.2526
     25  C6        42.2550   18.9200   32.9080 C.2   803  DTP803      0.4393
     26  N6        40.9850   19.1240   33.2030 N.pl3 803  DTP803      0.2180
     27  N1        42.8930   19.7160   31.9690 N.2   803  DTP803      0.0021
     28  C2        44.1970   19.5200   31.6720 C.3   803  DTP803      0.5254
     29  N3        45.0180   18.5880   32.2310 N.2   803  DTP803     -0.0055
     30  C4        44.3150   17.7860   33.1830 C.2   803  DTP803      0.3518
@<TRIPOS>BOND
     1     6     5    2
     2    28    27    1
     3    28    29    1
     4    27    25    2
     5     5     7    1
     6     5    12    1
     7     5     8    1
     8    29    30    2
     9    12     9    1
    10    11     9    2
    11    25    26    1
    12    25    24    1
    13     8     1    1
    14     9    13    1
    15     9    10    1
    16    30    24    1
    17    30    21    1
    18    16    20    1
    19    16    15    1
    20    24    23    2
    21    13    14    1
    22    21    20    1
    23    21    22    1
    24    20    19    1
    25    14    15    1
    26     1     4    2
    27     1     3    1
    28     1     2    1
    29    15    17    1
    30    23    22    1
    31    17    19    1
    32    17    18    1
