@<TRIPOS>MOLECULE
1s0n_DCP_A_1.pdb
 28 29 0 0 0
SMALL
GASTEIGER

@<TRIPOS>ATOM
      1  N1        18.9620   12.0960   10.1810 N.am  804  DCP804     -0.1802
      2  C2        17.5670   12.2970   10.4600 C.1   804  DCP804      0.2756
      3  N3        16.9500   13.4950   10.0170 N.2   804  DCP804     -0.3024
      4  C4        17.7000   14.4830    9.3140 C.2   804  DCP804      0.2346
      5  C5        19.0770   14.2900    9.0440 C.2   804  DCP804      0.0687
      6  C6        19.7030   13.1060    9.4750 C.2   804  DCP804      0.0835
      7  O2        16.9080   11.4380   11.0740 O.2   804  DCP804     -0.1925
      8  N4        17.1010   15.6010    8.9060 N.pl3 804  DCP804     -0.0921
      9  C1'       19.5850   10.8360   10.6390 C.3   804  DCP804      0.2090
     10  C2'       19.4180    9.7920    9.5180 C.3   804  DCP804      0.0874
     11  C3'       20.7420    9.8350    8.7940 C.3   804  DCP804      0.1857
     12  C4'       21.7170   10.0430    9.9480 C.3   804  DCP804      0.1773
     13  O4'       21.0240   10.9670   10.8580 O.3   804  DCP804     -0.3339
     14  O3'       20.9550    8.5690    8.1780 O.3   804  DCP804     -0.2203
     15  C5'       23.0490   10.7640    9.5980 C.3   804  DCP804      0.1812
     16  O5'       22.9600   12.1340    9.0480 O.3   804  DCP804     -0.3112
     17  PA        23.5590   12.7280    7.7450 P.3   804  DCP804      0.2189
     18  O1A       25.0110   12.4420    7.6520 O.3   804  DCP804     -0.4371
     19  O2A       23.1610   14.1630    7.6510 O.2   804  DCP804     -0.5170
     20  O3A       22.8320   11.8920    6.6290 O.3   804  DCP804     -0.2700
     21  PB        23.1880   10.4900    5.9740 P.3   804  DCP804      0.2277
     22  O1B       21.9290    9.8180    5.7600 O.2   804  DCP804     -0.5168
     23  O2B       24.1080    9.7850    6.7870 O.3   804  DCP804     -0.4368
     24  O3B       23.8340   10.8030    4.5710 O.3   804  DCP804     -0.2258
     25  PG        25.1600   11.4360    4.0240 P.3   804  DCP804      0.5373
     26  O1G       26.0590   11.4430    5.1800 O.3   804  DCP804     -0.1143
     27  O2G       24.9720   12.6630    3.3820 O.3   804  DCP804     -0.1143
     28  O3G       25.6660   10.4340    2.9770 O.2   804  DCP804     -0.2221
@<TRIPOS>BOND
     1    28    25    2
     2    27    25    1
     3    25    24    1
     4    25    26    1
     5    24    21    1
     6    22    21    2
     7    21    20    1
     8    21    23    1
     9    20    17    1
    10    19    17    2
    11    18    17    1
    12    17    16    1
    13    14    11    1
    14    11    10    1
    15    11    12    1
    16     8     4    1
    17     5     4    1
    18     5     6    2
    19    16    15    1
    20     4     3    2
    21     6     1    1
    22    10     9    1
    23    15    12    1
    24    12    13    1
    25     3     2    2
    26     1     2   am
    27     1     9    1
    28     2     7    2
    29     9    13    1
