@<TRIPOS>MOLECULE
1s0o_TTP_A_1.pdb
 29 30 0 0 0
SMALL
GASTEIGER

@<TRIPOS>ATOM
      1  PA        48.2400   12.4650   34.3640 P.3   803  TTP803      0.2189
      2  O1A       48.0550   13.6880   34.7710 O.2   803  TTP803     -0.5170
      3  O2A       49.6260   11.9590   34.8950 O.3   803  TTP803     -0.4371
      4  O3A       47.0960   11.3780   33.7170 O.3   803  TTP803     -0.2700
      5  PB        47.8390   10.2230   32.8060 P.3   803  TTP803      0.2277
      6  O1B       46.7640    9.4210   32.0080 O.2   803  TTP803     -0.5168
      7  O2B       48.5790    9.2130   33.7390 O.3   803  TTP803     -0.4368
      8  O3B       49.1720   10.8180   32.1550 O.3   803  TTP803     -0.2258
      9  PG        50.0210   10.9160   30.8170 P.3   803  TTP803      0.5373
     10  O1G       51.2510   11.3740   31.6440 O.3   803  TTP803     -0.1143
     11  O2G       49.5410   12.0910   29.8730 O.2   803  TTP803     -0.2221
     12  O3G       50.4590    9.5910   30.0950 O.3   803  TTP803     -0.1143
     13  O5'       47.3230   12.0580   35.5820 O.3   803  TTP803     -0.3112
     14  C5'       47.4900   10.6860   36.4420 C.3   803  TTP803      0.1812
     15  C4'       46.2110    9.9070   36.7260 C.3   803  TTP803      0.1773
     16  O4'       45.2690   10.5310   37.6050 O.3   803  TTP803     -0.3342
     17  C3'       45.4520    9.4840   35.4320 C.3   803  TTP803      0.1857
     18  O3'       45.7650    8.1290   35.1310 O.3   803  TTP803     -0.2203
     19  C2'       43.9990    9.7380   35.7120 C.3   803  TTP803      0.0871
     20  C1'       43.9820   10.4910   37.0240 C.3   803  TTP803      0.2052
     21  N1        43.4260   11.8650   36.5470 N.am  803  TTP803     -0.1977
     22  C2        42.0820   12.1810   36.7430 C.1   803  TTP803      0.2807
     23  O2        41.3310   11.3770   37.3100 O.2   803  TTP803     -0.1922
     24  N3        41.5110   13.3410   36.3400 N.2   803  TTP803     -0.2457
     25  C4        42.2440   14.2990   35.6900 C.1   803  TTP803      0.2138
     26  O4        41.5760   15.3930   35.3370 O.2   803  TTP803     -0.2088
     27  C5        43.6690   14.1080   35.4420 C.2   803  TTP803      0.0940
     28  C5M       44.2250   14.7840   34.9720 C.2   803  TTP803      0.0105
     29  C6        44.1910   12.8530   35.8900 C.3   803  TTP803      0.1450
@<TRIPOS>BOND
     1    11     9    2
     2    12     9    1
     3     9    10    1
     4     9     8    1
     5     6     5    2
     6     8     5    1
     7     5     4    1
     8     5     7    1
     9     4     1    1
    10     1     2    2
    11     1     3    1
    12     1    13    1
    13    28    27    2
    14    18    17    1
    15    26    25    2
    16    17    19    1
    17    17    15    1
    18    27    25    1
    19    27    29    1
    20    13    14    1
    21    25    24    2
    22    19    20    1
    23    29    21    1
    24    24    22    2
    25    14    15    1
    26    21    22   am
    27    21    20    1
    28    15    16    1
    29    22    23    2
    30    20    16    1
