@<TRIPOS>MOLECULE
1s0v_APC_A_1.pdb
 31 33 0 0 0
SMALL
GASTEIGER

@<TRIPOS>ATOM
      1  PG         2.1210    2.2390   12.7420 P.3   2000  APC2000     0.5389
      2  O1G        0.7990    1.7330   13.2840 O.3   2000  APC2000    -0.1143
      3  O2G        3.2340    1.6430   13.5350 O.3   2000  APC2000    -0.1143
      4  O3G        2.1360    3.7630   12.8630 O.2   2000  APC2000    -0.2220
      5  PB         1.7140    2.2810    9.8620 P.3   2000  APC2000     0.3895
      6  O1B        2.3320    1.5230    8.7570 O.2   2000  APC2000    -0.2544
      7  O2B        0.2210    2.2420   10.0430 O.3   2000  APC2000    -0.1388
      8  O3B        2.4330    1.6680   11.2190 O.3   2000  APC2000    -0.2026
      9  PA         1.7560    5.3190   10.2740 P.3   2000  APC2000     0.3820
     10  O1A        0.2790    5.3920   10.6810 O.2   2000  APC2000    -0.2548
     11  O2A        2.8160    5.9030   11.1820 O.3   2000  APC2000    -0.1392
     12  C3A        2.3740    3.8350    9.7610 C.3   2000  APC2000     0.2357
     13  O5'        1.7500    6.1110    8.8680 O.3   2000  APC2000    -0.2896
     14  C5'        2.9860    6.4230    8.2560 C.3   2000  APC2000     0.1836
     15  C4'        2.8280    6.7750    6.7680 C.3   2000  APC2000     0.1822
     16  O4'        3.8560    7.6980    6.4460 O.3   2000  APC2000    -0.3135
     17  C3'        2.8840    5.6030    5.8140 C.3   2000  APC2000     0.2184
     18  O3'        1.6080    5.4500    5.1820 O.3   2000  APC2000    -0.2174
     19  C2'        3.9190    5.9490    4.7530 C.3   2000  APC2000     0.2570
     20  O2'        3.4670    5.8650    3.4150 O.3   2000  APC2000    -0.2130
     21  C1'        4.4570    7.3230    5.2090 C.3   2000  APC2000     0.3186
     22  N9         5.9170    7.4450    5.3900 N.pl3 2000  APC2000    -0.1439
     23  C8         6.5950    6.8940    6.4480 C.3   2000  APC2000     0.3377
     24  N7         7.8680    7.1500    6.4650 N.2   2000  APC2000    -0.2095
     25  C5         8.0730    7.9190    5.3310 C.2   2000  APC2000     0.2526
     26  C6         9.2290    8.4840    4.8150 C.2   2000  APC2000     0.4393
     27  N6        10.4300    8.3320    5.4320 N.pl3 2000  APC2000     0.2180
     28  N1         9.1330    9.2060    3.6510 N.2   2000  APC2000     0.0021
     29  C2         7.9000    9.3360    3.0670 C.3   2000  APC2000     0.5254
     30  N3         6.7040    8.8190    3.4830 N.2   2000  APC2000    -0.0055
     31  C4         6.8780    8.1130    4.6370 C.2   2000  APC2000     0.3518
@<TRIPOS>BOND
     1    29    30    1
     2    29    28    1
     3    20    19    1
     4    30    31    2
     5    28    26    2
     6    31    25    1
     7    31    22    1
     8    19    21    1
     9    19    17    1
    10    26    25    1
    11    26    27    1
    12    18    17    1
    13    21    22    1
    14    21    16    1
    15    25    24    2
    16    22    23    1
    17    17    15    1
    18    16    15    1
    19    23    24    1
    20    15    14    1
    21    14    13    1
    22     6     5    2
    23    13     9    1
    24    12     5    1
    25    12     9    1
    26     5     7    1
    27     5     8    1
    28     9    10    2
    29     9    11    1
    30     8     1    1
    31     1     4    2
    32     1     2    1
    33     1     3    1
