@<TRIPOS>MOLECULE
1s0x_C3S_A_1.pdb
 32 35 0 0 0
SMALL
GASTEIGER

@<TRIPOS>ATOM
      1  C65       29.6650   21.3510   16.2800 C.3   1001  C3S1001     0.0000
      2  C63       28.1710   21.7190   16.5080 C.3   1001  C3S1001     0.0000
      3  C69       27.5610   20.6000   17.3810 C.3   1001  C3S1001     0.0000
      4  C60       28.0790   23.1220   17.1590 C.3   1001  C3S1001     0.0000
      5  C57       26.7490   23.9310   17.0200 C.3   1001  C3S1001     0.0000
      6  C54       26.5370   24.8850   18.2260 C.3   1001  C3S1001     0.0000
      7  C48       25.3390   25.8760   18.1160 C.3   1001  C3S1001     0.0000
      8  C50       25.4160   26.6360   16.7750 C.3   1001  C3S1001     0.0000
      9  C38       23.9980   25.1090   18.1100 C.3   1001  C3S1001     0.0000
     10  C35       23.9030   24.1350   19.3330 C.3   1001  C3S1001     0.0000
     11  C29       22.6350   25.8810   18.0950 C.3   1001  C3S1001     0.0000
     12  C26       22.0770   26.4260   16.7550 C.3   1001  C3S1001     0.0000
     13  C40       22.6630   27.0460   19.1240 C.3   1001  C3S1001     0.0000
     14  C30       21.6870   24.7290   18.4960 C.3   1001  C3S1001     0.0003
     15  C32       22.3830   23.9710   19.6450 C.3   1001  C3S1001     0.0000
     16  C18       20.2720   25.2680   18.8440 C.3   1001  C3S1001     0.0046
     17  C15       19.3940   24.1090   19.3730 C.3   1001  C3S1001     0.0254
     18  C20       19.6590   25.9140   17.5770 C.3   1001  C3S1001     0.0038
     19  C23       20.6320   26.9840   16.9660 C.3   1001  C3S1001     0.0003
     20  C22       18.1870   26.4230   17.7820 C.3   1001  C3S1001     0.0150
     21  C44       18.2010   27.8410   18.4360 C.3   1001  C3S1001     0.0040
     22  C12       17.3840   25.4360   18.6270 C.2   1001  C3S1001    -0.0466
     23  C9        15.8750   25.6220   18.7060 C.3   1001  C3S1001     0.0536
     24  C13       17.9250   24.4270   19.3390 C.2   1001  C3S1001    -0.0345
     25  C1        17.4590   26.5360   16.4180 C.3   1001  C3S1001     0.0063
     26  C4        15.9650   26.9230   16.5760 C.3   1001  C3S1001     0.0326
     27  C7        15.1800   25.8560   17.3610 C.3   1001  C3S1001     0.1472
     28  O6        13.8770   26.3380   17.7730 O.3   1001  C3S1001    -0.2434
     29  S1        12.5910   26.1060   16.9860 S.3   1001  C3S1001    -0.0002
     30  O3        11.4640   26.6560   17.7440 O.3   1001  C3S1001    -0.2682
     31  O2        12.4030   24.7220   16.6170 O.2   1001  C3S1001    -0.3452
     32  O4        12.7700   26.9070   15.7490 O.2   1001  C3S1001    -0.3452
@<TRIPOS>BOND
     1    32    29    2
     2     1     2    1
     3    25    26    1
     4    25    20    1
     5     2     4    1
     6     2     3    1
     7    26    27    1
     8    31    29    2
     9    12    19    1
    10    12    11    1
    11     8     7    1
    12    19    18    1
    13    29    30    1
    14    29    28    1
    15     5     4    1
    16     5     6    1
    17    27    28    1
    18    27    23    1
    19    18    20    1
    20    18    16    1
    21    20    21    1
    22    20    22    1
    23    11     9    1
    24    11    14    1
    25    11    13    1
    26     9     7    1
    27     9    10    1
    28     7     6    1
    29    14    16    1
    30    14    15    1
    31    22    23    1
    32    22    24    2
    33    16    17    1
    34    10    15    1
    35    24    17    1
