@<TRIPOS>MOLECULE
1s0z_EB1_A_1.pdb
 33 35 0 0 0
SMALL
GASTEIGER

@<TRIPOS>ATOM
      1  O2        16.9910   18.1040   34.5460 O.3   510  EB1510     -0.2227
      2  C1        14.1730   18.0340   35.5540 C.3   510  EB1510      0.1765
      3  C2        14.8860   16.9180   34.7320 C.3   510  EB1510      0.0707
      4  C3        15.9250   17.5950   33.7620 C.3   510  EB1510      0.1592
      5  C4        15.3460   18.7890   32.9310 C.3   510  EB1510      0.0591
      6  C5        14.5310   19.7870   33.7580 C.2   510  EB1510     -0.0213
      7  C6        14.8170   21.0950   33.5360 C.2   510  EB1510     -0.0051
      8  C7        14.2100   22.2630   34.1840 C.2   510  EB1510     -0.0088
      9  C8        14.0020   23.4790   33.6500 C.2   510  EB1510     -0.0446
     10  C9        14.3530   23.9540   32.1960 C.3   510  EB1510      0.0220
     11  C10       13.5180   19.1470   34.7300 C.2   510  EB1510      0.0039
     12  C11       13.1570   24.6190   31.4570 C.3   510  EB1510      0.0044
     13  C12       12.3250   25.5940   32.3430 C.3   510  EB1510      0.0006
     14  C13       12.0310   25.0920   33.7940 C.3   510  EB1510      0.0034
     15  C14       13.3440   24.5760   34.4970 C.3   510  EB1510      0.0183
     16  C15       12.9020   24.3370   36.0050 C.3   510  EB1510      0.0040
     17  C16       11.7910   25.3720   36.2800 C.3   510  EB1510      0.0003
     18  C17       11.6820   26.1390   34.9050 C.3   510  EB1510      0.0003
     19  C18       10.9630   23.9330   33.6220 C.3   510  EB1510      0.0003
     20  C19       12.1900   19.4790   34.8610 C.2   510  EB1510     -0.0024
     21  C20       10.3610   27.0000   34.6620 C.3   510  EB1510      0.0000
     22  C21       10.3050   28.4320   35.2580 C.3   510  EB1510      0.0000
     23  C22        9.1060   26.3350   35.0660 C.3   510  EB1510      0.0000
     24  C23        8.2460   26.2570   34.0580 C.3   510  EB1510      0.0001
     25  C24        6.9890   25.6290   34.3100 C.3   510  EB1510      0.0025
     26  C25        5.9140   25.9990   33.6430 C.3   510  EB1510      0.0304
     27  C27        4.4960   25.8450   34.0820 C.3   510  EB1510      0.1266
     28  O1        13.2390   17.4470   36.4160 O.3   510  EB1510     -0.2182
     29  C26        3.9690   24.5980   34.8750 C.3   510  EB1510      0.0304
     30  C28        3.7620   25.9120   32.7660 C.3   510  EB1510      0.0304
     31  O3         4.2700   26.9800   34.9160 O.3   510  EB1510     -0.2257
     32  C30        3.8770   24.5700   31.8820 C.3   510  EB1510      0.0026
     33  C31        4.4970   24.4640   36.2880 C.3   510  EB1510      0.0026
@<TRIPOS>BOND
     1    12    10    1
     2    12    13    1
     3    32    30    1
     4    10     9    1
     5    13    14    1
     6    30    27    1
     7     5     6    1
     8     5     4    1
     9     7     6    2
    10     7     8    1
    11    19    14    1
    12    26    27    1
    13    26    25    1
    14     9     8    2
    15     9    15    1
    16     6    11    1
    17     4     1    1
    18     4     3    1
    19    14    15    1
    20    14    18    1
    21    24    25    1
    22    24    23    1
    23    27    29    1
    24    27    31    1
    25    15    16    1
    26    21    18    1
    27    21    23    1
    28    21    22    1
    29    11    20    2
    30    11     2    1
    31     3     2    1
    32    29    33    1
    33    18    17    1
    34     2    28    1
    35    16    17    1
