@<TRIPOS>MOLECULE
1s10_DCP_A_1.pdb
 28 29 0 0 0
SMALL
GASTEIGER

@<TRIPOS>ATOM
      1  N1        18.9090   11.9150   10.7350 N.am  804  DCP804     -0.1802
      2  C2        17.5240   12.0930   11.1160 C.1   804  DCP804      0.2756
      3  N3        16.8670   13.2810   10.7190 N.2   804  DCP804     -0.3024
      4  C4        17.5370   14.2640    9.9270 C.2   804  DCP804      0.2346
      5  C5        18.8840   14.0890    9.5450 C.2   804  DCP804      0.0687
      6  C6        19.5560   12.9170    9.9340 C.2   804  DCP804      0.0835
      7  O2        16.9310   11.2520   11.8010 O.2   804  DCP804     -0.1925
      8  N4        16.8940   15.3720    9.5630 N.pl3 804  DCP804     -0.0921
      9  C1'       19.6190   10.6720   11.1580 C.3   804  DCP804      0.2090
     10  C2'       19.4870    9.6010   10.0790 C.3   804  DCP804      0.0874
     11  C3'       20.7930    9.7050    9.3770 C.3   804  DCP804      0.1857
     12  C4'       21.7500    9.9290   10.5030 C.3   804  DCP804      0.1773
     13  O4'       21.0780   10.8540   11.3700 O.3   804  DCP804     -0.3339
     14  O3'       21.0450    8.4890    8.8330 O.3   804  DCP804     -0.2203
     15  C5'       23.0790   10.6130   10.1230 C.3   804  DCP804      0.1812
     16  O5'       23.0840   11.9380    9.4310 O.3   804  DCP804     -0.3112
     17  PA        23.7930   12.4130    8.1640 P.3   804  DCP804      0.2189
     18  O1A       25.1740   12.0080    8.1850 O.3   804  DCP804     -0.4371
     19  O2A       23.4600   13.8410    7.9750 O.2   804  DCP804     -0.5170
     20  O3A       23.0920   11.5990    7.0890 O.3   804  DCP804     -0.2700
     21  PB        23.4300   10.1540    6.4170 P.3   804  DCP804      0.2277
     22  O1B       22.1360    9.5300    6.4260 O.2   804  DCP804     -0.5168
     23  O2B       24.4630    9.4200    7.0920 O.3   804  DCP804     -0.4368
     24  O3B       23.9790   10.3350    4.9900 O.3   804  DCP804     -0.2258
     25  PG        25.2960   10.9600    4.3740 P.3   804  DCP804      0.5373
     26  O1G       26.2180   11.0330    5.4610 O.3   804  DCP804     -0.1143
     27  O2G       25.1720   12.2280    3.6660 O.3   804  DCP804     -0.1143
     28  O3G       25.6430    9.9850    3.3500 O.2   804  DCP804     -0.2221
@<TRIPOS>BOND
     1    28    25    2
     2    27    25    1
     3    25    24    1
     4    25    26    1
     5    24    21    1
     6    21    22    2
     7    21    20    1
     8    21    23    1
     9    20    17    1
    10    19    17    2
    11    17    18    1
    12    17    16    1
    13    14    11    1
    14    11    10    1
    15    11    12    1
    16    16    15    1
    17     5     4    1
    18     5     6    2
    19     8     4    1
    20     4     3    2
    21     6     1    1
    22    10     9    1
    23    15    12    1
    24    12    13    1
    25     3     2    2
    26     1     2   am
    27     1     9    1
    28     2     7    2
    29     9    13    1
