@<TRIPOS>MOLECULE
1s13_2FH_A_1.pdb
 43 51 0 0 0
SMALL
GASTEIGER

@<TRIPOS>ATOM
      1 FE         23.3860   23.4530   12.7410 Fe    300  2FH300      0.0000
      2  CHA       20.7080   25.2620   14.1870 C.2   300  2FH300      0.0000
      3  CHB       22.3810   24.4290    9.6030 C.2   300  2FH300      0.0000
      4  CHC       26.1280   21.9500   11.4000 C.2   300  2FH300      0.0000
      5  CHD       24.4230   22.3090   15.7970 C.2   300  2FH300      0.0000
      6  NA        21.8530   24.5460   12.0430 N.ar  300  2FH300      0.0000
      7  C1A       20.8330   25.2110   12.7340 C.ar  300  2FH300      0.0000
      8  C2A       19.9250   25.8600   11.7520 C.ar  300  2FH300      0.0000
      9  C3A       20.3980   25.5920   10.4980 C.ar  300  2FH300      0.0000
     10  C4A       21.5840   24.8060   10.6790 C.ar  300  2FH300      0.0000
     11  NB        24.0960   23.2410   10.8900 N.2   300  2FH300      0.0000
     12  C1B       23.5600   23.7050    9.6940 C.2   300  2FH300      0.0000
     13  C2B       24.3820   23.3320    8.5540 C.2   300  2FH300      0.0000
     14  C3B       25.4280   22.6390    9.0640 C.2   300  2FH300      0.0000
     15  C4B       25.2540   22.5800   10.5100 C.2   300  2FH300      0.0000
     16  CMB       24.1330   23.6520    7.0650 C.3   300  2FH300      0.0000
     17  CAB       26.4670   22.0870    8.3240 C.3   300  2FH300      0.0000
     18  CBB       26.2860   20.7620    7.7650 C.3   300  2FH300      0.0000
     19  NC        24.9470   22.3990   13.4050 N.ar  300  2FH300      0.0000
     20  C1C       26.0210   21.8700   12.6700 C.ar  300  2FH300      0.0000
     21  C2C       26.9730   21.1670   13.5290 C.ar  300  2FH300      0.0000
     22  C3C       26.4680   21.2530   14.7890 C.ar  300  2FH300      0.0000
     23  C4C       25.2250   22.0150   14.7050 C.ar  300  2FH300      0.0000
     24  CMC       28.2800   20.4520   13.1290 C.3   300  2FH300      0.0000
     25  CAC       27.0330   20.7120   15.9530 C.3   300  2FH300      0.0000
     26  CBC       26.7800   19.3560   16.3950 C.3   300  2FH300      0.0000
     27  ND        22.6580   23.5500   14.6330 N.2   300  2FH300      0.0000
     28  C1D       23.2460   23.0060   15.7840 C.2   300  2FH300      0.0000
     29  C2D       22.4820   23.2600   16.9670 C.2   300  2FH300      0.0000
     30  C3D       21.3990   23.9230   16.5730 C.2   300  2FH300      0.0000
     31  C4D       21.4860   24.1570   15.1170 C.2   300  2FH300      0.0000
     32  CMD       22.8180   22.8230   18.3970 C.3   300  2FH300      0.0000
     33  CAD       20.6370   24.8970   17.4950 C.3   300  2FH300      0.0000
     34  CBD       19.4200   24.2390   18.1290 C.3   300  2FH300      0.0000
     35  CGD       18.4060   25.2120   18.6760 C.2   300  2FH300      0.0000
     36  O1D       18.7400   25.9940   19.5940 O.co2 300  2FH300      0.0000
     37  O2D       17.2600   25.1850   18.1880 O.co2 300  2FH300      0.0000
     38  CG        19.8210   26.4310   14.7180 C.ar  300  2FH300      0.0000
     39  CD1       18.4260   26.2310   14.9540 C.ar  300  2FH300      0.0000
     40  CD2       20.3820   27.7110   14.9810 C.ar  300  2FH300      0.0000
     41  CE1       17.6160   27.2840   15.4410 C.ar  300  2FH300      0.0000
     42  CE2       19.5680   28.7670   15.4670 C.ar  300  2FH300      0.0000
     43  CZ        18.1850   28.5510   15.6970 C.ar  300  2FH300      0.0000
@<TRIPOS>BOND
     1    16    13    1
     2    18    17    1
     3    17    14    1
     4    13    14    2
     5    13    12    1
     6    14    15    1
     7     3    12    1
     8     3    10    2
     9    12    11    2
    10     9    10   ar
    11     9     8   ar
    12    15    11    1
    13    15     4    2
    14    10     6   ar
    15    11     1    1
    16     4    20    1
    17     8     7   ar
    18     6     7   ar
    19     6     1    1
    20    20    19   ar
    21    20    21   ar
    22     7     2    2
    23     1    19    1
    24     1    27    1
    25    24    21    1
    26    19    23   ar
    27    21    22   ar
    28     2    38    1
    29     2    31    1
    30    27    31    2
    31    27    28    1
    32    23    22   ar
    33    23     5    1
    34    38    39   ar
    35    38    40   ar
    36    22    25    1
    37    39    41   ar
    38    40    42   ar
    39    31    30    1
    40    41    43   ar
    41    42    43   ar
    42    28     5    2
    43    28    29    1
    44    25    26    1
    45    30    29    2
    46    30    33    1
    47    29    32    1
    48    33    34    1
    49    34    35    1
    50    37    35   ar
    51    35    36   ar
