@<TRIPOS>MOLECULE
1s14_NOV_A_1.pdb
 44 47 0 0 0
SMALL
GASTEIGER

@<TRIPOS>ATOM
      1  C1        16.7410   28.9920   52.6790 C.3   1300  NOV1300     0.1743
      2  O1        17.5520   27.9330   52.1920 O.3   1300  NOV1300    -0.3474
      3  N1        21.4670   30.8390   52.2530 N.am  1300  NOV1300    -0.0475
      4  C12       21.3150   29.5220   52.3340 C.2   1300  NOV1300     0.4411
      5  O4        22.1350   28.7620   51.9120 O.2   1300  NOV1300    -0.2228
      6  O5        20.0590   29.1020   52.9820 O.3   1300  NOV1300    -0.4307
      7  C27       18.3150   27.3140   53.2060 C.3   1300  NOV1300     0.1826
      8  C28       19.8200   27.6430   53.0320 C.3   1300  NOV1300     0.2362
      9  C29       20.6110   27.0950   54.2370 C.3   1300  NOV1300     0.2636
     10  O6        20.1320   27.5590   55.3390 O.3   1300  NOV1300    -0.2123
     11  C30       20.4210   25.5780   54.2220 C.3   1300  NOV1300     0.3228
     12  O7        19.0280   25.1950   54.2990 O.3   1300  NOV1300    -0.3209
     13  C31       18.0880   25.7920   53.2440 C.3   1300  NOV1300     0.1248
     14  C23       18.2810   25.1340   51.8420 C.3   1300  NOV1300     0.0324
     15  C26       16.6820   25.4430   53.7310 C.3   1300  NOV1300     0.0324
     16  O8        21.0010   25.2030   52.9670 O.3   1300  NOV1300    -0.4507
     17  C3        21.3150   23.9120   52.7090 C.ar  1300  NOV1300     0.1403
     18  C4        22.0810   23.6960   51.5030 C.ar  1300  NOV1300     0.0469
     19  C2        22.5330   24.8090   50.6390 C.3   1300  NOV1300     0.0374
     20  C5        22.4880   22.3010   51.2000 C.ar  1300  NOV1300     0.1507
     21  C9        22.1480   21.1390   52.0800 C.ar  1300  NOV1300     0.0750
     22  C10       21.3600   21.4370   53.2890 C.ar  1300  NOV1300     0.0094
     23  C11       20.9480   22.7920   53.6010 C.ar  1300  NOV1300     0.0370
     24  O10       23.2330   21.9920   50.0930 O.2   1300  NOV1300    -0.4202
     25  C6        23.6410   20.7680   49.8010 C.ar  1300  NOV1300     0.3645
     26  O11       24.2540   20.6650   48.7410 O.2   1300  NOV1300    -0.2429
     27  C7        23.3370   19.5440   50.6720 C.ar  1300  NOV1300     0.1882
     28  C8        22.5760   19.7660   51.8120 C.ar  1300  NOV1300     0.2201
     29  O9        22.1910   18.6550   52.5440 O.3   1300  NOV1300    -0.2848
     30  N2        23.7620   18.2710   50.2890 N.am  1300  NOV1300    -0.1656
     31  C13       23.4610   17.6020   49.1450 C.2   1300  NOV1300     0.2693
     32  O2        24.3010   16.8010   48.7510 O.2   1300  NOV1300    -0.2680
     33  C14       22.1410   17.8510   48.4020 C.ar  1300  NOV1300     0.0553
     34  C15       20.8750   17.8980   49.1590 C.ar  1300  NOV1300     0.0038
     35  C16       19.5960   18.2150   48.5120 C.ar  1300  NOV1300     0.0212
     36  C17       19.5940   18.4830   47.0680 C.ar  1300  NOV1300     0.1920
     37  O3        18.4370   18.7510   46.3960 O.3   1300  NOV1300    -0.2869
     38  C18       20.8530   18.4320   46.3010 C.ar  1300  NOV1300     0.0419
     39  C19       22.1240   18.1150   46.9660 C.ar  1300  NOV1300     0.0078
     40  C20       18.3510   18.2120   49.3940 C.3   1300  NOV1300     0.0549
     41  C21       17.6500   19.5720   49.4670 C.2   1300  NOV1300    -0.0298
     42  C22       17.6940   20.4700   50.4630 C.2   1300  NOV1300    -0.0475
     43  C24       16.9410   21.7660   50.3060 C.3   1300  NOV1300     0.0260
     44  C25       18.4520   20.2080   51.7450 C.3   1300  NOV1300     0.0260
@<TRIPOS>BOND
     1    38    39   ar
     2    38    36   ar
     3    37    36    1
     4    39    33   ar
     5    36    35   ar
     6    33    31    1
     7    33    34   ar
     8    35    34   ar
     9    35    40    1
    10    26    25    2
    11    32    31    2
    12    31    30   am
    13    40    41    1
    14    41    42    2
    15    25    24   ar
    16    25    27   ar
    17    24    20   ar
    18    30    27    1
    19    43    42    1
    20    42    44    1
    21    19    18    1
    22    27    28   ar
    23    20    18   ar
    24    20    21   ar
    25    18    17   ar
    26    28    21   ar
    27    28    29    1
    28    14    13    1
    29     5     4    2
    30    21    22   ar
    31     2     1    1
    32     2     7    1
    33     3     4   am
    34     4     6    1
    35    17    16    1
    36    17    23   ar
    37    16    11    1
    38     6     8    1
    39     8     7    1
    40     8     9    1
    41     7    13    1
    42    13    15    1
    43    13    12    1
    44    22    23   ar
    45    11     9    1
    46    11    12    1
    47     9    10    1
