@<TRIPOS>MOLECULE
1s16_ANP_A_1.pdb
 31 33 0 0 0
SMALL
GASTEIGER

@<TRIPOS>ATOM
      1  PG        18.8100   53.6960   -7.2840 P.3   1500  ANP1500     0.4884
      2  O1G       20.2510   53.6930   -7.8100 O.2   1500  ANP1500    -0.2331
      3  O2G       18.6590   52.6030   -6.2320 O.3   1500  ANP1500    -0.1240
      4  O3G       18.5550   55.0050   -6.6180 O.3   1500  ANP1500    -0.1240
      5  PB        16.1740   53.8720   -8.5490 P.3   1500  ANP1500     0.4669
      6  O1B       15.5130   53.1610   -9.6890 O.2   1500  ANP1500    -0.2351
      7  O2B       15.5190   53.4380   -7.2080 O.3   1500  ANP1500    -0.1253
      8  N3B       17.7340   53.4750   -8.4780 N.3   1500  ANP1500    -0.0163
      9  PA        16.2650   56.4510   -9.8090 P.3   1500  ANP1500     0.2220
     10  O1A       16.3150   57.8750   -9.2910 O.3   1500  ANP1500    -0.4370
     11  O2A       17.5510   56.0850  -10.4570 O.2   1500  ANP1500    -0.5170
     12  O3A       15.9140   55.4490   -8.5820 O.3   1500  ANP1500    -0.2360
     13  O5'       15.1390   56.3310  -10.8620 O.3   1500  ANP1500    -0.3111
     14  C5'       13.7910   56.6690  -10.4280 C.3   1500  ANP1500     0.1813
     15  C4'       12.6900   55.8530  -11.1050 C.3   1500  ANP1500     0.1821
     16  O4'       12.5400   56.2590  -12.4600 O.3   1500  ANP1500    -0.3135
     17  C3'       13.0690   54.3580  -11.1680 C.3   1500  ANP1500     0.2184
     18  O3'       12.7550   53.6860   -9.8990 O.3   1500  ANP1500    -0.2174
     19  C2'       12.1220   53.8980  -12.2930 C.3   1500  ANP1500     0.2570
     20  O2'       10.7460   53.8600  -11.8500 O.3   1500  ANP1500    -0.2130
     21  C1'       12.3170   55.0940  -13.2470 C.3   1500  ANP1500     0.3186
     22  N9        13.2230   54.9080  -14.3880 N.pl3 1500  ANP1500    -0.1439
     23  C8        14.5340   55.3240  -14.3960 C.3   1500  ANP1500     0.3377
     24  N7        15.1640   54.9070  -15.5090 N.2   1500  ANP1500    -0.2095
     25  C5        14.2900   54.2200  -16.2420 C.2   1500  ANP1500     0.2526
     26  C6        14.2980   53.5260  -17.4780 C.2   1500  ANP1500     0.4393
     27  N6        15.4510   53.4650  -18.2500 N.pl3 1500  ANP1500     0.2180
     28  N1        13.1430   52.9050  -17.9130 N.2   1500  ANP1500     0.0021
     29  C2        11.9220   52.8850  -17.2550 C.3   1500  ANP1500     0.5254
     30  N3        11.8200   53.5410  -16.0350 N.2   1500  ANP1500    -0.0055
     31  C4        12.9790   54.2000  -15.5250 C.2   1500  ANP1500     0.3518
@<TRIPOS>BOND
     1    27    26    1
     2    28    26    2
     3    28    29    1
     4    26    25    1
     5    29    30    1
     6    25    31    1
     7    25    24    2
     8    30    31    2
     9    31    22    1
    10    24    23    1
    11    23    22    1
    12    22    21    1
    13    21    16    1
    14    21    19    1
    15    16    15    1
    16    19    20    1
    17    19    17    1
    18    17    15    1
    19    17    18    1
    20    15    14    1
    21    13    14    1
    22    13     9    1
    23    11     9    2
    24     9    10    1
    25     9    12    1
    26     6     5    2
    27    12     5    1
    28     5     8    1
    29     5     7    1
    30     8     1    1
    31     2     1    2
    32     1     4    1
    33     1     3    1
