@<TRIPOS>MOLECULE
1s17_GNR_A_1.pdb
 16 17 0 0 0
SMALL
GASTEIGER

@<TRIPOS>ATOM
      1  OAM       56.2630   52.2270   37.8260 O.2   501  GNR501     -0.2133
      2  CAH       56.1400   51.3030   37.0290 C.1   501  GNR501      0.1899
      3  NAG       57.1640   50.9900   36.1660 N.2   501  GNR501     -0.3393
      4  CAD       57.1510   50.0330   35.1640 C.2   501  GNR501      0.1316
      5  CAC       58.3470   49.7510   34.4790 C.3   501  GNR501      0.0864
      6  CAB       58.3850   48.7380   33.5020 C.2   501  GNR501     -0.0186
      7  CAA       57.2300   47.9950   33.2020 C.2   501  GNR501     -0.0036
      8  CAF       56.0280   48.2600   33.8790 C.2   501  GNR501      0.0081
      9  CAE       55.9940   49.2710   34.8450 C.2   501  GNR501      0.0529
     10  SAJ       54.4320   49.7140   35.6280 S.3   501  GNR501     -0.0940
     11  CAI       55.0030   50.2990   37.2470 C.3   501  GNR501      0.1759
     12  CAK       53.8700   50.8890   38.0840 C.3   501  GNR501      0.0802
     13  CAL       52.9440   49.7290   38.5140 C.2   501  GNR501      0.0889
     14  OAN       53.2490   48.9950   39.4450 O.2   501  GNR501     -0.5395
     15  NAO       51.8630   49.5530   37.7590 N.am  501  GNR501     -0.2029
     16  OAP       50.9930   48.5650   38.0470 O.3   501  GNR501     -0.4026
@<TRIPOS>BOND
     1     7     6    2
     2     7     8    1
     3     6     5    1
     4     8     9    2
     5     5     4    1
     6     9     4    1
     7     9    10    1
     8     4     3    2
     9    10    11    1
    10     3     2    2
    11     2    11    1
    12     2     1    2
    13    11    12    1
    14    15    16    1
    15    15    13   am
    16    12    13    1
    17    13    14    2
