@<TRIPOS>MOLECULE
1s19_MC9_A_1.pdb
 30 33 0 0 0
SMALL
GASTEIGER

@<TRIPOS>ATOM
      1  O2        17.0960   18.1590   34.7840 O.3   500  MC9500     -0.2227
      2  O1        13.1260   17.4540   36.5350 O.3   500  MC9500     -0.2227
      3  C1        14.1810   18.0370   35.6980 C.3   500  MC9500      0.1582
      4  C2        14.9150   16.9590   34.7840 C.3   500  MC9500      0.0664
      5  C3        16.0750   17.6280   33.8850 C.3   500  MC9500      0.1586
      6  C4        15.4830   18.8070   32.9870 C.3   500  MC9500      0.0550
      7  C5        14.6780   19.8850   33.7870 C.2   500  MC9500     -0.0396
      8  C6        14.8630   21.2550   33.6570 C.2   500  MC9500     -0.0090
      9  C7        14.2010   22.4150   34.3140 C.2   500  MC9500     -0.0091
     10  C8        13.9860   23.6240   33.8520 C.2   500  MC9500     -0.0446
     11  C9        14.4350   24.1110   32.3790 C.3   500  MC9500      0.0220
     12  C10       13.6010   19.1950   34.7730 C.3   500  MC9500      0.0489
     13  C11       13.1870   24.6460   31.4910 C.3   500  MC9500      0.0044
     14  C12       12.2310   25.5920   32.3910 C.3   500  MC9500      0.0006
     15  C13       11.8140   25.1290   33.9600 C.3   500  MC9500      0.0038
     16  C14       13.2500   24.7290   34.6670 C.3   500  MC9500      0.0183
     17  C15       12.6990   24.3720   36.2220 C.3   500  MC9500      0.0040
     18  C16       11.4750   25.3840   36.3800 C.3   500  MC9500      0.0007
     19  C17       11.4180   26.1800   35.0200 C.3   500  MC9500      0.0043
     20  C18       10.7870   23.7830   33.6420 C.3   500  MC9500      0.0003
     21  C19       12.2570   19.5560   34.8130 C.3   500  MC9500      0.0070
     22  C20        9.9380   26.8860   34.7250 C.3   500  MC9500      0.0218
     23  C22        8.6080   26.1550   35.0790 C.2   500  MC9500     -0.0285
     24  C24        6.1080   25.6110   34.6940 C.3   500  MC9500      0.1736
     25  C21        9.8650   28.2480   35.4480 C.3   500  MC9500      0.0047
     26  C25        5.5480   24.5800   33.5850 C.3   500  MC9500      0.0347
     27  C26        5.0380   25.5240   32.4720 C.3   500  MC9500      0.0030
     28  C27        4.2940   24.3490   33.2310 C.3   500  MC9500      0.0030
     29  O3         5.2530   26.7520   34.9730 O.3   500  MC9500     -0.2183
     30  C23        7.5040   26.0930   34.2820 C.2   500  MC9500      0.0015
@<TRIPOS>BOND
     1    13    11    1
     2    13    14    1
     3    11    10    1
     4    14    15    1
     5    27    28    1
     6    27    26    1
     7     6     7    1
     8     6     5    1
     9    28    26    1
    10    26    24    1
    11    20    15    1
    12     8     7    2
    13     8     9    1
    14     7    12    1
    15    10     9    2
    16    10    16    1
    17     5     1    1
    18     5     4    1
    19    15    16    1
    20    15    19    1
    21    30    24    1
    22    30    23    2
    23    16    17    1
    24    24    29    1
    25    22    19    1
    26    22    23    1
    27    22    25    1
    28    12    21    1
    29    12     3    1
    30     4     3    1
    31    19    18    1
    32     3     2    1
    33    17    18    1
