@<TRIPOS>MOLECULE
1s1a_MAN_A_1.pdb
 11 11 0 0 0
SMALL
GASTEIGER

@<TRIPOS>ATOM
      1  C1         4.5870   42.1580   26.0020 C.3   253  MAN253      0.1777
      2  C2         3.4810   41.3380   25.3290 C.3   253  MAN253      0.2141
      3  C3         2.9230   40.2990   26.3100 C.3   253  MAN253      0.2173
      4  C4         4.0520   39.4460   26.9040 C.3   253  MAN253      0.2142
      5  C5         5.1400   40.3480   27.5010 C.3   253  MAN253      0.1810
      6  C6         6.3500   39.5730   27.9870 C.3   253  MAN253      0.2141
      7  O2         4.0040   40.6760   24.1610 O.3   253  MAN253     -0.2176
      8  O3         1.9900   39.4620   25.6420 O.3   253  MAN253     -0.2175
      9  O4         3.5240   38.6050   27.9180 O.3   253  MAN253     -0.2176
     10  O5         5.6030   41.2900   26.5060 O.3   253  MAN253     -0.3481
     11  O6         7.0380   38.9650   26.9050 O.3   253  MAN253     -0.2176
@<TRIPOS>BOND
     1     7     2    1
     2     2     1    1
     3     2     3    1
     4     8     3    1
     5     1    10    1
     6     3     4    1
     7    10     5    1
     8     4     5    1
     9     4     9    1
    10    11     6    1
    11     5     6    1
