@<TRIPOS>MOLECULE
1s1a_MMA_A_1.pdb
 13 13 0 0 0
SMALL
GASTEIGER

@<TRIPOS>ATOM
      1  C1         6.1950   44.5210   29.6830 C.3   254  MMA254      0.2695
      2  C2         5.2510   43.4890   29.0560 C.3   254  MMA254      0.2406
      3  C3         4.9540   43.8970   27.6100 C.3   254  MMA254      0.2198
      4  C4         4.3710   45.3080   27.5770 C.3   254  MMA254      0.2144
      5  C5         5.3350   46.2750   28.2760 C.3   254  MMA254      0.1835
      6  C6         4.7710   47.6790   28.3690 C.3   254  MMA254      0.2142
      7  C7         8.4390   45.3310   29.5300 C.3   254  MMA254      0.1769
      8  O1         7.3870   44.5530   28.9730 O.3   254  MMA254     -0.3259
      9  O2         4.0420   43.4310   29.8050 O.3   254  MMA254     -0.2149
     10  O3         4.0320   42.9700   27.0050 O.3   254  MMA254     -0.2174
     11  O4         4.1750   45.7130   26.2300 O.3   254  MMA254     -0.2176
     12  O5         5.6000   45.8300   29.6290 O.3   254  MMA254     -0.3256
     13  O6         3.4590   47.6690   28.9110 O.3   254  MMA254     -0.2176
@<TRIPOS>BOND
     1    11     4    1
     2    10     3    1
     3     4     3    1
     4     4     5    1
     5     3     2    1
     6     5     6    1
     7     5    12    1
     8     6    13    1
     9     8     7    1
    10     8     1    1
    11     2     1    1
    12     2     9    1
    13    12     1    1
