@<TRIPOS>MOLECULE
1s1c_GNP_A_1.pdb
 32 34 0 0 0
SMALL
GASTEIGER

@<TRIPOS>ATOM
      1  PG        17.0180   10.0250   19.9670 P.3   200  GNP200      0.4884
      2  O1G       17.5100   10.8680   18.8800 O.2   200  GNP200     -0.2331
      3  O2G       16.9660   10.8080   21.1610 O.3   200  GNP200     -0.1240
      4  O3G       18.1200    8.9320   20.3620 O.3   200  GNP200     -0.1240
      5  N3B       15.5960    9.3330   19.5490 N.3   200  GNP200     -0.0163
      6  PB        14.6510    8.3090   20.4230 P.3   200  GNP200      0.4669
      7  O1B       15.1910    6.9460   20.5410 O.2   200  GNP200     -0.2351
      8  O2B       14.2890    8.8270   21.7640 O.3   200  GNP200     -0.1253
      9  O3A       13.2990    8.1790   19.5950 O.3   200  GNP200     -0.2360
     10  PA        11.8110    8.8320   19.9820 P.3   200  GNP200      0.2220
     11  O1A       11.2760    8.1950   21.2240 O.3   200  GNP200     -0.4370
     12  O2A       11.8610   10.3260   19.9180 O.2   200  GNP200     -0.5170
     13  O5'       11.0150    8.2920   18.7260 O.3   200  GNP200     -0.3111
     14  C5'       11.4570    8.5220   17.3630 C.3   200  GNP200      0.1813
     15  C4'       10.3140    8.2930   16.3630 C.3   200  GNP200      0.1799
     16  O4'        9.7370    6.9590   16.5210 O.3   200  GNP200     -0.3326
     17  C3'        9.1580    9.3260   16.5560 C.3   200  GNP200      0.2158
     18  O3'        8.6860    9.8810   15.3000 O.3   200  GNP200     -0.2175
     19  C2'        8.1040    8.4920   17.2850 C.3   200  GNP200      0.2310
     20  O2'        6.7570    8.9000   17.0470 O.3   200  GNP200     -0.2158
     21  C1'        8.3290    7.0690   16.7800 C.3   200  GNP200      0.2293
     22  N9         7.9090    6.0460   17.7870 N.pl3 200  GNP200     -0.2354
     23  C8         8.2290    5.9730   19.1310 C.3   200  GNP200      0.2246
     24  N7         7.7150    4.9770   19.7600 N.2   200  GNP200     -0.2322
     25  C5         6.9910    4.3120   18.7890 C.2   200  GNP200      0.2182
     26  C6         6.1930    3.1230   18.8820 C.1   200  GNP200      0.2372
     27  O6         5.9870    2.4260   19.8840 O.2   200  GNP200     -0.2069
     28  N1         5.6140    2.7810   17.6380 N.2   200  GNP200     -0.2485
     29  C2         5.7690    3.4840   16.4480 C.1   200  GNP200      0.2531
     30  N2         5.1330    3.0110   15.3600 N.pl3 200  GNP200     -0.0226
     31  N3         6.5300    4.6100   16.3770 N.2   200  GNP200     -0.3074
     32  C4         7.1010    4.9620   17.5660 C.2   200  GNP200      0.2300
@<TRIPOS>BOND
     1    18    17    1
     2    30    29    1
     3    15    16    1
     4    15    17    1
     5    15    14    1
     6    31    29    2
     7    31    32    2
     8    29    28    2
     9    16    21    1
    10    17    19    1
    11    21    19    1
    12    21    22    1
    13    20    19    1
    14    14    13    1
    15    32    22    1
    16    32    25    1
    17    28    26    2
    18    22    23    1
    19    13    10    1
    20    25    26    1
    21    25    24    2
    22     2     1    2
    23    26    27    2
    24    23    24    1
    25     5     1    1
    26     5     6    1
    27     9    10    1
    28     9     6    1
    29    12    10    2
    30     1     4    1
    31     1     3    1
    32    10    11    1
    33     6     7    2
    34     6     8    1
