@<TRIPOS>MOLECULE
1s1f_HEM_A_1.pdb
 43 50 0 0 0
SMALL
GASTEIGER

@<TRIPOS>ATOM
      1  CHA       25.9580   29.1210   61.3030 C.2   430  HEM430      0.0000
      2  CHB       30.5640   29.8350   62.5590 C.2   430  HEM430      0.0000
      3  CHC       31.8230   30.0420   57.9070 C.2   430  HEM430      0.0000
      4  CHD       27.2240   29.2820   56.6310 C.2   430  HEM430      0.0000
      5  C1A       27.0880   29.2810   62.0690 C.2   430  HEM430      0.0000
      6  C2A       27.1550   29.2960   63.5300 C.2   430  HEM430      0.0000
      7  C3A       28.4370   29.4760   63.8680 C.2   430  HEM430      0.0000
      8  C4A       29.2110   29.6040   62.6530 C.2   430  HEM430      0.0000
      9  CMA       29.0270   29.5660   65.2820 C.3   430  HEM430      0.0000
     10  CAA       25.9380   29.1570   64.4720 C.3   430  HEM430      0.0000
     11  CBA       25.4640   27.7810   64.8900 C.3   430  HEM430      0.0000
     12  CGA       24.1840   27.9120   65.7250 C.2   430  HEM430      0.0000
     13  O1A       24.2200   27.3840   66.8810 O.co2 430  HEM430      0.0000
     14  O2A       23.2260   28.5250   65.2520 O.co2 430  HEM430      0.0000
     15  C1B       31.3040   29.9770   61.4220 C.ar  430  HEM430      0.0000
     16  C2B       32.7370   30.2450   61.3990 C.ar  430  HEM430      0.0000
     17  C3B       33.0980   30.3140   60.0680 C.ar  430  HEM430      0.0000
     18  C4B       31.9020   30.0810   59.2930 C.ar  430  HEM430      0.0000
     19  CMB       33.5980   30.4070   62.6690 C.3   430  HEM430      0.0000
     20  CAB       34.4630   30.5810   59.3690 C.3   430  HEM430      0.0000
     21  CBB       35.7530   30.3100   60.1570 C.3   430  HEM430      0.0000
     22  C1C       30.6780   29.8240   57.1560 C.2   430  HEM430      0.0000
     23  C2C       30.6560   29.7530   55.6870 C.2   430  HEM430      0.0000
     24  C3C       29.3720   29.5430   55.3300 C.2   430  HEM430      0.0000
     25  C4C       28.5870   29.4700   56.5460 C.2   430  HEM430      0.0000
     26  CMC       31.9200   29.9040   54.7960 C.3   430  HEM430      0.0000
     27  CAC       28.7540   29.3910   53.9320 C.3   430  HEM430      0.0000
     28  CBC       28.9930   28.0380   53.2740 C.3   430  HEM430      0.0000
     29  C1D       26.4590   29.1930   57.7750 C.ar  430  HEM430      0.0000
     30  C2D       25.0160   28.9940   57.8340 C.ar  430  HEM430      0.0000
     31  C3D       24.6640   28.9370   59.1460 C.ar  430  HEM430      0.0000
     32  C4D       25.8810   29.1150   59.9130 C.ar  430  HEM430      0.0000
     33  CMD       24.0800   28.8610   56.6080 C.3   430  HEM430      0.0000
     34  CAD       23.2440   28.7170   59.7100 C.3   430  HEM430      0.0000
     35  CBD       23.0470   27.1750   59.9220 C.3   430  HEM430      0.0000
     36  CGD       21.7060   26.7410   60.4760 C.2   430  HEM430      0.0000
     37  O1D       21.2370   25.6420   60.1130 O.co2 430  HEM430      0.0000
     38  O2D       21.1690   27.5140   61.3040 O.co2 430  HEM430      0.0000
     39  NA        28.3570   29.4720   61.5680 N.2   430  HEM430      0.0000
     40  NB        30.8090   29.8930   60.1200 N.ar  430  HEM430      0.0000
     41  NC        29.4060   29.6270   57.6600 N.2   430  HEM430      0.0000
     42  ND        26.9840   29.2790   59.0700 N.ar  430  HEM430      0.0000
     43 FE         28.8770   29.5630   59.6010 Fe    430  HEM430      0.0000
@<TRIPOS>BOND
     1    28    27    1
     2    27    24    1
     3    26    23    1
     4    24    23    2
     5    24    25    1
     6    23    22    1
     7    25     4    1
     8    25    41    2
     9    33    30    1
    10     4    29    2
    11    22    41    1
    12    22     3    2
    13    41    43    1
    14    29    30   ar
    15    29    42   ar
    16    30    31   ar
    17     3    18    1
    18    42    43    1
    19    42    32   ar
    20    31    34    1
    21    31    32   ar
    22    18    17   ar
    23    18    40   ar
    24    20    17    1
    25    20    21    1
    26    43    40    1
    27    43    39    1
    28    34    35    1
    29    32     1    2
    30    35    36    1
    31    17    16   ar
    32    37    36   ar
    33    40    15   ar
    34    36    38   ar
    35     1     5    1
    36    16    15   ar
    37    16    19    1
    38    15     2    1
    39    39     5    2
    40    39     8    1
    41     5     6    1
    42     2     8    2
    43     8     7    1
    44     6     7    2
    45     6    10    1
    46     7     9    1
    47    10    11    1
    48    11    12    1
    49    14    12   ar
    50    12    13   ar
