@<TRIPOS>MOLECULE
1s1f_PIM_A_1.pdb
 11 12 0 0 0
SMALL
GASTEIGER

@<TRIPOS>ATOM
      1  N1        28.6070   33.8030   59.0330 N.2   431  PIM431     -0.2267
      2  C2        28.9060   32.4930   58.7290 C.2   431  PIM431      0.1943
      3  N3        28.3810   31.7520   59.5790 N.2   431  PIM431     -0.2436
      4  C4        27.7200   32.4790   60.4760 C.3   431  PIM431      0.1726
      5  C5        27.8530   33.7820   60.1460 C.2   431  PIM431      0.0853
      6  C6        27.3280   35.0430   60.8040 C.ar  431  PIM431      0.0156
      7  C7        26.8970   34.9910   62.1750 C.ar  431  PIM431      0.0012
      8  C8        26.4060   36.2010   62.7950 C.ar  431  PIM431      0.0000
      9  C9        26.3700   37.3940   62.0270 C.ar  431  PIM431      0.0000
     10  C10       26.7980   37.4360   60.6740 C.ar  431  PIM431      0.0000
     11  C11       27.2770   36.2220   60.0940 C.ar  431  PIM431      0.0012
@<TRIPOS>BOND
     1     2     1    1
     2     2     3    2
     3     1     5    2
     4     3     4    1
     5    11    10   ar
     6    11     6   ar
     7     5     4    1
     8     5     6    1
     9    10     9   ar
    10     6     7   ar
    11     9     8   ar
    12     7     8   ar
