@<TRIPOS>MOLECULE
1s1p_NAP_A_1.pdb
 48 52 0 0 0
SMALL
GASTEIGER

@<TRIPOS>ATOM
      1  PA        28.9370  -28.3050   51.1970 P.3   1001  NAP1001     0.2189
      2  O1A       28.4260  -26.9270   51.0300 O.2   1001  NAP1001    -0.5170
      3  O2A       30.4330  -28.5180   51.2530 O.3   1001  NAP1001    -0.4371
      4  O5B       28.3630  -29.2720   50.0650 O.3   1001  NAP1001    -0.3112
      5  C5B       27.0000  -29.1960   49.7170 C.3   1001  NAP1001     0.1813
      6  C4B       26.6760  -30.3190   48.7500 C.3   1001  NAP1001     0.1820
      7  O4B       27.4800  -30.1720   47.6050 O.3   1001  NAP1001    -0.3136
      8  C3B       26.9980  -31.7150   49.2700 C.3   1001  NAP1001     0.2157
      9  O3B       25.9060  -32.3130   49.9450 O.3   1001  NAP1001    -0.2175
     10  C2B       27.4410  -32.4820   48.0250 C.3   1001  NAP1001     0.2314
     11  O2B       26.5420  -33.5020   47.6530 O.3   1001  NAP1001    -0.2630
     12  C1B       27.5240  -31.4200   46.9440 C.3   1001  NAP1001     0.3158
     13  N9A       28.7730  -31.4540   46.1720 N.pl3 1001  NAP1001    -0.1439
     14  C8A       30.0390  -31.6890   46.6430 C.3   1001  NAP1001     0.3377
     15  N7A       30.9300  -31.6070   45.6430 N.2   1001  NAP1001    -0.2095
     16  C5A       30.2300  -31.3010   44.5200 C.2   1001  NAP1001     0.2526
     17  C6A       30.6230  -31.0990   43.2060 C.2   1001  NAP1001     0.4393
     18  N6A       31.8930  -31.1710   42.8200 N.pl3 1001  NAP1001     0.2180
     19  N1A       29.6610  -30.8100   42.2780 N.2   1001  NAP1001     0.0021
     20  C2A       28.3420  -30.7170   42.6410 C.3   1001  NAP1001     0.5254
     21  N3A       27.9290  -30.9040   43.9300 N.2   1001  NAP1001    -0.0055
     22  C4A       28.8810  -31.1940   44.8410 C.2   1001  NAP1001     0.3518
     23  O3        28.2670  -29.0240   52.4850 O.3   1001  NAP1001    -0.2703
     24  PN        28.1800  -28.6390   54.0430 P.3   1001  NAP1001     0.2189
     25  O1N       27.9470  -29.9190   54.7500 O.3   1001  NAP1001    -0.4371
     26  O2N       27.2050  -27.5400   54.2390 O.2   1001  NAP1001    -0.5170
     27  O5D       29.6120  -28.0460   54.4420 O.3   1001  NAP1001    -0.3112
     28  C5D       30.7660  -28.8600   54.3690 C.3   1001  NAP1001     0.1813
     29  C4D       31.2410  -29.3300   55.7440 C.3   1001  NAP1001     0.1799
     30  O4D       31.4660  -28.2110   56.5950 O.3   1001  NAP1001    -0.3327
     31  C3D       30.3130  -30.2260   56.5590 C.3   1001  NAP1001     0.2158
     32  O3D       30.2750  -31.5610   56.1010 O.3   1001  NAP1001    -0.2175
     33  C2D       30.9360  -30.0670   57.9250 C.3   1001  NAP1001     0.2309
     34  O2D       32.1210  -30.8340   57.9710 O.3   1001  NAP1001    -0.2158
     35  C1D       31.2510  -28.5690   57.9440 C.3   1001  NAP1001     0.2263
     36  N1N       30.1510  -27.7640   58.5200 N.pl3 1001  NAP1001    -0.2787
     37  C2N       30.3110  -27.1850   59.7220 C.3   1001  NAP1001     0.1244
     38  C3N       29.2940  -26.4160   60.2640 C.2   1001  NAP1001     0.0544
     39  C7N       29.5790  -25.7040   61.5320 C.2   1001  NAP1001     0.2818
     40  O7N       28.5140  -25.2400   62.2370 O.2   1001  NAP1001    -0.2670
     41  N7N       30.8190  -25.5240   61.9510 N.am  1001  NAP1001    -0.0839
     42  C4N       28.0920  -26.2130   59.5860 C.2   1001  NAP1001     0.0033
     43  C5N       27.9450  -26.8030   58.3450 C.2   1001  NAP1001     0.0157
     44  C6N       29.0430  -27.4560   57.8420 C.2   1001  NAP1001     0.0633
     45  P2B       27.1070  -35.0050   47.4620 P.3   1001  NAP1001     0.5328
     46  O1X       27.4970  -35.5150   48.8070 O.3   1001  NAP1001    -0.1145
     47  O2X       25.9270  -35.7760   46.8650 O.3   1001  NAP1001    -0.1145
     48  O3X       28.2880  -34.9460   46.5000 O.2   1001  NAP1001    -0.2224
@<TRIPOS>BOND
     1    19    20    1
     2    19    17    2
     3    20    21    1
     4    18    17    1
     5    17    16    1
     6    21    22    2
     7    16    22    1
     8    16    15    2
     9    22    13    1
    10    15    14    1
    11    13    14    1
    12    13    12    1
    13    48    45    2
    14    47    45    1
    15    12     7    1
    16    12    10    1
    17    45    11    1
    18    45    46    1
    19     7     6    1
    20    11    10    1
    21    10     8    1
    22     6     8    1
    23     6     5    1
    24     8     9    1
    25     5     4    1
    26     4     1    1
    27     2     1    2
    28     1     3    1
    29     1    23    1
    30    23    24    1
    31    24    26    2
    32    24    27    1
    33    24    25    1
    34    28    27    1
    35    28    29    1
    36    29    31    1
    37    29    30    1
    38    32    31    1
    39    31    33    1
    40    30    35    1
    41    44    43    2
    42    44    36    1
    43    33    35    1
    44    33    34    1
    45    35    36    1
    46    43    42    1
    47    36    37    1
    48    42    38    2
    49    37    38    1
    50    38    39    1
    51    39    41   am
    52    39    40    2
