@<TRIPOS>MOLECULE
1s1r_NAP_A_1.pdb
 48 52 0 0 0
SMALL
GASTEIGER

@<TRIPOS>ATOM
      1  PA        31.6480  -28.4910   46.7780 P.3   1001  NAP1001     0.2189
      2  O1A       33.1090  -28.5410   46.9920 O.3   1001  NAP1001    -0.4371
      3  O2A       31.2750  -27.9180   45.4050 O.2   1001  NAP1001    -0.5170
      4  O5B       31.0690  -29.9780   46.8900 O.3   1001  NAP1001    -0.3112
      5  C5B       29.7180  -30.2030   46.6090 C.3   1001  NAP1001     0.1813
      6  C4B       29.3150  -31.5920   47.0770 C.3   1001  NAP1001     0.1820
      7  O4B       30.0820  -32.5600   46.4060 O.3   1001  NAP1001    -0.3136
      8  C3B       29.5100  -31.8430   48.5740 C.3   1001  NAP1001     0.2157
      9  O3B       28.3190  -31.6060   49.3130 O.3   1001  NAP1001    -0.2175
     10  C2B       29.9630  -33.2960   48.6340 C.3   1001  NAP1001     0.2314
     11  O2B       29.0080  -34.1170   49.2760 O.3   1001  NAP1001    -0.2630
     12  C1B       30.1210  -33.7330   47.1860 C.3   1001  NAP1001     0.3158
     13  N9A       31.3880  -34.4390   46.8800 N.pl3 1001  NAP1001    -0.1439
     14  C8A       32.6540  -34.1570   47.3150 C.3   1001  NAP1001     0.3377
     15  N7A       33.5120  -35.0440   46.7670 N.2   1001  NAP1001    -0.2095
     16  C5A       32.8250  -35.8600   45.9590 C.2   1001  NAP1001     0.2526
     17  C6A       33.2190  -36.9350   45.1640 C.2   1001  NAP1001     0.4393
     18  N6A       34.5100  -37.3110   45.0900 N.pl3 1001  NAP1001     0.2180
     19  N1A       32.2470  -37.5850   44.4510 N.2   1001  NAP1001     0.0021
     20  C2A       30.9130  -37.2170   44.5150 C.3   1001  NAP1001     0.5254
     21  N3A       30.5370  -36.1540   45.3090 N.2   1001  NAP1001    -0.0055
     22  C4A       31.4800  -35.4950   46.0260 C.2   1001  NAP1001     0.3518
     23  O3        30.8850  -27.7240   47.9860 O.3   1001  NAP1001    -0.2703
     24  PN        30.8240  -26.1520   48.3860 P.3   1001  NAP1001     0.2189
     25  O1N       30.5400  -26.1060   49.8410 O.3   1001  NAP1001    -0.4371
     26  O2N       29.8970  -25.4340   47.4930 O.2   1001  NAP1001    -0.5170
     27  O5D       32.2800  -25.5380   48.1170 O.3   1001  NAP1001    -0.3112
     28  C5D       33.3780  -26.0230   48.8530 C.3   1001  NAP1001     0.1813
     29  C4D       33.8420  -25.0650   49.9350 C.3   1001  NAP1001     0.1799
     30  O4D       34.1840  -23.7860   49.4350 O.3   1001  NAP1001    -0.3327
     31  C3D       32.8610  -24.8230   51.0710 C.3   1001  NAP1001     0.2158
     32  O3D       32.8120  -25.9310   51.9520 O.3   1001  NAP1001    -0.2175
     33  C2D       33.4620  -23.5740   51.6660 C.3   1001  NAP1001     0.2309
     34  O2D       34.5900  -23.8820   52.4660 O.3   1001  NAP1001    -0.2158
     35  C1D       33.9000  -22.8110   50.4150 C.3   1001  NAP1001     0.2263
     36  N1N       32.8110  -21.9170   49.9550 N.pl3 1001  NAP1001    -0.2787
     37  C2N       32.9970  -20.5800   50.1290 C.3   1001  NAP1001     0.1244
     38  C3N       32.0250  -19.6920   49.7220 C.2   1001  NAP1001     0.0544
     39  C7N       32.3550  -18.2370   49.7340 C.2   1001  NAP1001     0.2818
     40  O7N       31.2800  -17.3740   49.6230 O.2   1001  NAP1001    -0.2670
     41  N7N       33.6200  -17.8340   49.8270 N.am  1001  NAP1001    -0.0839
     42  C4N       30.8350  -20.1430   49.1410 C.2   1001  NAP1001     0.0033
     43  C5N       30.6600  -21.5170   48.9670 C.2   1001  NAP1001     0.0157
     44  C6N       31.6620  -22.3990   49.3670 C.2   1001  NAP1001     0.0633
     45  P2B       29.4490  -35.0940   50.4890 P.3   1001  NAP1001     0.5328
     46  O1X       29.7710  -34.2380   51.6640 O.3   1001  NAP1001    -0.1145
     47  O2X       28.2850  -36.0250   50.8280 O.3   1001  NAP1001    -0.1145
     48  O3X       30.6950  -35.8920   50.0540 O.2   1001  NAP1001    -0.2224
@<TRIPOS>BOND
     1    19    20    1
     2    19    17    2
     3    20    21    1
     4    18    17    1
     5    17    16    1
     6    21    22    2
     7     3     1    2
     8    16    22    1
     9    16    15    2
    10    22    13    1
    11     7     6    1
    12     7    12    1
    13     5     4    1
    14     5     6    1
    15    15    14    1
    16     1     4    1
    17     1     2    1
    18     1    23    1
    19    13    12    1
    20    13    14    1
    21     6     8    1
    22    12    10    1
    23    26    24    2
    24    23    24    1
    25    27    24    1
    26    27    28    1
    27    24    25    1
    28     8    10    1
    29     8     9    1
    30    10    11    1
    31    28    29    1
    32    43    42    1
    33    43    44    2
    34    42    38    2
    35    11    45    1
    36    44    36    1
    37    30    29    1
    38    30    35    1
    39    40    39    2
    40    38    39    1
    41    38    37    1
    42    39    41   am
    43    29    31    1
    44    36    37    1
    45    36    35    1
    46    48    45    2
    47    35    33    1
    48    45    47    1
    49    45    46    1
    50    31    33    1
    51    31    32    1
    52    33    34    1
