@<TRIPOS>MOLECULE
1s1t_UC1_A_1.pdb
 22 23 0 0 0
SMALL
GASTEIGER

@<TRIPOS>ATOM
      1  C2        -1.8200  -34.5640   23.7130 C.ar  999  UC1999      0.0543
      2  C4        -3.9720  -33.4630   23.9620 C.ar  999  UC1999      0.0916
      3  C5        -4.2170  -33.6610   22.5840 C.ar  999  UC1999      0.0158
      4  C6        -3.2750  -34.3060   21.7890 C.ar  999  UC1999      0.0176
      5  O7         1.1510  -37.2000   25.0910 O.2   999  UC1999     -0.4546
      6  C8         1.2760  -36.4260   23.9300 C.ar  999  UC1999      0.1251
      7  C9         0.2920  -36.7180   23.0480 C.ar  999  UC1999      0.0553
      8  C10       -0.5350  -37.7780   23.7060 C.ar  999  UC1999      0.0452
      9  C11        0.0280  -38.0040   24.8970 C.ar  999  UC1999      0.1792
     10  CA         2.4450  -35.4360   23.9200 C.3   999  UC1999      0.0725
     11  C          0.0590  -36.0540   21.7120 C.2   999  UC1999      0.1085
     12  S          1.2110  -36.0480   20.4840 S.2   999  UC1999     -0.0327
     13  N         -1.1890  -35.4760   21.4560 N.am  999  UC1999     -0.2053
     14  C1        -2.0600  -34.7780   22.3450 C.ar  999  UC1999      0.0741
     15  C3        -2.7580  -33.9140   24.5340 C.ar  999  UC1999      0.1508
     16 CL         -5.2310  -32.8020   24.8930 Cl    999  UC1999     -0.0791
     17  OB        -2.4900  -33.7050   25.8830 O.3   999  UC1999     -0.4698
     18  CC        -1.2190  -34.0870   26.4740 C.3   999  UC1999      0.2312
     19  CD        -0.1580  -33.0520   26.0970 C.2   999  UC1999      0.0122
     20  CE         0.5190  -32.2820   26.9440 C.2   999  UC1999     -0.0443
     21  CF         1.5370  -31.3180   26.4630 C.3   999  UC1999      0.0261
     22  CG         0.3150  -32.3070   28.4250 C.3   999  UC1999      0.0261
@<TRIPOS>BOND
     1    12    11    2
     2    13    11    1
     3    13    14    1
     4    11     7    1
     5     4    14   ar
     6     4     3   ar
     7    14     1   ar
     8     3     2   ar
     9     7     8   ar
    10     7     6   ar
    11     8     9   ar
    12     1    15   ar
    13    10     6    1
    14     6     5   ar
    15     2    15   ar
    16     2    16    1
    17    15    17    1
    18     9     5   ar
    19    17    18    1
    20    19    18    1
    21    19    20    2
    22    21    20    1
    23    20    22    1
