@<TRIPOS>MOLECULE
1s1u_NVP_A_1.pdb
 20 23 0 0 0
SMALL
GASTEIGER

@<TRIPOS>ATOM
      1  N1         1.4230  -37.4770   21.1960 N.pl3 999  NVP999     -0.1562
      2  CA         2.0560  -38.6940   20.6020 C.3   999  NVP999      0.1667
      3  CB         2.5760  -39.7200   21.5550 C.3   999  NVP999      0.0512
      4  CC         1.3260  -39.9790   20.7830 C.3   999  NVP999      0.0512
      5  N3         3.6340  -36.4930   21.3980 N.2   999  NVP999     -0.0337
      6  C4         4.5370  -35.7650   22.1190 C.2   999  NVP999      0.2316
      7  C5         4.1860  -35.0630   23.3020 C.2   999  NVP999      0.0313
      8  C6         2.8630  -35.1060   23.7340 C.3   999  NVP999      0.0868
      9  CD         2.4730  -34.4240   25.0220 C.3   999  NVP999      0.0126
     10  C2         2.3460  -36.5420   21.8290 C.2   999  NVP999      0.3559
     11  C7         1.9100  -35.8400   22.9790 C.2   999  NVP999      0.2076
     12  N8         0.5090  -35.7740   23.3200 N.2   999  NVP999     -0.3293
     13  C9        -0.6330  -35.8430   22.6100 C.1   999  NVP999      0.2096
     14  OE        -1.7310  -35.7160   23.1760 O.2   999  NVP999     -0.2091
     15  C10       -0.6120  -36.0510   21.0770 C.ar  999  NVP999      0.1506
     16  C15        0.3570  -36.8840   20.4240 C.ar  999  NVP999      0.2365
     17  C11       -1.6500  -35.5010   20.3050 C.ar  999  NVP999      0.0194
     18  C12       -1.7160  -35.7910   18.9240 C.ar  999  NVP999      0.0217
     19  C13       -0.7200  -36.6300   18.3530 C.ar  999  NVP999      0.1025
     20  N14        0.2920  -37.1630   19.0960 N.ar  999  NVP999     -0.2068
@<TRIPOS>BOND
     1    19    18   ar
     2    19    20   ar
     3    18    17   ar
     4    20    16   ar
     5    17    15   ar
     6    16    15   ar
     7    16     1    1
     8     2     4    1
     9     2     1    1
    10     2     3    1
    11     4     3    1
    12    15    13    1
    13     1    10    1
    14     5    10    2
    15     5     6    1
    16    10    11    1
    17     6     7    2
    18    13    14    2
    19    13    12    2
    20    11    12    2
    21    11     8    1
    22     7     8    1
    23     8     9    1
