@<TRIPOS>MOLECULE
1s1v_TNK_A_1.pdb
 27 29 0 0 0
SMALL
GASTEIGER

@<TRIPOS>ATOM
      1  C1        -0.9850  -34.1450   25.8680 C.ar  999  TNK999     -0.0164
      2  C2        -0.9190  -33.8710   27.2440 C.ar  999  TNK999     -0.0039
      3  C3        -0.0560  -32.8410   27.7300 C.ar  999  TNK999     -0.0003
      4  C4         0.7360  -32.0950   26.8070 C.ar  999  TNK999     -0.0000
      5  C5         0.6650  -32.3760   25.4110 C.ar  999  TNK999     -0.0003
      6  C6        -0.1970  -33.4020   24.9520 C.ar  999  TNK999     -0.0039
      7  C7        -1.9050  -35.6600   23.9090 C.2   999  TNK999      0.0551
      8  N8        -2.7730  -34.9530   23.0430 N.am  999  TNK999     -0.1806
      9  C9        -2.8530  -35.2620   21.6640 C.1   999  TNK999      0.2842
     10  O9        -3.5870  -34.6800   20.8660 O.2   999  TNK999     -0.1919
     11  N10       -2.0390  -36.2830   21.2240 N.2   999  TNK999     -0.2455
     12  C11       -1.1640  -37.0370   21.9900 C.1   999  TNK999      0.2130
     13  O11       -0.5210  -37.9300   21.4450 O.2   999  TNK999     -0.2088
     14  C12       -1.0970  -36.7050   23.4140 C.2   999  TNK999      0.0834
     15  C13       -1.9070  -35.2420   25.3910 C.3   999  TNK999      0.0689
     16  C14       -0.1770  -37.6260   24.2570 C.3   999  TNK999      0.0355
     17  C15       -0.9260  -38.5630   25.1850 C.3   999  TNK999      0.0055
     18  C16        1.0560  -36.9530   24.8870 C.3   999  TNK999      0.0055
     19  C17       -3.7000  -33.8690   23.5450 C.3   999  TNK999      0.2554
     20  O17       -5.0340  -34.0820   23.0650 O.3   999  TNK999     -0.3287
     21  C18       -5.9910  -33.9920   24.1100 C.3   999  TNK999      0.1707
     22  C19       -7.2330  -34.8060   23.8210 C.ar  999  TNK999      0.0073
     23  C20       -7.1480  -35.9420   22.9880 C.ar  999  TNK999     -0.0019
     24  C21       -8.2590  -36.7940   22.8320 C.ar  999  TNK999     -0.0002
     25  C22       -9.4670  -36.5010   23.5220 C.ar  999  TNK999     -0.0000
     26  C23       -9.5490  -35.3460   24.3540 C.ar  999  TNK999     -0.0002
     27  C24       -8.4300  -34.5080   24.4970 C.ar  999  TNK999     -0.0019
@<TRIPOS>BOND
     1    10     9    2
     2    11     9    2
     3    11    12    2
     4    13    12    2
     5     9     8   am
     6    12    14    1
     7    24    23   ar
     8    24    25   ar
     9    23    22   ar
    10     8    19    1
    11     8     7    1
    12    20    19    1
    13    20    21    1
    14    14     7    2
    15    14    16    1
    16    25    26   ar
    17    22    21    1
    18    22    27   ar
    19     7    15    1
    20    16    18    1
    21    16    17    1
    22    26    27   ar
    23     6     5   ar
    24     6     1   ar
    25    15     1    1
    26     5     4   ar
    27     1     2   ar
    28     4     3   ar
    29     2     3   ar
