@<TRIPOS>MOLECULE
1s1w_UC1_A_1.pdb
 22 23 0 0 0
SMALL
GASTEIGER

@<TRIPOS>ATOM
      1  C2         0.9850  -37.1660   20.2670 C.ar  999  UC1999      0.0543
      2  C4        -1.3420  -36.5340   20.6800 C.ar  999  UC1999      0.0916
      3  C5        -1.6110  -36.7430   19.3110 C.ar  999  UC1999      0.0158
      4  C6        -0.6120  -37.1630   18.4390 C.ar  999  UC1999      0.0176
      5  O7         4.2520  -39.9080   21.1080 O.2   999  UC1999     -0.4546
      6  C8         4.3050  -39.0730   19.9970 C.ar  999  UC1999      0.1251
      7  C9         3.2160  -39.2050   19.2370 C.ar  999  UC1999      0.0553
      8  C10        2.3810  -40.2480   19.9250 C.ar  999  UC1999      0.0452
      9  C11        3.0540  -40.6050   21.0140 C.ar  999  UC1999      0.1792
     10  CA         5.5660  -38.2390   19.8790 C.3   999  UC1999      0.0725
     11  C          2.8970  -38.4050   17.9880 C.2   999  UC1999      0.1085
     12  S          3.9890  -38.2350   16.7010 S.2   999  UC1999     -0.0327
     13  N          1.6110  -37.8130   17.8720 N.am  999  UC1999     -0.2053
     14  C1         0.7030  -37.3790   18.8940 C.ar  999  UC1999      0.0741
     15  C3        -0.0260  -36.7430   21.1680 C.ar  999  UC1999      0.1508
     16 CL         -2.6480  -36.0240   21.7100 Cl    999  UC1999     -0.0791
     17  OB         0.2560  -36.5320   22.5340 O.3   999  UC1999     -0.4698
     18  CC         1.3350  -37.2200   23.2110 C.3   999  UC1999      0.2312
     19  CD         2.5830  -36.3350   23.1180 C.2   999  UC1999      0.0122
     20  CE         3.0350  -35.4840   24.0420 C.2   999  UC1999     -0.0443
     21  CF         4.2550  -34.6830   23.8180 C.3   999  UC1999      0.0261
     22  CG         2.3800  -35.2610   25.3630 C.3   999  UC1999      0.0261
@<TRIPOS>BOND
     1    12    11    2
     2    13    11    1
     3    13    14    1
     4    11     7    1
     5     4    14   ar
     6     4     3   ar
     7    14     1   ar
     8     7     8   ar
     9     7     6   ar
    10     3     2   ar
    11    10     6    1
    12     8     9   ar
    13     6     5   ar
    14     1    15   ar
    15     2    15   ar
    16     2    16    1
    17     9     5   ar
    18    15    17    1
    19    17    18    1
    20    19    18    1
    21    19    20    2
    22    21    20    1
    23    20    22    1
