@<TRIPOS>MOLECULE
1s1x_NVP_A_1.pdb
 20 23 0 0 0
SMALL
GASTEIGER

@<TRIPOS>ATOM
      1  N1        -0.3820  -35.1080   24.0250 N.pl3 999  NVP999     -0.1562
      2  CA         0.2220  -36.3630   23.5160 C.3   999  NVP999      0.1667
      3  CB         0.3540  -37.4710   24.4980 C.3   999  NVP999      0.0512
      4  CC        -0.6710  -37.5450   23.4230 C.3   999  NVP999      0.0512
      5  N3         1.8260  -34.2140   24.3300 N.2   999  NVP999     -0.0337
      6  C4         2.6620  -33.3690   24.9970 C.2   999  NVP999      0.2316
      7  C5         2.2030  -32.5290   26.0490 C.2   999  NVP999      0.0313
      8  C6         0.8560  -32.5770   26.4070 C.3   999  NVP999      0.0868
      9  CD         0.3270  -31.7000   27.5090 C.3   999  NVP999      0.0126
     10  C2         0.5200  -34.2470   24.6960 C.2   999  NVP999      0.3559
     11  C7         0.0000  -33.4340   25.7190 C.2   999  NVP999      0.2076
     12  N8        -1.4040  -33.4170   26.0130 N.2   999  NVP999     -0.3293
     13  C9        -2.4930  -33.5020   25.2320 C.1   999  NVP999      0.2096
     14  OE        -3.6320  -33.3760   25.7150 O.2   999  NVP999     -0.2091
     15  C10       -2.3440  -33.6510   23.6980 C.ar  999  NVP999      0.1506
     16  C15       -1.2910  -34.4300   23.1270 C.ar  999  NVP999      0.2365
     17  C11       -3.2650  -33.0270   22.8300 C.ar  999  NVP999      0.0194
     18  C12       -3.1210  -33.1890   21.4350 C.ar  999  NVP999      0.0217
     19  C13       -2.0390  -33.9720   20.9460 C.ar  999  NVP999      0.1025
     20  N14       -1.1460  -34.5810   21.7830 N.ar  999  NVP999     -0.2068
@<TRIPOS>BOND
     1    19    18   ar
     2    19    20   ar
     3    18    17   ar
     4    20    16   ar
     5    17    15   ar
     6    16    15   ar
     7    16     1    1
     8     4     2    1
     9     4     3    1
    10     2     1    1
    11     2     3    1
    12    15    13    1
    13     1    10    1
    14     5    10    2
    15     5     6    1
    16    10    11    1
    17     6     7    2
    18    13    14    2
    19    13    12    2
    20    11    12    2
    21    11     8    1
    22     7     8    1
    23     8     9    1
