@<TRIPOS>MOLECULE
1s20_NAD_A_1.pdb
 44 48 0 0 0
SMALL
GASTEIGER

@<TRIPOS>ATOM
      1  PA        85.7800   55.0770   65.3420 P.3   401  NAD401      0.2189
      2  O1A       85.2760   56.0790   66.2930 O.3   401  NAD401     -0.4371
      3  O2A       85.0340   53.8190   65.2950 O.2   401  NAD401     -0.5170
      4  O5B       85.8770   55.6720   63.8340 O.3   401  NAD401     -0.3112
      5  C5B       86.4590   54.9130   62.7340 C.3   401  NAD401      0.1813
      6  C4B       86.0680   55.6990   61.4890 C.3   401  NAD401      0.1821
      7  O4B       84.6680   55.6840   61.2870 O.3   401  NAD401     -0.3135
      8  C3B       86.5160   57.1780   61.4410 C.3   401  NAD401      0.2184
      9  O3B       87.1990   57.5480   60.2130 O.3   401  NAD401     -0.2174
     10  C2B       85.2400   57.9740   61.6640 C.3   401  NAD401      0.2570
     11  O2B       85.2710   59.2680   61.0270 O.3   401  NAD401     -0.2130
     12  C1B       84.1970   57.0330   61.1210 C.3   401  NAD401      0.3186
     13  N9A       82.8540   57.1520   61.7620 N.pl3 401  NAD401     -0.1439
     14  C8A       82.5200   57.1070   63.0890 C.3   401  NAD401      0.3377
     15  N7A       81.1840   57.2470   63.2590 N.2   401  NAD401     -0.2095
     16  C5A       80.7310   57.3730   62.0030 C.2   401  NAD401      0.2526
     17  C6A       79.3830   57.5520   61.6110 C.2   401  NAD401      0.4393
     18  N6A       78.3720   57.5970   62.4950 N.pl3 401  NAD401      0.2180
     19  N1A       79.1880   57.6590   60.2630 N.2   401  NAD401      0.0021
     20  C2A       80.1560   57.6220   59.3160 C.3   401  NAD401      0.5254
     21  N3A       81.4240   57.4510   59.7080 N.2   401  NAD401     -0.0055
     22  C4A       81.7410   57.3380   61.0390 C.2   401  NAD401      0.3518
     23  O3        87.3340   54.8240   65.6090 O.3   401  NAD401     -0.2703
     24  PN        88.1760   53.6510   66.3040 P.3   401  NAD401      0.2189
     25  O1N       88.3720   52.5290   65.3590 O.2   401  NAD401     -0.5170
     26  O2N       87.6120   53.3000   67.6440 O.3   401  NAD401     -0.4371
     27  O5D       89.6160   54.3510   66.4890 O.3   401  NAD401     -0.3112
     28  C5D       89.6340   55.5390   67.3020 C.3   401  NAD401      0.1813
     29  C4D       91.0280   56.1390   67.4440 C.3   401  NAD401      0.1799
     30  O4D       91.8970   55.3490   68.2610 O.3   401  NAD401     -0.3327
     31  C3D       91.7570   56.3290   66.1310 C.3   401  NAD401      0.2158
     32  O3D       92.3840   57.6100   66.1540 O.3   401  NAD401     -0.2175
     33  C2D       92.7450   55.1620   66.0980 C.3   401  NAD401      0.2309
     34  O2D       93.8680   55.3890   65.2180 O.3   401  NAD401     -0.2158
     35  C1D       93.1140   55.0620   67.5410 C.3   401  NAD401      0.2263
     36  N1N       93.6660   53.7310   67.8900 N.pl3 401  NAD401     -0.2787
     37  C2N       95.0840   53.5540   67.8800 C.3   401  NAD401      0.1244
     38  C3N       95.6500   52.3040   68.1960 C.2   401  NAD401      0.0544
     39  C7N       97.1650   52.0170   68.2040 C.2   401  NAD401      0.2818
     40  O7N       97.9680   52.9320   68.1030 O.2   401  NAD401     -0.2670
     41  N7N       97.5760   50.7530   68.3100 N.am  401  NAD401     -0.0839
     42  C4N       94.7400   51.2570   68.5170 C.2   401  NAD401      0.0033
     43  C5N       93.3320   51.4070   68.5360 C.2   401  NAD401      0.0157
     44  C6N       92.7700   52.6550   68.2190 C.2   401  NAD401      0.0633
@<TRIPOS>BOND
     1    20    21    1
     2    20    19    1
     3    21    22    2
     4     9     8    1
     5    19    17    2
     6    11    10    1
     7    22    13    1
     8    22    16    1
     9    12     7    1
    10    12    10    1
    11    12    13    1
    12     7     6    1
    13     8     6    1
    14     8    10    1
    15     6     5    1
    16    17    16    1
    17    17    18    1
    18    13    14    1
    19    16    15    2
    20     5     4    1
    21    14    15    1
    22     4     1    1
    23    34    33    1
    24     3     1    2
    25     1    23    1
    26     1     2    1
    27    25    24    2
    28    23    24    1
    29    33    31    1
    30    33    35    1
    31    31    32    1
    32    31    29    1
    33    24    27    1
    34    24    26    1
    35    27    28    1
    36    28    29    1
    37    29    30    1
    38    35    36    1
    39    35    30    1
    40    37    36    1
    41    37    38    1
    42    36    44    1
    43    40    39    2
    44    38    39    1
    45    38    42    2
    46    39    41   am
    47    44    43    2
    48    42    43    1
