@<TRIPOS>MOLECULE
1s22_ULA_A_1.pdb
 50 53 0 0 0
SMALL
GASTEIGER

@<TRIPOS>ATOM
      1  O4        -8.3890   -1.5220   13.6770 O.2   500  ULA500     -0.2957
      2  C7        -7.2000   -1.2820   13.6860 C.2   500  ULA500      0.1554
      3  C6        -6.8310   -0.0690   14.2390 C.3   500  ULA500      0.0902
      4  C5        -7.6910    0.6420   15.0680 C.2   500  ULA500     -0.0204
      5  C4        -7.9580    1.9740   14.9640 C.2   500  ULA500      0.0025
      6  C3        -8.7460    2.9070   15.7250 C.3   500  ULA500      0.1848
      7  O3       -10.0020    3.1010   15.0610 O.3   500  ULA500     -0.2177
      8  C2        -8.0030    4.1870   15.7740 C.3   500  ULA500      0.1469
      9  C1        -8.7310    5.3200   16.4070 C.2   500  ULA500      0.3198
     10  O1        -9.3550    5.1370   17.4220 O.2   500  ULA500     -0.2500
     11  O2        -8.5490    6.4220   15.6790 O.3   500  ULA500     -0.4520
     12  C8        -6.2760   -2.2890   13.0780 C.3   500  ULA500      0.0716
     13  C9        -6.2450   -2.5300   11.5960 C.3   500  ULA500      0.0594
     14  C36       -5.6570   -3.8400   11.1700 C.3   500  ULA500      0.0077
     15  C10       -5.9070   -1.3190   10.8370 C.2   500  ULA500      0.1340
     16  C11       -4.7200   -1.1580   10.1270 C.3   500  ULA500      0.2621
     17  O5        -4.6310    0.0560    9.5480 O.2   500  ULA500     -0.4426
     18  N1        -6.5490   -0.0930   10.6900 N.2   500  ULA500     -0.3710
     19  C12       -5.8340    0.6990    9.9240 C.2   500  ULA500      0.3076
     20  C13       -5.9680    2.0260    9.4560 C.2   500  ULA500      0.2219
     21  C14       -5.2850    2.9310    8.6620 C.3   500  ULA500      0.2726
     22  O6        -5.8350    4.1840    8.6040 O.2   500  ULA500     -0.4420
     23  N2        -7.0290    2.8100    9.9260 N.2   500  ULA500     -0.3605
     24  C15       -6.9700    4.0140    9.4270 C.2   500  ULA500      0.3081
     25  C16       -7.7450    5.1800    9.6190 C.2   500  ULA500      0.2218
     26  N3        -8.7200    5.2250   10.6210 N.2   500  ULA500     -0.3624
     27  C17       -7.5450    6.3390    8.9480 C.3   500  ULA500      0.2725
     28  O7        -8.4190    7.2310    9.4830 O.2   500  ULA500     -0.4436
     29  C18       -9.0750    6.4730   10.4320 C.2   500  ULA500      0.2775
     30  C19      -10.0950    6.9570   11.3280 C.2   500  ULA500      0.0671
     31  C20      -10.6700    6.3240   12.3330 C.2   500  ULA500     -0.0177
     32  C21      -11.6720    6.9590   13.2250 C.3   500  ULA500      0.0559
     33  C22      -11.2850    7.0080   14.7230 C.3   500  ULA500      0.1231
     34  O8       -12.3290    7.0740   15.6620 O.3   500  ULA500     -0.3531
     35  C46      -13.0700    5.8800   15.9030 C.3   500  ULA500      0.1740
     36  C23      -10.1580    8.0080   14.9680 C.3   500  ULA500      0.0677
     37  C37      -10.7970    9.3660   15.1620 C.3   500  ULA500      0.0062
     38  C24       -9.1460    7.6560   16.0810 C.3   500  ULA500      0.1735
     39  C25       -8.2160    8.7680   16.4810 C.3   500  ULA500      0.0732
     40  C26       -7.1090    8.2400   17.4120 C.3   500  ULA500      0.1189
     41  O9        -7.8010    7.9270   18.6380 O.3   500  ULA500     -0.3535
     42  C45       -7.1990    6.9680   19.5110 C.3   500  ULA500      0.1740
     43  C27       -5.9280    9.2020   17.4940 C.3   500  ULA500      0.0278
     44  C38       -5.0560    9.1350   16.2590 C.3   500  ULA500      0.0025
     45  C28       -6.2170   10.5970   17.9680 C.3   500  ULA500      0.0102
     46  C29       -5.2010   11.5680   18.5430 C.3   500  ULA500      0.0646
     47  C30       -5.3700   13.0530   18.3320 C.2   500  ULA500      0.1506
     48  O10       -6.1580   13.5140   17.4690 O.2   500  ULA500     -0.2961
     49  C31       -4.3650   13.7680   19.2380 C.3   500  ULA500      0.0645
     50  C39       -4.5690   13.4530   20.7180 C.3   500  ULA500      0.0082
@<TRIPOS>BOND
     1    22    21    1
     2    22    24    1
     3    21    20    1
     4    27    28    1
     5    27    25    1
     6    24    25    1
     7    24    23    2
     8    20    19    1
     9    20    23    2
    10    28    29    1
    11    17    19    1
    12    17    16    1
    13    25    26    2
    14    19    18    2
    15    16    15    1
    16    29    26    2
    17    29    30    1
    18    18    15    2
    19    15    13    1
    20    14    13    1
    21    30    31    2
    22    13    12    1
    23    31    32    1
    24    12     2    1
    25    32    33    1
    26     1     2    2
    27     2     3    1
    28     3     4    1
    29    33    36    1
    30    33    34    1
    31     5     4    2
    32     5     6    1
    33    36    37    1
    34    36    38    1
    35     7     6    1
    36    34    35    1
    37    11    38    1
    38    11     9    1
    39     6     8    1
    40     8     9    1
    41    38    39    1
    42    44    43    1
    43     9    10    2
    44    39    40    1
    45    40    43    1
    46    40    41    1
    47    48    47    2
    48    43    45    1
    49    45    46    1
    50    47    46    1
    51    47    49    1
    52    41    42    1
    53    49    50    1
