@<TRIPOS>MOLECULE
1s22_ATP_A_1.pdb
 31 33 0 0 0
SMALL
GASTEIGER

@<TRIPOS>ATOM
      1  PG        13.4750   -0.6540   18.2310 P.3   425  ATP425      0.5373
      2  O1G       14.2930    0.5090   17.7770 O.2   425  ATP425     -0.2221
      3  O2G       14.0870   -1.3980   19.3760 O.3   425  ATP425     -0.1143
      4  O3G       12.0090   -0.3030   18.3820 O.3   425  ATP425     -0.1143
      5  PB        12.6190   -1.9150   15.6890 P.3   425  ATP425      0.2277
      6  O1B       13.4690   -2.2400   14.5360 O.2   425  ATP425     -0.5168
      7  O2B       11.6120   -0.8130   15.5450 O.3   425  ATP425     -0.4368
      8  O3B       13.5840   -1.6830   16.9670 O.3   425  ATP425     -0.2258
      9  PA        10.5070   -3.9340   15.6770 P.3   425  ATP425      0.2189
     10  O1A        9.3970   -3.5620   16.5550 O.3   425  ATP425     -0.4371
     11  O2A       10.3630   -3.6780   14.2030 O.2   425  ATP425     -0.5170
     12  O3A       11.8990   -3.2740   16.1990 O.3   425  ATP425     -0.2700
     13  O5'       10.8070   -5.4610   16.0340 O.3   425  ATP425     -0.3112
     14  C5'       11.9460   -6.1640   15.5280 C.3   425  ATP425      0.1813
     15  C4'       12.3540   -7.1490   16.5790 C.3   425  ATP425      0.1821
     16  O4'       11.2670   -8.0620   16.8470 O.3   425  ATP425     -0.3135
     17  C3'       13.5070   -8.0690   16.1860 C.3   425  ATP425      0.2184
     18  O3'       14.3840   -8.2750   17.2760 O.3   425  ATP425     -0.2174
     19  C2'       12.8250   -9.4020   15.8590 C.3   425  ATP425      0.2570
     20  O2'       13.6450  -10.5690   15.9420 O.3   425  ATP425     -0.2130
     21  C1'       11.7110   -9.4060   16.8620 C.3   425  ATP425      0.3186
     22  N9        10.6060  -10.2740   16.4810 N.pl3 425  ATP425     -0.1439
     23  C8         9.8180  -10.1980   15.3770 C.3   425  ATP425      0.3377
     24  N7         8.9000  -11.1830   15.4170 N.2   425  ATP425     -0.2095
     25  C5         9.0970  -11.8690   16.5500 C.2   425  ATP425      0.2526
     26  C6         8.4720  -12.9850   17.1010 C.2   425  ATP425      0.4393
     27  N6         7.5230  -13.6690   16.4320 N.pl3 425  ATP425      0.2180
     28  N1         8.9270  -13.4370   18.3000 N.2   425  ATP425      0.0021
     29  C2         9.9930  -12.8660   18.9460 C.3   425  ATP425      0.5254
     30  N3        10.6140  -11.7730   18.4090 N.2   425  ATP425     -0.0055
     31  C4        10.1690  -11.3160   17.2280 C.2   425  ATP425      0.3518
@<TRIPOS>BOND
     1    11     9    2
     2     6     5    2
     3    23    24    1
     4    23    22    1
     5    24    25    2
     6    14    13    1
     7    14    15    1
     8     7     5    1
     9     9    13    1
    10     9    12    1
    11     9    10    1
    12     5    12    1
    13     5     8    1
    14    19    20    1
    15    19    17    1
    16    19    21    1
    17    17    15    1
    18    17    18    1
    19    27    26    1
    20    22    21    1
    21    22    31    1
    22    25    26    1
    23    25    31    1
    24    15    16    1
    25    16    21    1
    26     8     1    1
    27    26    28    2
    28    31    30    2
    29     2     1    2
    30     1     4    1
    31     1     3    1
    32    28    29    1
    33    30    29    1
