@<TRIPOS>MOLECULE
1s26_APC_A_1.pdb
 31 33 0 0 0
SMALL
GASTEIGER

@<TRIPOS>ATOM
      1  PG        31.4970   73.4170   44.7920 P.3   1139  APC1139     0.5389
      2  O1G       31.7570   74.8660   44.6250 O.2   1139  APC1139    -0.2220
      3  O2G       30.0670   73.1650   44.7420 O.3   1139  APC1139    -0.1143
      4  O3G       32.0270   72.9320   46.1970 O.3   1139  APC1139    -0.1143
      5  PB        33.6690   71.9200   43.4350 P.3   1139  APC1139     0.3895
      6  O1B       33.8930   71.5410   41.9960 O.2   1139  APC1139    -0.2544
      7  O2B       34.7350   72.8770   43.8550 O.3   1139  APC1139    -0.1388
      8  O3B       32.1730   72.5870   43.5970 O.3   1139  APC1139    -0.2026
      9  PA        34.1390   68.7660   43.9930 P.3   1139  APC1139     0.3820
     10  O1A       35.3200   68.2770   44.7710 O.3   1139  APC1139    -0.1392
     11  O2A       32.9750   67.8810   44.3660 O.2   1139  APC1139    -0.2548
     12  C3A       33.7310   70.4530   44.5210 C.3   1139  APC1139     0.2357
     13  O5'       34.4510   68.6550   42.4240 O.3   1139  APC1139    -0.2896
     14  C5'       34.1040   67.4000   41.7830 C.3   1139  APC1139     0.1836
     15  C4'       35.1520   66.3290   42.0540 C.3   1139  APC1139     0.1822
     16  O4'       34.6570   65.5760   43.2000 O.3   1139  APC1139    -0.3135
     17  C3'       35.3920   65.3130   40.9150 C.3   1139  APC1139     0.2184
     18  O3'       36.7730   65.3250   40.4120 O.3   1139  APC1139    -0.2174
     19  C2'       34.9270   63.9630   41.5070 C.3   1139  APC1139     0.2570
     20  O2'       35.9720   62.9730   41.4960 O.3   1139  APC1139    -0.2130
     21  C1'       34.5330   64.2210   42.9440 C.3   1139  APC1139     0.3186
     22  N9        33.1590   63.8220   43.3700 N.pl3 1139  APC1139    -0.1439
     23  C8        32.0120   64.6090   43.3910 C.3   1139  APC1139     0.3377
     24  N7        30.9310   63.9890   43.8410 N.2   1139  APC1139    -0.2095
     25  C5        31.3730   62.6840   44.1450 C.2   1139  APC1139     0.2526
     26  C6        30.6830   61.5310   44.6850 C.2   1139  APC1139     0.4393
     27  N6        29.5030   61.4700   44.9850 N.pl3 1139  APC1139     0.2180
     28  N1        31.5350   60.4620   44.8180 N.2   1139  APC1139     0.0021
     29  C2        32.8870   60.4120   44.5120 C.3   1139  APC1139     0.5254
     30  N3        33.5240   61.4370   44.0320 N.2   1139  APC1139    -0.0055
     31  C4        32.7410   62.5660   43.8650 C.2   1139  APC1139     0.3518
@<TRIPOS>BOND
     1    18    17    1
     2    17    19    1
     3    17    15    1
     4    20    19    1
     5    19    21    1
     6    14    15    1
     7    14    13    1
     8     6     5    2
     9    15    16    1
    10    13     9    1
    11    21    16    1
    12    21    22    1
    13    22    23    1
    14    22    31    1
    15    23    24    1
    16     5     8    1
    17     5     7    1
    18     5    12    1
    19     8     1    1
    20    24    25    2
    21    31    30    2
    22    31    25    1
    23     9    11    2
    24     9    12    1
    25     9    10    1
    26    30    29    1
    27    25    26    1
    28    29    28    1
    29     2     1    2
    30    26    28    2
    31    26    27    1
    32     3     1    1
    33     1     4    1
