@<TRIPOS>MOLECULE
1s2a_NAP_A_1.pdb
 48 52 0 0 0
SMALL
GASTEIGER

@<TRIPOS>ATOM
      1  PA        28.9360  -28.4900   51.2270 P.3   1001  NAP1001     0.2189
      2  O1A       28.3940  -27.1180   51.0390 O.2   1001  NAP1001    -0.5170
      3  O2A       30.4160  -28.7500   51.2170 O.3   1001  NAP1001    -0.4371
      4  O5B       28.4450  -29.6520   50.3220 O.3   1001  NAP1001    -0.3112
      5  C5B       27.7380  -29.3900   49.2320 C.3   1001  NAP1001     0.1813
      6  C4B       26.8600  -30.5090   48.7080 C.3   1001  NAP1001     0.1820
      7  O4B       27.4840  -30.3700   47.4770 O.3   1001  NAP1001    -0.3136
      8  C3B       27.0710  -31.9540   49.1640 C.3   1001  NAP1001     0.2157
      9  O3B       25.9080  -32.5310   49.7580 O.3   1001  NAP1001    -0.2175
     10  C2B       27.5210  -32.6850   47.9090 C.3   1001  NAP1001     0.2314
     11  O2B       26.6430  -33.7170   47.5070 O.3   1001  NAP1001    -0.2630
     12  C1B       27.6000  -31.6070   46.8290 C.3   1001  NAP1001     0.3158
     13  N9A       28.8690  -31.5790   46.0930 N.pl3 1001  NAP1001    -0.1439
     14  C8A       30.1440  -31.7410   46.6050 C.3   1001  NAP1001     0.3377
     15  N7A       31.0170  -31.6240   45.6010 N.2   1001  NAP1001    -0.2095
     16  C5A       30.3240  -31.3760   44.4490 C.2   1001  NAP1001     0.2526
     17  C6A       30.7150  -31.1810   43.1250 C.2   1001  NAP1001     0.4393
     18  N6A       31.9900  -31.3100   42.7570 N.pl3 1001  NAP1001     0.2180
     19  N1A       29.7360  -30.9690   42.1700 N.2   1001  NAP1001     0.0021
     20  C2A       28.3970  -30.9290   42.5110 C.3   1001  NAP1001     0.5254
     21  N3A       28.0040  -31.1090   43.8230 N.2   1001  NAP1001    -0.0055
     22  C4A       28.9730  -31.3450   44.7580 C.2   1001  NAP1001     0.3518
     23  O3        28.2710  -29.3320   52.4220 O.3   1001  NAP1001    -0.2703
     24  PN        28.1920  -29.0910   54.0000 P.3   1001  NAP1001     0.2189
     25  O1N       28.1150  -30.4480   54.5650 O.3   1001  NAP1001    -0.4371
     26  O2N       27.1320  -28.1070   54.2970 O.2   1001  NAP1001    -0.5170
     27  O5D       29.5910  -28.4290   54.4600 O.3   1001  NAP1001    -0.3112
     28  C5D       30.7680  -29.1880   54.3670 C.3   1001  NAP1001     0.1813
     29  C4D       31.2480  -29.6510   55.7400 C.3   1001  NAP1001     0.1799
     30  O4D       31.4350  -28.5180   56.5710 O.3   1001  NAP1001    -0.3327
     31  C3D       30.3540  -30.6030   56.5210 C.3   1001  NAP1001     0.2158
     32  O3D       30.3540  -31.9180   56.0080 O.3   1001  NAP1001    -0.2175
     33  C2D       30.9650  -30.4120   57.8940 C.3   1001  NAP1001     0.2309
     34  O2D       32.1800  -31.1190   57.9930 O.3   1001  NAP1001    -0.2158
     35  C1D       31.2530  -28.8990   57.9170 C.3   1001  NAP1001     0.2263
     36  N1N       30.1510  -28.1220   58.5390 N.pl3 1001  NAP1001    -0.2787
     37  C2N       30.3940  -27.4830   59.7170 C.3   1001  NAP1001     0.1244
     38  C3N       29.3890  -26.7570   60.3180 C.2   1001  NAP1001     0.0544
     39  C7N       29.6540  -25.9890   61.5740 C.2   1001  NAP1001     0.2818
     40  O7N       28.5700  -25.4780   62.2320 O.2   1001  NAP1001    -0.2670
     41  N7N       30.8870  -25.7800   62.0110 N.am  1001  NAP1001    -0.0839
     42  C4N       28.1360  -26.6680   59.7270 C.2   1001  NAP1001     0.0033
     43  C5N       27.9120  -27.3020   58.5200 C.2   1001  NAP1001     0.0157
     44  C6N       28.9380  -28.0180   57.9260 C.2   1001  NAP1001     0.0633
     45  P2B       27.2090  -35.2120   47.2360 P.3   1001  NAP1001     0.5328
     46  O1X       27.5970  -35.7910   48.5600 O.3   1001  NAP1001    -0.1145
     47  O2X       26.0320  -36.0000   46.6040 O.3   1001  NAP1001    -0.1145
     48  O3X       28.4220  -35.1210   46.3260 O.2   1001  NAP1001    -0.2224
@<TRIPOS>BOND
     1    19    20    1
     2    19    17    2
     3    20    21    1
     4    18    17    1
     5    17    16    1
     6    21    22    2
     7    16    22    1
     8    16    15    2
     9    22    13    1
    10    15    14    1
    11    13    14    1
    12    13    12    1
    13    48    45    2
    14    47    45    1
    15    12     7    1
    16    12    10    1
    17    45    11    1
    18    45    46    1
    19     7     6    1
    20    11    10    1
    21    10     8    1
    22     6     8    1
    23     6     5    1
    24     8     9    1
    25     5     4    1
    26     4     1    1
    27     2     1    2
    28     3     1    1
    29     1    23    1
    30    23    24    1
    31    24    26    2
    32    24    27    1
    33    24    25    1
    34    28    27    1
    35    28    29    1
    36    29    31    1
    37    29    30    1
    38    32    31    1
    39    31    33    1
    40    30    35    1
    41    33    35    1
    42    33    34    1
    43    35    36    1
    44    44    43    2
    45    44    36    1
    46    43    42    1
    47    36    37    1
    48    37    38    1
    49    42    38    2
    50    38    39    1
    51    39    41   am
    52    39    40    2
