@<TRIPOS>MOLECULE
1s2a_IMN_A_1.pdb
 25 27 0 0 0
SMALL
GASTEIGER

@<TRIPOS>ATOM
      1  C         24.7700  -27.2540   60.0590 C.ar  2001  IMN2001     0.0664
      2  C1        24.2260  -27.4600   58.7070 C.ar  2001  IMN2001     0.0169
      3  C2        24.0020  -26.4010   57.8500 C.ar  2001  IMN2001     0.0381
      4  C3        24.3210  -25.1120   58.2820 C.ar  2001  IMN2001     0.1388
      5  C4        24.8360  -24.8880   59.5660 C.ar  2001  IMN2001     0.0384
      6  C5        25.0500  -25.9430   60.4480 C.ar  2001  IMN2001     0.0207
      7  C6        24.2520  -24.1530   56.0570 C.3   2001  IMN2001     0.2525
      8  C7        23.9800  -28.9380   58.5670 C.ar  2001  IMN2001     0.0027
      9  C8        24.4870  -29.4690   59.9170 C.ar  2001  IMN2001     0.0411
     10  C9        25.4020  -28.5470   61.9690 C.2   2001  IMN2001     0.2644
     11  C10       25.1120  -27.6650   63.1290 C.ar  2001  IMN2001     0.0565
     12  C11       26.2000  -27.1860   63.8640 C.ar  2001  IMN2001     0.0056
     13  C12       25.9820  -26.3630   64.9590 C.ar  2001  IMN2001     0.0115
     14  C13       24.6690  -26.0600   65.3140 C.ar  2001  IMN2001     0.0577
     15  C14       23.5930  -26.5460   64.5860 C.ar  2001  IMN2001     0.0115
     16  C15       23.8100  -27.3690   63.4880 C.ar  2001  IMN2001     0.0056
     17  C16       24.6570  -30.9280   60.3180 C.3   2001  IMN2001     0.0501
     18  C17       23.5900  -29.7620   57.2900 C.3   2001  IMN2001     0.1415
     19  C18       24.7320  -29.3550   56.3880 C.2   2001  IMN2001     0.3693
     20  N         24.8740  -28.4140   60.7010 N.ar  2001  IMN2001    -0.2785
     21  O         24.1380  -24.0210   57.4750 O.3   2001  IMN2001    -0.4714
     22  O1        26.2130  -29.4240   62.2030 O.2   2001  IMN2001    -0.2666
     23  O2        24.3910  -28.6670   55.4040 O.co2 2001  IMN2001    -0.2453
     24  O3        26.0200  -29.4750   56.6750 O.co2 2001  IMN2001    -0.2453
     25 CL         24.3620  -24.9980   66.7270 Cl    2001  IMN2001    -0.0822
@<TRIPOS>BOND
     1    23    19   ar
     2     7    21    1
     3    19    24   ar
     4    19    18    1
     5    18     8    1
     6    21     4    1
     7     3     4   ar
     8     3     2   ar
     9     4     5   ar
    10     8     2   ar
    11     8     9   ar
    12     2     1   ar
    13     5     6   ar
    14     9    17    1
    15     9    20   ar
    16     1     6   ar
    17     1    20   ar
    18    20    10   am
    19    10    22    2
    20    10    11    1
    21    11    16   ar
    22    11    12   ar
    23    16    15   ar
    24    12    13   ar
    25    15    14   ar
    26    13    14   ar
    27    14    25    1
