@<TRIPOS>MOLECULE
1s2c_NAP_A_1.pdb
 48 52 0 0 0
SMALL
GASTEIGER

@<TRIPOS>ATOM
      1  PA        29.0130  -28.3580   51.3490 P.3   1001  NAP1001     0.2189
      2  O1A       28.5370  -26.9660   51.1530 O.2   1001  NAP1001    -0.5170
      3  O2A       30.5300  -28.5490   51.3940 O.3   1001  NAP1001    -0.4371
      4  O5B       28.4740  -29.3220   50.1950 O.3   1001  NAP1001    -0.3112
      5  C5B       27.1090  -29.2740   49.8280 C.3   1001  NAP1001     0.1813
      6  C4B       26.8170  -30.3680   48.8160 C.3   1001  NAP1001     0.1820
      7  O4B       27.6210  -30.2130   47.6660 O.3   1001  NAP1001    -0.3136
      8  C3B       27.1260  -31.7650   49.3430 C.3   1001  NAP1001     0.2157
      9  O3B       26.0120  -32.3630   49.9840 O.3   1001  NAP1001    -0.2175
     10  C2B       27.5990  -32.5230   48.1110 C.3   1001  NAP1001     0.2314
     11  O2B       26.6960  -33.5370   47.7300 O.3   1001  NAP1001    -0.2630
     12  C1B       27.7000  -31.4680   47.0180 C.3   1001  NAP1001     0.3158
     13  N9A       28.9550  -31.4860   46.2440 N.pl3 1001  NAP1001    -0.1439
     14  C8A       30.2220  -31.6760   46.7370 C.3   1001  NAP1001     0.3377
     15  N7A       31.0820  -31.5900   45.7170 N.2   1001  NAP1001    -0.2095
     16  C5A       30.3940  -31.3310   44.5810 C.2   1001  NAP1001     0.2526
     17  C6A       30.7900  -31.1520   43.2610 C.2   1001  NAP1001     0.4393
     18  N6A       32.0720  -31.2780   42.8970 N.pl3 1001  NAP1001     0.2180
     19  N1A       29.8150  -30.9110   42.3090 N.2   1001  NAP1001     0.0021
     20  C2A       28.4820  -30.8430   42.6610 C.3   1001  NAP1001     0.5254
     21  N3A       28.0900  -31.0180   43.9670 N.2   1001  NAP1001    -0.0055
     22  C4A       29.0420  -31.2550   44.9110 C.2   1001  NAP1001     0.3518
     23  O3        28.3240  -29.1140   52.5980 O.3   1001  NAP1001    -0.2703
     24  PN        28.2330  -28.7350   54.1620 P.3   1001  NAP1001     0.2189
     25  O1N       28.0190  -30.0060   54.8810 O.3   1001  NAP1001    -0.4371
     26  O2N       27.2510  -27.6490   54.3620 O.2   1001  NAP1001    -0.5170
     27  O5D       29.6770  -28.1460   54.5420 O.3   1001  NAP1001    -0.3112
     28  C5D       30.7890  -29.0110   54.4590 C.3   1001  NAP1001     0.1813
     29  C4D       31.3340  -29.4110   55.8260 C.3   1001  NAP1001     0.1799
     30  O4D       31.5810  -28.2820   56.6570 O.3   1001  NAP1001    -0.3327
     31  C3D       30.4260  -30.3190   56.6490 C.3   1001  NAP1001     0.2158
     32  O3D       30.3440  -31.6730   56.2220 O.3   1001  NAP1001    -0.2175
     33  C2D       31.0550  -30.1200   58.0110 C.3   1001  NAP1001     0.2309
     34  O2D       32.2240  -30.8940   58.0960 O.3   1001  NAP1001    -0.2158
     35  C1D       31.3920  -28.6280   58.0090 C.3   1001  NAP1001     0.2263
     36  N1N       30.2890  -27.8170   58.5660 N.pl3 1001  NAP1001    -0.2787
     37  C2N       30.4660  -27.2390   59.7850 C.3   1001  NAP1001     0.1244
     38  C3N       29.4600  -26.4820   60.3460 C.2   1001  NAP1001     0.0544
     39  C7N       29.7120  -25.7660   61.6320 C.2   1001  NAP1001     0.2818
     40  O7N       28.5910  -25.3650   62.3410 O.2   1001  NAP1001    -0.2670
     41  N7N       30.9570  -25.5220   62.0730 N.am  1001  NAP1001    -0.0839
     42  C4N       28.2460  -26.3090   59.6790 C.2   1001  NAP1001     0.0033
     43  C5N       28.0760  -26.8960   58.4350 C.2   1001  NAP1001     0.0157
     44  C6N       29.0970  -27.6500   57.8870 C.2   1001  NAP1001     0.0633
     45  P2B       27.2460  -35.0270   47.4590 P.3   1001  NAP1001     0.5328
     46  O1X       27.6340  -35.6070   48.7720 O.3   1001  NAP1001    -0.1145
     47  O2X       26.0540  -35.7760   46.8270 O.3   1001  NAP1001    -0.1145
     48  O3X       28.4510  -34.9620   46.5350 O.2   1001  NAP1001    -0.2224
@<TRIPOS>BOND
     1    19    20    1
     2    19    17    2
     3    20    21    1
     4    18    17    1
     5    17    16    1
     6    21    22    2
     7    16    22    1
     8    16    15    2
     9    22    13    1
    10    15    14    1
    11    13    14    1
    12    13    12    1
    13    48    45    2
    14    47    45    1
    15    12     7    1
    16    12    10    1
    17    45    11    1
    18    45    46    1
    19     7     6    1
    20    11    10    1
    21    10     8    1
    22     6     8    1
    23     6     5    1
    24     8     9    1
    25     5     4    1
    26     4     1    1
    27     2     1    2
    28     1     3    1
    29     1    23    1
    30    23    24    1
    31    24    26    2
    32    24    27    1
    33    24    25    1
    34    28    27    1
    35    28    29    1
    36    29    31    1
    37    29    30    1
    38    32    31    1
    39    31    33    1
    40    30    35    1
    41    44    43    2
    42    44    36    1
    43    35    33    1
    44    35    36    1
    45    33    34    1
    46    43    42    1
    47    36    37    1
    48    42    38    2
    49    37    38    1
    50    38    39    1
    51    39    41   am
    52    39    40    2
