@<TRIPOS>MOLECULE
1s2c_FLF_A_1.pdb
 20 21 0 0 0
SMALL
GASTEIGER

@<TRIPOS>ATOM
      1  C1        25.9190  -29.0180   61.2950 C.ar  2001  FLF2001     0.0950
      2  O1        28.1750  -28.6650   61.8380 O.co2 2001  FLF2001    -0.2405
      3  C2        25.1120  -30.0600   60.8450 C.ar  2001  FLF2001     0.0079
      4  C3        23.7490  -30.0440   61.1280 C.ar  2001  FLF2001     0.0003
      5  O2        27.7350  -29.5810   59.8720 O.co2 2001  FLF2001    -0.2405
      6  C4        23.2020  -28.9960   61.8680 C.ar  2001  FLF2001     0.0013
      7  C5        23.9630  -27.9320   62.3360 C.ar  2001  FLF2001     0.0167
      8  C6        25.3320  -27.8840   62.0830 C.ar  2001  FLF2001     0.0768
      9  C7        27.3770  -29.0840   60.9690 C.2   2001  FLF2001     0.3890
     10  N         26.1010  -26.8590   62.5420 N.pl3 2001  FLF2001    -0.2123
     11  C1'       25.6540  -25.8660   63.3640 C.ar  2001  FLF2001     0.0704
     12  C2'       25.4750  -24.5560   62.9120 C.ar  2001  FLF2001     0.0204
     13  C3'       25.0390  -23.5570   63.7940 C.ar  2001  FLF2001     0.0727
     14  C4'       24.7880  -23.8910   65.1210 C.ar  2001  FLF2001     0.0039
     15  C5'       24.9740  -25.1930   65.5780 C.ar  2001  FLF2001     0.0013
     16  C6'       25.4070  -26.1780   64.6970 C.ar  2001  FLF2001     0.0165
     17  C7'       24.8230  -22.1230   63.3680 C.3   2001  FLF2001     0.4186
     18  F1        25.1410  -21.9560   62.1080 F     2001  FLF2001    -0.1659
     19  F2        25.5930  -21.3270   64.0950 F     2001  FLF2001    -0.1659
     20  F3        23.5580  -21.7630   63.5430 F     2001  FLF2001    -0.1659
@<TRIPOS>BOND
     1     5     9   ar
     2     3     4   ar
     3     3     1   ar
     4     9     1    1
     5     9     2   ar
     6     4     6   ar
     7     1     8   ar
     8     6     7   ar
     9     8     7   ar
    10     8    10    1
    11    18    17    1
    12    10    11    1
    13    12    11   ar
    14    12    13   ar
    15    11    16   ar
    16    17    20    1
    17    17    13    1
    18    17    19    1
    19    13    14   ar
    20    16    15   ar
    21    14    15   ar
