@<TRIPOS>MOLECULE
1s2d_ADE_A_1.pdb
 10 11 0 0 0
SMALL
GASTEIGER

@<TRIPOS>ATOM
      1  N9         3.0720   -6.0420  -26.1300 N.2   1245  ADE1245    -0.1914
      2  C8         2.9590   -4.8260  -26.7310 C.3   1245  ADE1245     0.2618
      3  N7         2.3130   -3.9240  -26.0370 N.2   1245  ADE1245    -0.2267
      4  C5         1.9680   -4.6170  -24.8620 C.2   1245  ADE1245     0.2303
      5  C6         1.2530   -4.2370  -23.6760 C.2   1245  ADE1245     0.4393
      6  N6         0.7580   -3.0070  -23.5120 N.pl3 1245  ADE1245     0.2185
      7  N1         1.0810   -5.1820  -22.6810 N.2   1245  ADE1245    -0.0265
      8  C2         1.5840   -6.4380  -22.8440 C.3   1245  ADE1245     0.4008
      9  N3         2.2690   -6.8940  -23.9190 N.2   1245  ADE1245    -0.1640
     10  C4         2.4290   -5.9330  -24.9010 C.1   1245  ADE1245     0.0579
@<TRIPOS>BOND
     1     2     1    1
     2     2     3    1
     3     1    10    2
     4     3     4    2
     5    10     4    1
     6    10     9    2
     7     4     5    1
     8     9     8    1
     9     5     6    1
    10     5     7    2
    11     8     7    1
