@<TRIPOS>MOLECULE
1s2g_3D1_A_1.pdb
 18 20 0 0 0
SMALL
GASTEIGER

@<TRIPOS>ATOM
      1  O5'       -1.3760  -10.2730  -22.0380 O.3   1168  3D11168    -0.2176
      2  C5'       -2.0280   -9.0170  -22.2620 C.3   1168  3D11168     0.2142
      3  C4'       -2.3380   -8.2530  -20.9460 C.3   1168  3D11168     0.1824
      4  O4'       -1.1470   -7.9570  -20.1840 O.3   1168  3D11168    -0.3154
      5  C1'       -0.7210   -6.6180  -20.5300 C.3   1168  3D11168     0.2874
      6  N9         0.3710   -6.6620  -21.8290 N.pl3 1168  3D11168    -0.1460
      7  C4         0.7880   -5.6430  -22.6800 C.2   1168  3D11168     0.3518
      8  N3         0.3970   -4.3240  -22.6470 N.2   1168  3D11168    -0.0055
      9  C2         0.9940   -3.5860  -23.6340 C.3   1168  3D11168     0.5254
     10  N1         1.8870   -4.0470  -24.5790 N.2   1168  3D11168     0.0021
     11  C6         2.2550   -5.4100  -24.5670 C.2   1168  3D11168     0.4393
     12  N6         3.1020   -5.9490  -25.4310 N.pl3 1168  3D11168     0.2180
     13  C5         1.6980   -6.2480  -23.5900 C.2   1168  3D11168     0.2526
     14  N7         1.8980   -7.6110  -23.3680 N.2   1168  3D11168    -0.2095
     15  C8         1.1210   -7.7990  -22.3520 C.3   1168  3D11168     0.3377
     16  C2'       -1.9450   -5.8760  -21.0320 C.3   1168  3D11168     0.1151
     17  C3'       -3.0060   -6.9150  -21.3020 C.3   1168  3D11168     0.1884
     18  O3'       -4.1460   -6.6070  -20.4800 O.3   1168  3D11168    -0.2202
@<TRIPOS>BOND
     1    12    11    1
     2    10    11    2
     3    10     9    1
     4    11    13    1
     5     9     8    1
     6    13    14    2
     7    13     7    1
     8    14    15    1
     9     7     8    2
    10     7     6    1
    11    15     6    1
    12     2     1    1
    13     2     3    1
    14     6     5    1
    15    17    16    1
    16    17     3    1
    17    17    18    1
    18    16     5    1
    19     3     4    1
    20     5     4    1
