@<TRIPOS>MOLECULE
1s2i_BP1_A_1.pdb
 10 11 0 0 0
SMALL
GASTEIGER

@<TRIPOS>ATOM
      1  N9         1.3150   -3.0750  -24.3550 N.2   1245  BP11245    -0.1916
      2  C4         1.8380   -4.3630  -24.4600 C.1   1245  BP11245     0.0501
      3  N3         2.7730   -4.8590  -25.3870 N.2   1245  BP11245    -0.1916
      4  C2         3.0760   -6.1920  -25.2070 C.3   1245  BP11245     0.2615
      5  N1         2.5230   -7.0110  -24.2120 N.2   1245  BP11245    -0.2346
      6  C6         1.5890   -6.4920  -23.2950 C.2   1245  BP11245     0.1390
      7 BR          1.0510   -7.3310  -22.3010 Br    1245  BP11245    -0.0261
      8  C5         1.2030   -5.0840  -23.4020 C.2   1245  BP11245     0.1630
      9  N7         0.3260   -4.2630  -22.6740 N.2   1245  BP11245    -0.2314
     10  C8         0.4460   -3.0960  -23.2960 C.3   1245  BP11245     0.2617
@<TRIPOS>BOND
     1     3     4    1
     2     3     2    2
     3     4     5    1
     4     2     1    2
     5     2     8    1
     6     1    10    1
     7     5     6    2
     8     8     6    1
     9     8     9    2
    10    10     9    1
    11     6     7    1
