@<TRIPOS>MOLECULE
1s2k_TYR_A_1.pdb
 13 13 0 0 0
SMALL
GASTEIGER

@<TRIPOS>ATOM
      1  N         72.9350   42.5130   24.2400 N.3   1001  TYR1001    -0.1205
      2  CA        73.5630   42.6400   25.5860 C.3   1001  TYR1001     0.1986
      3  C         74.0770   44.0560   25.8230 C.2   1001  TYR1001     0.3822
      4  O         73.7220   44.9510   25.0250 O.co2 1001  TYR1001    -0.2440
      5  CB        74.7190   41.6440   25.7220 C.3   1001  TYR1001     0.0569
      6  CG        74.2930   40.1910   25.7410 C.ar  1001  TYR1001    -0.0200
      7  CD1       75.2420   39.1700   25.7550 C.ar  1001  TYR1001    -0.0009
      8  CD2       72.9440   39.8350   25.7580 C.ar  1001  TYR1001    -0.0009
      9  CE1       74.8590   37.8310   25.7840 C.ar  1001  TYR1001     0.0417
     10  CE2       72.5510   38.5010   25.7880 C.ar  1001  TYR1001     0.0417
     11  CZ        73.5120   37.5040   25.8010 C.ar  1001  TYR1001     0.1957
     12  OH        73.1270   36.1830   25.8320 O.3   1001  TYR1001    -0.2866
     13  OXT       74.8270   44.2500   26.8040 O.co2 1001  TYR1001    -0.2440
@<TRIPOS>BOND
     1     1     2    1
     2     4     3   ar
     3     2     5    1
     4     2     3    1
     5     5     6    1
     6     6     7   ar
     7     6     8   ar
     8     7     9   ar
     9     8    10   ar
    10     9    11   ar
    11    10    11   ar
    12    11    12    1
    13     3    13   ar
