@<TRIPOS>MOLECULE
1s2k_III_B_1.pdb
 24 24 0 0 0
SMALL
GASTEIGER

@<TRIPOS>ATOM
      1  N         75.5990   51.2150   15.5070 N.3     1  ALA1       -0.1231
      2  CA        75.2270   49.7940   15.2480 C.3     1  ALA1        0.1694
      3  C         76.1410   48.8250   15.9990 C.2     1  ALA1        0.2592
      4  O         77.3430   48.7530   15.7360 O.2     1  ALA1       -0.2718
      5  CB        75.2780   49.5090   13.7510 C.3     1  ALA1        0.0304
      6  N         75.5590   48.0770   16.9320 N.am    2  ILE2       -0.1966
      7  CA        76.3130   47.1150   17.7260 C.3     2  ILE2        0.1727
      8  C         75.6120   45.7610   17.7750 C.2     2  ILE2        0.2617
      9  O         74.4380   45.6700   18.1390 O.2     2  ILE2       -0.2715
     10  CB        76.5090   47.6210   19.1690 C.3     2  ILE2        0.0290
     11  CG1       77.2770   48.9440   19.1510 C.3     2  ILE2        0.0022
     12  CG2       77.2520   46.5740   19.9950 C.3     2  ILE2        0.0023
     13  CD1       77.4920   49.5500   20.5190 C.3     2  ILE2        0.0001
     14  N         76.3390   44.7110   17.4090 N.am    3  HIS3       -0.1938
     15  CA        75.7800   43.3660   17.4170 C.3     3  HIS3        0.2034
     16  C         76.4540   42.5290   18.4970 C.2     3  HIS3        0.3846
     17  O         77.3970   43.0440   19.1370 O.co2   3  HIS3       -0.2437
     18  CB        75.9750   42.7010   16.0520 C.3     3  HIS3        0.0767
     19  CG        75.5650   43.5590   14.8950 C.2     3  HIS3        0.0653
     20  ND1       76.3170   44.6290   14.4580 N.2     3  HIS3       -0.2309
     21  CD2       74.4810   43.5060   14.0840 C.3     3  HIS3        0.1683
     22  CE1       75.7150   45.1970   13.4280 C.2     3  HIS3        0.1939
     23  NE2       74.5990   44.5340   13.1810 N.2     3  HIS3       -0.2440
     24  OXT       76.0380   41.3690   18.6890 O.co2   3  HIS3       -0.2437
@<TRIPOS>BOND
     1    23    22    2
     2    23    21    1
     3    22    20    1
     4     5     2    1
     5    21    19    1
     6    20    19    2
     7    19    18    1
     8     2     1    1
     9     2     3    1
    10     4     3    2
    11     3     6   am
    12    18    15    1
    13     6     7    1
    14    14    15    1
    15    14     8   am
    16    15    16    1
    17     7     8    1
    18     7    10    1
    19     8     9    2
    20    16    24   ar
    21    16    17   ar
    22    11    10    1
    23    11    13    1
    24    10    12    1
