@<TRIPOS>MOLECULE
1s2q_RAS_A_1.pdb
 13 14 0 0 0
SMALL
GASTEIGER

@<TRIPOS>ATOM
      1  N10       54.1270  154.4540   24.8200 N.2   601  RAS601     -0.2664
      2  C11       53.9630  153.8080   23.7190 C.2   601  RAS601      0.0935
      3  C12       54.9900  152.7580   23.2830 C.2   601  RAS601      0.0202
      4  C13       55.0110  152.2030   22.1160 C.2   601  RAS601      0.0016
      5  C9        53.1420  155.4360   25.2310 C.3   601  RAS601      0.1255
      6  C1        53.7350  156.8560   25.3250 C.3   601  RAS601      0.0335
      7  C2        53.2110  157.4890   26.6340 C.3   601  RAS601      0.0284
      8  C3        52.7140  156.3060   27.4010 C.ar  601  RAS601     -0.0243
      9  C8        52.6870  155.1760   26.6340 C.ar  601  RAS601     -0.0041
     10  C7        52.2600  153.9670   27.1530 C.ar  601  RAS601     -0.0027
     11  C4        52.3220  156.2940   28.7280 C.ar  601  RAS601     -0.0045
     12  C5        51.8890  155.0870   29.2650 C.ar  601  RAS601     -0.0003
     13  C6        51.8600  153.9330   28.4830 C.ar  601  RAS601     -0.0003
@<TRIPOS>BOND
     1     4     3    2
     2     3     2    1
     3     2     1    2
     4     1     5    1
     5     5     6    1
     6     5     9    1
     7     6     7    1
     8     7     8    1
     9     9    10   ar
    10     9     8   ar
    11    10    13   ar
    12     8    11   ar
    13    13    12   ar
    14    11    12   ar
