@<TRIPOS>MOLECULE
1s2y_RSA_A_1.pdb
 13 14 0 0 0
SMALL
GASTEIGER

@<TRIPOS>ATOM
      1  C13       53.9720  152.2890   22.0000 C.2   601  RSA601      0.0016
      2  C12       54.1850  153.1740   22.9000 C.2   601  RSA601      0.0202
      3  C11       53.0330  153.7590   23.7060 C.2   601  RSA601      0.0939
      4  N10       53.2470  154.3160   24.8340 N.2   601  RSA601     -0.2620
      5  C9        52.1280  154.8570   25.5690 C.3   601  RSA601      0.1475
      6  C1        51.6930  154.2410   26.9100 C.2   601  RSA601      0.0021
      7  C2        51.5780  155.3790   27.9510 C.2   601  RSA601     -0.0026
      8  C3        52.1260  156.5580   27.2150 C.ar  601  RSA601     -0.0021
      9  C8        52.4240  156.2750   25.9140 C.ar  601  RSA601      0.0039
     10  C7        52.9400  157.2350   25.0640 C.ar  601  RSA601     -0.0021
     11  C4        52.3250  157.8250   27.7360 C.ar  601  RSA601     -0.0003
     12  C5        52.8420  158.8040   26.8970 C.ar  601  RSA601     -0.0000
     13  C6        53.1470  158.5100   25.5700 C.ar  601  RSA601     -0.0003
@<TRIPOS>BOND
     1     1     2    2
     2     2     3    1
     3     3     4    2
     4     4     5    1
     5    10    13   ar
     6    10     9   ar
     7     5     9    1
     8     5     6    1
     9    13    12   ar
    10     9     8   ar
    11    12    11   ar
    12     6     7    2
    13     8    11   ar
    14     8     7    1
