@<TRIPOS>MOLECULE
1s36_CEI_A_1.pdb
 31 34 0 0 0
SMALL
GASTEIGER

@<TRIPOS>ATOM
      1  O33       52.9900   28.6000  -60.5680 O.2   201  CEI201     -0.2425
      2  C2        53.8720   28.7250  -61.3930 C.2   201  CEI201      0.3568
      3  C10       54.0200   30.0200  -62.1620 C.3   201  CEI201      0.1430
      4  C11       55.1780   30.6470  -61.3660 C.ar  201  CEI201     -0.0104
      5  C12       56.4830   30.5430  -61.8230 C.ar  201  CEI201     -0.0004
      6  C13       57.5430   31.1020  -61.0700 C.ar  201  CEI201      0.0417
      7  C14       57.2730   31.7330  -59.8460 C.ar  201  CEI201      0.1957
      8  O17       58.3390   32.2980  -59.0680 O.3   201  CEI201     -0.2866
      9  C15       55.9620   31.8140  -59.3840 C.ar  201  CEI201      0.0417
     10  C16       54.9170   31.2610  -60.1360 C.ar  201  CEI201     -0.0004
     11  N1        54.7170   27.7360  -61.6470 N.am  201  CEI201      0.0341
     12  C9        54.8020   26.5230  -60.8360 C.2   201  CEI201      0.3903
     13  C8        53.7940   25.5320  -60.8380 C.2   201  CEI201      0.1984
     14  C26       52.5020   25.7150  -61.6310 C.3   201  CEI201      0.0932
     15  C27       52.4770   24.9430  -62.9310 C.ar  201  CEI201     -0.0149
     16  C28       52.2070   25.6050  -64.1250 C.ar  201  CEI201     -0.0038
     17  C29       52.1830   24.8890  -65.3360 C.ar  201  CEI201     -0.0003
     18  C30       52.4240   23.5110  -65.3390 C.ar  201  CEI201     -0.0000
     19  C31       52.6850   22.8440  -64.1400 C.ar  201  CEI201     -0.0003
     20  C32       52.7070   23.5580  -62.9340 C.ar  201  CEI201     -0.0038
     21  N7        53.9710   24.4200  -60.0920 N.2   201  CEI201     -0.3981
     22  C6        55.1180   24.2490  -59.3840 C.2   201  CEI201      0.1623
     23  C5        56.1080   25.2210  -59.4190 C.3   201  CEI201      0.3214
     24  N4        55.9370   26.3210  -60.1230 N.2   201  CEI201     -0.0517
     25  C19       55.3300   23.0650  -58.6230 C.ar  201  CEI201      0.0300
     26  C20       54.8400   21.8360  -59.0820 C.ar  201  CEI201      0.0056
     27  C21       55.0760   20.6680  -58.3410 C.ar  201  CEI201      0.0421
     28  C22       55.8000   20.7280  -57.1560 C.ar  201  CEI201      0.1957
     29  O25       56.0200   19.5480  -56.4010 O.3   201  CEI201     -0.2866
     30  C23       56.2920   21.9560  -56.6950 C.ar  201  CEI201      0.0421
     31  C24       56.0810   23.1150  -57.4380 C.ar  201  CEI201      0.0056
@<TRIPOS>BOND
     1    18    17   ar
     2    18    19   ar
     3    17    16   ar
     4    19    20   ar
     5    16    15   ar
     6    20    15   ar
     7    15    14    1
     8     3     2    1
     9     3     4    1
    10     5     4   ar
    11     5     6   ar
    12    11     2   am
    13    11    12    1
    14    14    13    1
    15     2     1    2
    16     4    10   ar
    17     6     7   ar
    18    13    12    1
    19    13    21    2
    20    12    24    2
    21    10     9   ar
    22    24    23    1
    23    21    22    2
    24     7     9   ar
    25     7     8    1
    26    23    22    1
    27    22    25    1
    28    26    25   ar
    29    26    27   ar
    30    25    31   ar
    31    27    28   ar
    32    31    30   ar
    33    28    30   ar
    34    28    29    1
