@<TRIPOS>MOLECULE
1s38_MAQ_A_1.pdb
 13 14 0 0 0
SMALL
GASTEIGER

@<TRIPOS>ATOM
      1  C1        17.1110   16.7670   18.7770 C.2   900  MAQ900     -0.0231
      2  C2        16.0680   16.4780   19.7180 C.2   900  MAQ900      0.0055
      3  C9        14.6910   15.9090   19.2960 C.3   900  MAQ900      0.0334
      4  C3        16.3090   16.7310   21.1290 C.2   900  MAQ900      0.1524
      5  N3        15.3370   16.4740   22.0920 N.2   900  MAQ900     -0.3249
      6  C8        15.5140   16.6900   23.3800 C.1   900  MAQ900      0.2518
      7  N2        14.5310   16.4170   24.2140 N.pl3 900  MAQ900     -0.0226
      8  N1        16.6740   17.1860   23.8600 N.2   900  MAQ900     -0.2501
      9  C7        17.7200   17.4890   23.0730 C.1   900  MAQ900      0.2179
     10  O1        18.7830   17.9410   23.4930 O.2   900  MAQ900     -0.2085
     11  C4        17.5900   17.2630   21.5480 C.2   900  MAQ900      0.1216
     12  C5        18.6150   17.5430   20.5890 C.2   900  MAQ900     -0.0062
     13  C6        18.3790   17.2950   19.1960 C.3   900  MAQ900      0.0526
@<TRIPOS>BOND
     1     1    13    1
     2     1     2    2
     3    13    12    1
     4     3     2    1
     5     2     4    1
     6    12    11    2
     7     4    11    1
     8     4     5    2
     9    11     9    1
    10     5     6    2
    11     9    10    2
    12     9     8    2
    13     6     8    2
    14     6     7    1
