@<TRIPOS>MOLECULE
1s39_AQO_A_1.pdb
 12 13 0 0 0
SMALL
GASTEIGER

@<TRIPOS>ATOM
      1  C1        18.1570   17.1460   19.1100 C.2   900  AQO900     -0.0030
      2  C2        16.8480   16.7120   18.7390 C.2   900  AQO900      0.0021
      3  C3        15.8400   16.5470   19.7200 C.2   900  AQO900      0.0300
      4  C4        16.1130   16.8130   21.1020 C.2   900  AQO900      0.1431
      5  N5        15.0980   16.6460   22.0520 N.2   900  AQO900     -0.3283
      6  C6        15.3240   16.8840   23.3250 C.1   900  AQO900      0.2512
      7  N7        14.3360   16.7300   24.3030 N.pl3 900  AQO900     -0.0226
      8  N8        16.6160   17.3270   23.8100 N.2   900  AQO900     -0.2537
      9  C9        17.7220   17.5250   22.8910 C.1   900  AQO900      0.2018
     10  O10       18.8180   17.9050   23.3400 O.2   900  AQO900     -0.2127
     11  C11       17.4410   17.2520   21.4730 C.3   900  AQO900      0.1938
     12  C12       18.4480   17.4130   20.4680 C.2   900  AQO900     -0.0018
@<TRIPOS>BOND
     1     2     1    1
     2     2     3    2
     3     1    12    2
     4     3     4    1
     5    12    11    1
     6     4    11    1
     7     4     5    2
     8    11     9    1
     9     5     6    2
    10     9    10    2
    11     9     8    2
    12     6     8    2
    13     6     7    1
