@<TRIPOS>MOLECULE
1s3b_RMA_A_1.pdb
 14 15 0 0 0
SMALL
GASTEIGER

@<TRIPOS>ATOM
      1  C13       53.9890  151.3550   21.8360 C.3   601  RMA601      0.0321
      2  C12       53.9680  151.8440   23.0370 C.2   601  RMA601     -0.0100
      3  C11       53.0210  152.9490   23.5260 C.2   601  RMA601      0.0572
      4  N10       53.0570  153.3850   24.7420 N.pl3 601  RMA601     -0.2993
      5  C10       53.9140  152.8990   25.5760 C.3   601  RMA601      0.1127
      6  C9        52.1190  154.4370   25.1380 C.3   601  RMA601      0.1179
      7  C1        52.7910  155.8190   25.1210 C.2   601  RMA601     -0.0023
      8  C2        52.4620  156.5410   26.4410 C.2   601  RMA601     -0.0029
      9  C3        51.8490  155.4620   27.2720 C.ar  601  RMA601     -0.0024
     10  C8        51.6670  154.3070   26.5670 C.ar  601  RMA601     -0.0002
     11  C7        51.1110  153.1890   27.1580 C.ar  601  RMA601     -0.0024
     12  C4        51.4940  155.5650   28.6010 C.ar  601  RMA601     -0.0003
     13  C5        50.9380  154.4520   29.2130 C.ar  601  RMA601     -0.0000
     14  C6        50.7560  153.2750   28.4970 C.ar  601  RMA601     -0.0003
@<TRIPOS>BOND
     1     1     2    1
     2     2     3    2
     3     3     4    1
     4     4     6    1
     5     4     5    1
     6     7     6    1
     7     7     8    2
     8     6    10    1
     9     8     9    1
    10    10    11   ar
    11    10     9   ar
    12    11    14   ar
    13     9    12   ar
    14    14    13   ar
    15    12    13   ar
