@<TRIPOS>MOLECULE
1s3e_RHP_A_1.pdb
 14 15 0 0 0
SMALL
GASTEIGER

@<TRIPOS>ATOM
      1  C13       54.4910  152.1190   22.0600 C.2   601  RHP601      0.0016
      2  C12       54.5830  152.7960   23.1660 C.2   601  RHP601      0.0202
      3  C11       53.5310  153.7740   23.7100 C.2   601  RHP601      0.0935
      4  N10       53.7590  154.4490   24.7830 N.2   601  RHP601     -0.2664
      5  C9        52.7340  155.3640   25.2760 C.3   601  RHP601      0.1256
      6  C1        53.2740  156.7820   25.5050 C.3   601  RHP601      0.0335
      7  C2        52.6740  157.3100   26.8250 C.3   601  RHP601      0.0284
      8  C3        52.2240  156.0560   27.4980 C.ar  601  RHP601     -0.0241
      9  C8        52.2740  154.9870   26.6510 C.ar  601  RHP601     -0.0010
     10  C7        51.9050  153.7290   27.0750 C.ar  601  RHP601      0.0393
     11  C4        51.8150  155.9270   28.8120 C.ar  601  RHP601     -0.0012
     12  C5        51.4430  154.6620   29.2560 C.ar  601  RHP601      0.0417
     13  C6        51.4900  153.5750   28.3910 C.ar  601  RHP601      0.1955
     14  O6        51.1190  152.3210   28.8320 O.3   601  RHP601     -0.2866
@<TRIPOS>BOND
     1     1     2    2
     2     2     3    1
     3     3     4    2
     4     4     5    1
     5     5     6    1
     6     5     9    1
     7     6     7    1
     8     9    10   ar
     9     9     8   ar
    10     7     8    1
    11    10    13   ar
    12     8    11   ar
    13    13    14    1
    14    13    12   ar
    15    11    12   ar
