@<TRIPOS>MOLECULE
1s3f_SNI_A_1.pdb
 19 21 0 0 0
SMALL
GASTEIGER

@<TRIPOS>ATOM
      1  O5'       -1.5430  -10.3570  -22.1160 O.3   745  SNI745      0.0000
      2  C5'       -2.0760   -9.0940  -22.3900 C.3   745  SNI745      0.0000
      3  C4'       -2.0620   -8.1730  -21.2170 C.3   745  SNI745      0.0000
      4  O4'       -0.7060   -7.8660  -20.7650 O.3   745  SNI745      0.0000
      5  C1'       -0.2870   -6.4640  -21.0400 C.3   745  SNI745      0.0000
      6  N9         0.6730   -6.4690  -22.1630 N.pl3 745  SNI745      0.5000
      7  C4         1.0450   -5.3970  -22.9980 C.2   745  SNI745      0.0000
      8  N3         0.6650   -4.0450  -22.9140 N.2   745  SNI745      0.5000
      9  C2         1.1730   -3.2350  -23.9180 C.3   745  SNI745      0.0000
     10  N1         2.0340   -3.7120  -24.9120 N.2   745  SNI745      0.0000
     11  C6         2.5000   -5.0570  -25.0070 C.2   745  SNI745      0.0000
     12 SE          3.2890   -5.3880  -25.9570 Se    745  SNI745      0.0000
     13  C5         1.9310   -5.9270  -23.9670 C.2   745  SNI745      0.0000
     14  N7         2.1250   -7.2690  -23.7340 N.2   745  SNI745      0.0000
     15  C8         1.3500   -7.6060  -22.6120 C.3   745  SNI745      0.0000
     16  C2'       -1.7220   -5.7770  -21.1340 C.3   745  SNI745      0.0000
     17  O2'       -1.9940   -5.1020  -19.9160 O.3   745  SNI745      0.0000
     18  C3'       -2.7620   -6.8670  -21.4760 C.3   745  SNI745      0.0000
     19  O3'       -3.8400   -6.8010  -20.5500 O.3   745  SNI745      0.0000
@<TRIPOS>BOND
     1    12    11    1
     2    11    10    2
     3    11    13    1
     4    10     9    1
     5    13    14    2
     6    13     7    1
     7     9     8    1
     8    14    15    1
     9     7     8    2
    10     7     6    1
    11    15     6    1
    12     2     1    1
    13     2     3    1
    14     6     5    1
    15    18     3    1
    16    18    16    1
    17    18    19    1
    18     3     4    1
    19    16     5    1
    20    16    17    1
    21     5     4    1
