@<TRIPOS>MOLECULE
1s3k_GAL_H_1.pdb
 11 11 0 0 0
SMALL
GASTEIGER

@<TRIPOS>ATOM
      1  C1       -36.4530   43.3880   13.4410 C.3   224  GAL224      0.1777
      2  C2       -36.0460   44.8300   13.7850 C.3   224  GAL224      0.2141
      3  C3       -35.9170   45.6280   12.4880 C.3   224  GAL224      0.2173
      4  C4       -34.8730   44.9570   11.5950 C.3   224  GAL224      0.2142
      5  C5       -35.3180   43.5150   11.3250 C.3   224  GAL224      0.1810
      6  C6       -34.3480   42.7310   10.4540 C.3   224  GAL224      0.2141
      7  O2       -37.0280   45.4430   14.6390 O.3   224  GAL224     -0.2176
      8  O3       -35.5420   46.9710   12.7630 O.3   224  GAL224     -0.2175
      9  O4       -33.6170   44.9550   12.2620 O.3   224  GAL224     -0.2176
     10  O5       -35.4620   42.7980   12.5720 O.3   224  GAL224     -0.3481
     11  O6       -33.0300   42.7620   10.9820 O.3   224  GAL224     -0.2176
@<TRIPOS>BOND
     1     6    11    1
     2     6     5    1
     3     5     4    1
     4     5    10    1
     5     4     9    1
     6     4     3    1
     7     3     8    1
     8     3     2    1
     9    10     1    1
    10     1     2    1
    11     2     7    1
