@<TRIPOS>MOLECULE
1s3k_FUC_H_1.pdb
 10 10 0 0 0
SMALL
GASTEIGER

@<TRIPOS>ATOM
      1  C1       -36.5030   46.2510   15.6590 C.3   223  FUC223      0.1776
      2  C2       -37.5680   47.2350   16.1480 C.3   223  FUC223      0.2141
      3  C3       -38.6740   46.4810   16.8880 C.3   223  FUC223      0.2172
      4  C4       -38.0680   45.6660   18.0300 C.3   223  FUC223      0.2116
      5  C5       -37.0060   44.7220   17.4690 C.3   223  FUC223      0.1483
      6  C6       -36.2940   43.9450   18.5580 C.3   223  FUC223      0.0349
      7  O2       -38.1210   47.9380   15.0460 O.3   223  FUC223     -0.2176
      8  O3       -39.6240   47.4030   17.4030 O.3   223  FUC223     -0.2175
      9  O4       -37.4680   46.5450   18.9770 O.3   223  FUC223     -0.2177
     10  O5       -36.0010   45.4840   16.7550 O.3   223  FUC223     -0.3508
@<TRIPOS>BOND
     1     7     2    1
     2     1     2    1
     3     1    10    1
     4     2     3    1
     5    10     5    1
     6     3     8    1
     7     3     4    1
     8     5     4    1
     9     5     6    1
    10     4     9    1
