@<TRIPOS>MOLECULE
1s3s_ADP_A_1.pdb
 27 29 0 0 0
SMALL
GASTEIGER

@<TRIPOS>ATOM
      1  PB        37.4380  -32.7270   17.6740 P.3   800  ADP800      0.5373
      2  O1B       37.0890  -31.7170   18.6980 O.3   800  ADP800     -0.1143
      3  O2B       37.6250  -32.0190   16.2590 O.2   800  ADP800     -0.2221
      4  O3B       36.4120  -33.7920   17.6330 O.3   800  ADP800     -0.1143
      5  PA        39.8690  -33.1580   19.1050 P.3   800  ADP800      0.2231
      6  O1A       40.3180  -31.7800   19.1880 O.2   800  ADP800     -0.5169
      7  O2A       39.2780  -33.5500   20.3700 O.3   800  ADP800     -0.4370
      8  O3A       38.8450  -33.3400   17.9530 O.3   800  ADP800     -0.2261
      9  O5'       41.0620  -34.1010   18.8740 O.3   800  ADP800     -0.3111
     10  C5'       41.3300  -35.0420   17.8630 C.3   800  ADP800      0.1813
     11  C4'       42.7360  -35.5750   18.2750 C.3   800  ADP800      0.1821
     12  O4'       43.4390  -35.8190   17.0540 O.3   800  ADP800     -0.3135
     13  C3'       43.6320  -34.5610   19.0340 C.3   800  ADP800      0.2184
     14  O3'       43.6140  -34.6970   20.4610 O.3   800  ADP800     -0.2174
     15  C2'       45.0050  -34.7330   18.4510 C.3   800  ADP800      0.2570
     16  O2'       45.8310  -35.6620   19.1690 O.3   800  ADP800     -0.2130
     17  C1'       44.6880  -35.0880   17.0090 C.3   800  ADP800      0.3186
     18  N9        44.5550  -33.8590   16.1400 N.pl3 800  ADP800     -0.1439
     19  C8        43.3960  -33.3170   15.6920 C.3   800  ADP800      0.3377
     20  N7        43.6440  -32.2510   14.9690 N.2   800  ADP800     -0.2095
     21  C5        44.9340  -32.0760   14.9260 C.2   800  ADP800      0.2526
     22  C6        45.7780  -31.1470   14.3400 C.2   800  ADP800      0.4393
     23  N6        45.2570  -30.1530   13.6250 N.pl3 800  ADP800      0.2180
     24  N1        47.1460  -31.2550   14.4960 N.2   800  ADP800      0.0021
     25  C2        47.7130  -32.2580   15.2220 C.3   800  ADP800      0.5254
     26  N3        46.8990  -33.1660   15.8020 N.2   800  ADP800     -0.0055
     27  C4        45.5360  -33.1150   15.6840 C.2   800  ADP800      0.3518
@<TRIPOS>BOND
     1    23    22    1
     2    22    24    2
     3    22    21    1
     4    24    25    1
     5    21    20    2
     6    21    27    1
     7    20    19    1
     8    25    26    1
     9    27    26    2
    10    27    18    1
    11    19    18    1
    12    18    17    1
    13     3     1    2
    14    17    12    1
    15    17    15    1
    16    12    11    1
    17     4     1    1
    18     1     8    1
    19     1     2    1
    20    10    11    1
    21    10     9    1
    22     8     5    1
    23    11    13    1
    24    15    13    1
    25    15    16    1
    26     9     5    1
    27    13    14    1
    28     5     6    2
    29     5     7    1
