@<TRIPOS>MOLECULE
1s3u_TQD_A_1.pdb
 27 29 0 0 0
SMALL
GASTEIGER

@<TRIPOS>ATOM
      1  C2D       27.4700   12.6890   -4.5640 C.1   187  TQD187      0.2422
      2  C4D       27.1310   12.5850   -2.2530 C.2   187  TQD187      0.2204
      3  C4A       28.2560   13.4670   -2.0210 C.3   187  TQD187      0.1458
      4  C5D       28.8190   13.7070   -0.7380 C.2   187  TQD187     -0.0134
      5  C6D       29.9700   14.4910   -0.6240 C.2   187  TQD187     -0.0058
      6  C7'       30.7200   14.8380   -1.7690 C.2   187  TQD187     -0.0006
      7  C8        30.3260   14.3000   -3.0280 C.2   187  TQD187      0.0291
      8  C8A       29.1300   13.5970   -3.1310 C.2   187  TQD187      0.1345
      9  C8'       30.5020   14.7270    0.8240 C.3   187  TQD187      0.1175
     10  C1'       32.7040   15.8020    0.6940 C.ar  187  TQD187      0.0544
     11  C2'       34.0550   15.5450    0.5200 C.ar  187  TQD187      0.0548
     12  C3'       34.8710   16.5880    0.1450 C.ar  187  TQD187      0.1767
     13  C3B       36.7890   15.2060    0.3080 C.3   187  TQD187      0.2526
     14  C4'       34.3790   17.8640   -0.0340 C.ar  187  TQD187      0.2061
     15  C4B       36.1960   18.4010   -1.3690 C.3   187  TQD187      0.2528
     16  C5'       33.0060   18.1090    0.1450 C.ar  187  TQD187      0.1767
     17  C5B       31.3500   19.7200    0.0550 C.3   187  TQD187      0.2526
     18  C6'       32.1200   17.0560    0.4660 C.ar  187  TQD187      0.0548
     19  N1'       28.8190   12.9990   -4.3460 N.2   187  TQD187     -0.3295
     20  N2'       27.1430   12.0870   -5.6870 N.pl3 187  TQD187     -0.0232
     21  N3'       26.7090   12.4240   -3.4740 N.2   187  TQD187     -0.3112
     22  N4'       26.2540   12.1990   -1.3130 N.pl3 187  TQD187     -0.0962
     23  N9'       31.9510   14.6870    1.0060 N.pl3 187  TQD187     -0.3017
     24  O3'       36.2130   16.4610   -0.0210 O.3   187  TQD187     -0.4682
     25  O4'       35.2670   18.9000   -0.4030 O.3   187  TQD187     -0.4654
     26  O5'       32.7720   19.4980   -0.1160 O.3   187  TQD187     -0.4682
     27  C9'       32.6600   13.4750    1.3550 C.3   187  TQD187      0.1125
@<TRIPOS>BOND
     1    20     1    1
     2     1    19    2
     3     1    21    2
     4    19     8    2
     5    21     2    2
     6     8     7    1
     7     8     3    1
     8     7     6    2
     9     2     3    1
    10     2    22    1
    11     3     4    1
    12     6     5    1
    13    15    25    1
    14     4     5    2
    15     5     9    1
    16    25    14    1
    17    26    17    1
    18    26    16    1
    19    14    16   ar
    20    14    12   ar
    21    24    12    1
    22    24    13    1
    23    16    18   ar
    24    12    11   ar
    25    18    10   ar
    26    11    10   ar
    27    10    23    1
    28     9    23    1
    29    23    27    1
