@<TRIPOS>MOLECULE
1s3v_TQD_A_1.pdb
 27 29 0 0 0
SMALL
GASTEIGER

@<TRIPOS>ATOM
      1  C2D       -0.0220   32.0840    0.4630 C.1   187  TQD187      0.2418
      2  C4D       -1.0240   32.5690    2.5090 C.2   187  TQD187      0.2160
      3  C4A       -1.5800   31.2770    2.5290 C.3   187  TQD187      0.1200
      4  C5D       -2.2630   30.7710    3.8370 C.3   187  TQD187      0.0170
      5  C6D       -3.1500   29.5290    3.5680 C.3   187  TQD187      0.0210
      6  C7'       -2.3810   28.4980    2.7070 C.3   187  TQD187      0.0088
      7  C8        -1.7830   29.0250    1.3530 C.3   187  TQD187      0.0560
      8  C8A       -1.3110   30.4230    1.4480 C.2   187  TQD187      0.1081
      9  C8'       -3.6230   28.9830    4.9610 C.3   187  TQD187      0.0908
     10  C1'       -4.2430   26.5590    4.7800 C.ar  187  TQD187      0.0542
     11  C2'       -5.1380   25.6470    4.2580 C.ar  187  TQD187      0.0548
     12  C3'       -4.8550   24.2840    4.1780 C.ar  187  TQD187      0.1767
     13  C3B       -7.0110   23.8840    3.0290 C.3   187  TQD187      0.2526
     14  C4'       -3.6600   23.8460    4.6560 C.ar  187  TQD187      0.2061
     15  C4B       -2.5570   22.0920    3.4830 C.3   187  TQD187      0.2528
     16  C5'       -2.7120   24.7340    5.1800 C.ar  187  TQD187      0.1767
     17  C5B       -0.4570   25.1330    6.0060 C.3   187  TQD187      0.2526
     18  C6'       -3.0110   26.0890    5.2580 C.ar  187  TQD187      0.0548
     19  N1'       -0.4660   30.8230    0.4170 N.2   187  TQD187     -0.3342
     20  N2'        0.8430   32.3740   -0.5420 N.pl3 187  TQD187     -0.0232
     21  N3'       -0.2370   32.9710    1.4960 N.2   187  TQD187     -0.3115
     22  N4'       -1.2830   33.4620    3.4970 N.pl3 187  TQD187     -0.0965
     23  N9'       -4.6260   27.9200    4.8320 N.pl3 187  TQD187     -0.3056
     24  O3'       -5.8220   23.4160    3.6560 O.3   187  TQD187     -0.4682
     25  O4'       -3.1430   22.5770    4.6930 O.3   187  TQD187     -0.4654
     26  O5'       -1.5180   24.2160    5.6340 O.3   187  TQD187     -0.4682
     27  C9'       -6.0510   28.2900    4.7350 C.3   187  TQD187      0.1122
@<TRIPOS>BOND
     1    20     1    1
     2    19     1    2
     3    19     8    2
     4     1    21    2
     5     7     8    1
     6     7     6    1
     7     8     3    1
     8    21     2    2
     9     2     3    1
    10     2    22    1
    11     3     4    1
    12     6     5    1
    13    13    24    1
    14    15    25    1
    15     5     4    1
    16     5     9    1
    17    24    12    1
    18    12    11   ar
    19    12    14   ar
    20    11    10   ar
    21    14    25    1
    22    14    16   ar
    23    27    23    1
    24    10    23    1
    25    10    18   ar
    26    23     9    1
    27    16    18   ar
    28    16    26    1
    29    26    17    1
