@<TRIPOS>MOLECULE
1s3w_TQT_A_1.pdb
 22 25 0 0 0
SMALL
GASTEIGER

@<TRIPOS>ATOM
      1  C2'       27.4700   12.9100   -4.6640 C.1   188  TQT188      0.2418
      2  C4'       27.0740   13.0260   -2.4920 C.2   188  TQT188      0.2160
      3  C4B       28.3280   13.4840   -2.2690 C.3   188  TQT188      0.1200
      4  C6'       29.9520   14.8490   -0.9050 C.3   188  TQT188      0.0239
      5  C7'       31.0890   14.3530   -1.8280 C.3   188  TQT188      0.0091
      6  C8B       29.1320   13.6440   -3.3210 C.2   188  TQT188      0.1081
      7  C9'       30.4630   15.0310    0.5740 C.3   188  TQT188      0.1060
      8  C'0       32.6080   16.4340    0.0560 C.ar  188  TQT188      0.0759
      9  C'1       32.7610   14.3420    1.2130 C.ar  188  TQT188      0.0599
     10  C'2       32.5260   13.1730    1.8400 C.ar  188  TQT188      0.0172
     11  C'3       33.5830   12.4520    2.2910 C.ar  188  TQT188      0.0015
     12  C'4       34.8330   12.9290    2.1280 C.ar  188  TQT188      0.0001
     13  C'5       35.0550   14.0920    1.5220 C.ar  188  TQT188      0.0015
     14  C'6       34.0080   14.7760    1.0310 C.ar  188  TQT188      0.0173
     15  C'7       34.1100   16.1030    0.3410 C.ar  188  TQT188      0.0201
     16  N1'       28.6210   13.3670   -4.5130 N.2   188  TQT188     -0.3342
     17  N2'       26.9660   12.5880   -6.0070 N.pl3 188  TQT188     -0.0232
     18  N3'       26.7760   12.5860   -3.6300 N.2   188  TQT188     -0.3115
     19  N4'       26.1720   12.8860   -1.3880 N.pl3 188  TQT188     -0.0965
     20  C5'       28.7650   13.8790   -0.8880 C.3   188  TQT188      0.0173
     21  C8'       30.5340   14.1830   -3.2990 C.3   188  TQT188      0.0560
     22  N'0       31.8750   15.3210    0.6140 N.ar  188  TQT188     -0.3261
@<TRIPOS>BOND
     1    17     1    1
     2     1    16    2
     3     1    18    2
     4    16     6    2
     5    18     2    2
     6     6    21    1
     7     6     3    1
     8    21     5    1
     9     2     3    1
    10     2    19    1
    11     3    20    1
    12     5     4    1
    13     4    20    1
    14     4     7    1
    15     8    15   ar
    16     8    22   ar
    17    15    14   ar
    18     7    22    1
    19    22     9   ar
    20    14     9   ar
    21    14    13   ar
    22     9    10   ar
    23    13    12   ar
    24    10    11   ar
    25    12    11   ar
