@<TRIPOS>MOLECULE
1s3w_NAP_A_1.pdb
 48 52 0 0 0
SMALL
GASTEIGER

@<TRIPOS>ATOM
      1  PA        26.5830    8.5750    8.6460 P.3   187  NAP187      0.2189
      2  O1A       27.0020    9.8690    8.1340 O.2   187  NAP187     -0.5170
      3  O2A       25.3650    7.9000    8.3460 O.3   187  NAP187     -0.4371
      4  O5B       26.8440    8.7280   10.2990 O.3   187  NAP187     -0.3112
      5  C5B       26.1790    7.6500   11.0690 C.3   187  NAP187      0.1813
      6  C4B       25.9590    8.4280   12.4460 C.3   187  NAP187      0.1820
      7  O4B       25.0450    9.2370   12.1320 O.3   187  NAP187     -0.3136
      8  C3B       25.3320    7.3400   13.4490 C.3   187  NAP187      0.2157
      9  O3B       26.4960    6.9340   14.3310 O.3   187  NAP187     -0.2175
     10  C2B       24.3810    8.3370   14.1640 C.3   187  NAP187      0.2314
     11  O2B       24.9930    9.2740   14.9880 O.3   187  NAP187     -0.2630
     12  C1B       23.9040    9.2740   13.0100 C.3   187  NAP187      0.3158
     13  N9A       22.7280    8.8240   12.3380 N.pl3 187  NAP187     -0.1439
     14  C8A       22.7450    8.2400   11.1390 C.3   187  NAP187      0.3377
     15  N7A       21.5660    7.8520   10.7400 N.2   187  NAP187     -0.2095
     16  C5A       20.7520    8.3360   11.7920 C.2   187  NAP187      0.2526
     17  C6A       19.2300    8.3340   12.0490 C.2   187  NAP187      0.4393
     18  N6A       18.4070    7.7970   11.1460 N.pl3 187  NAP187      0.2180
     19  N1A       18.8110    8.8950   13.1980 N.2   187  NAP187      0.0021
     20  C2A       19.7430    9.3800   14.0120 C.3   187  NAP187      0.5254
     21  N3A       21.0590    9.4210   13.9120 N.2   187  NAP187     -0.0055
     22  C4A       21.4920    8.8610   12.7410 C.2   187  NAP187      0.3518
     23  O3        27.8300    7.6460    8.4130 O.3   187  NAP187     -0.2703
     24  PN        28.2910    6.3680    7.4970 P.3   187  NAP187      0.2189
     25  O1N       27.2380    5.5550    7.0400 O.2   187  NAP187     -0.5170
     26  O2N       29.2270    5.7550    8.3900 O.3   187  NAP187     -0.4371
     27  O5D       29.0770    7.0600    6.3390 O.3   187  NAP187     -0.3112
     28  C5D       29.9840    8.1410    6.2740 C.3   187  NAP187      0.1813
     29  C4D       30.8560    7.5520    5.1550 C.3   187  NAP187      0.1799
     30  O4D       30.4420    7.6010    3.7260 O.3   187  NAP187     -0.3327
     31  C3D       32.1370    8.4030    5.2220 C.3   187  NAP187      0.2158
     32  O3D       33.1780    7.6260    4.6390 O.3   187  NAP187     -0.2175
     33  C2D       31.8780    9.5180    4.1710 C.3   187  NAP187      0.2309
     34  O2D       33.1520    9.8090    3.7410 O.3   187  NAP187     -0.2158
     35  C1D       31.2470    8.6770    3.0550 C.3   187  NAP187      0.2263
     36  N1N       30.1730    9.3630    2.2330 N.pl3 187  NAP187     -0.2787
     37  C2N       30.2250    9.1180    0.8000 C.3   187  NAP187      0.1244
     38  C3N       29.2600    9.6550    0.0700 C.2   187  NAP187      0.0544
     39  C7N       29.3000    9.3750   -1.4300 C.2   187  NAP187      0.2818
     40  O7N       28.3650    9.8540   -1.9650 O.2   187  NAP187     -0.2670
     41  N7N       30.2990    8.6520   -1.9400 N.am  187  NAP187     -0.0839
     42  C4N       28.0240   10.4000    0.6290 C.2   187  NAP187      0.0033
     43  C5N       28.1200   10.5290    2.1460 C.2   187  NAP187      0.0157
     44  C6N       29.0990    9.9980    2.8780 C.2   187  NAP187      0.0633
     45  P2B       25.0620    9.0150   16.7300 P.3   187  NAP187      0.5328
     46  O1X       23.7120    8.7640   17.1890 O.3   187  NAP187     -0.1145
     47  O2X       25.8300   10.2540   17.0830 O.3   187  NAP187     -0.1145
     48  O3X       25.9060    7.8190   16.7470 O.2   187  NAP187     -0.2224
@<TRIPOS>BOND
     1    40    39    2
     2    41    39   am
     3    39    38    1
     4    38    42    2
     5    38    37    1
     6    42    43    1
     7    37    36    1
     8    43    44    2
     9    36    44    1
    10    36    35    1
    11    35    30    1
    12    35    33    1
    13    30    29    1
    14    34    33    1
    15    33    31    1
    16    32    31    1
    17    29    31    1
    18    29    28    1
    19    28    27    1
    20    27    24    1
    21    25    24    2
    22    24    26    1
    23    24    23    1
    24     2     1    2
    25     3     1    1
    26    23     1    1
    27     1     4    1
    28     4     5    1
    29    15    14    1
    30    15    16    2
    31     5     6    1
    32    14    13    1
    33    18    17    1
    34    16    17    1
    35    16    22    1
    36    17    19    2
    37     7     6    1
    38     7    12    1
    39    13    22    1
    40    13    12    1
    41     6     8    1
    42    22    21    2
    43    12    10    1
    44    19    20    1
    45     8    10    1
    46     8     9    1
    47    21    20    1
    48    10    11    1
    49    11    45    1
    50    45    48    2
    51    45    47    1
    52    45    46    1
