@<TRIPOS>MOLECULE
1s3x_ADP_A_1.pdb
 27 29 0 0 0
SMALL
GASTEIGER

@<TRIPOS>ATOM
      1  PB        18.1170   28.1430   15.2280 P.3   383  ADP383      0.5373
      2  O1B       18.6670   27.0170   14.4650 O.2   383  ADP383     -0.2221
      3  O2B       16.6660   28.1200   15.4990 O.3   383  ADP383     -0.1143
      4  O3B       18.8330   28.2270   16.6110 O.3   383  ADP383     -0.1143
      5  PA        19.7800   30.3070   14.1220 P.3   383  ADP383      0.2231
      6  O1A       20.9230   29.3950   14.2130 O.3   383  ADP383     -0.4370
      7  O2A       19.5320   31.0830   12.9170 O.2   383  ADP383     -0.5169
      8  O3A       18.4270   29.4730   14.4210 O.3   383  ADP383     -0.2261
      9  O5'       19.8940   31.2780   15.3500 O.3   383  ADP383     -0.3111
     10  C5'       18.8930   32.2220   15.7130 C.3   383  ADP383      0.1813
     11  C4'       19.4910   33.2170   16.6800 C.3   383  ADP383      0.1821
     12  O4'       20.6300   33.8780   16.1090 O.3   383  ADP383     -0.3135
     13  C3'       18.4610   34.2760   17.0320 C.3   383  ADP383      0.2184
     14  O3'       18.5340   34.3890   18.4520 O.3   383  ADP383     -0.2174
     15  C2'       19.0380   35.4600   16.2580 C.3   383  ADP383      0.2570
     16  O2'       18.6390   36.7020   16.8330 O.3   383  ADP383     -0.2130
     17  C1'       20.5200   35.2520   16.4030 C.3   383  ADP383      0.3186
     18  N9        21.3070   36.0400   15.4310 N.pl3 383  ADP383     -0.1439
     19  C8        21.2370   36.1110   14.0580 C.3   383  ADP383      0.3377
     20  N7        22.0970   36.9590   13.5410 N.2   383  ADP383     -0.2095
     21  C5        22.7730   37.4740   14.6280 C.2   383  ADP383      0.2526
     22  C6        23.8030   38.4100   14.7410 C.2   383  ADP383      0.4393
     23  N6        24.3270   39.0460   13.6880 N.pl3 383  ADP383      0.2180
     24  N1        24.2590   38.6840   15.9700 N.2   383  ADP383      0.0021
     25  C2        23.7380   38.0830   17.0290 C.3   383  ADP383      0.5254
     26  N3        22.7550   37.1810   17.0490 N.2   383  ADP383     -0.0055
     27  C4        22.3120   36.9240   15.7860 C.2   383  ADP383      0.3518
@<TRIPOS>BOND
     1     7     5    2
     2    20    19    1
     3    20    21    2
     4    23    22    1
     5    19    18    1
     6     5     6    1
     7     5     8    1
     8     5     9    1
     9     8     1    1
    10     2     1    2
    11    21    22    1
    12    21    27    1
    13    22    24    2
    14     1     3    1
    15     1     4    1
    16     9    10    1
    17    18    27    1
    18    18    17    1
    19    10    11    1
    20    27    26    2
    21    24    25    1
    22    12    17    1
    23    12    11    1
    24    15    17    1
    25    15    16    1
    26    15    13    1
    27    11    13    1
    28    25    26    1
    29    13    14    1
