@<TRIPOS>MOLECULE
1s3y_NAP_A_1.pdb
 48 52 0 0 0
SMALL
GASTEIGER

@<TRIPOS>ATOM
      1  PA        15.8850   10.4220   22.8540 P.3   207  NAP207      0.2189
      2  O1A       15.7620   10.6930   21.4600 O.2   207  NAP207     -0.5170
      3  O2A       14.7680   10.1250   23.7180 O.3   207  NAP207     -0.4371
      4  O5B       16.8140   11.6740   23.4650 O.3   207  NAP207     -0.3112
      5  C5B       17.0940   11.6060   24.9430 C.3   207  NAP207      0.1813
      6  C4B       16.9450   13.1650   25.2340 C.3   207  NAP207      0.1820
      7  O4B       15.7140   13.4240   25.0190 O.3   207  NAP207     -0.3136
      8  C3B       17.2150   13.4400   26.8410 C.3   207  NAP207      0.2157
      9  O3B       18.7160   13.6350   26.9510 O.3   207  NAP207     -0.2175
     10  C2B       16.2300   14.6180   26.8910 C.3   207  NAP207      0.2314
     11  O2B       16.7970   15.8290   26.4610 O.3   207  NAP207     -0.2630
     12  C1B       15.0570   14.3200   25.9450 C.3   207  NAP207      0.3158
     13  N9A       13.8670   13.7970   26.6190 N.pl3 207  NAP207     -0.1439
     14  C8A       13.3510   12.5530   26.4220 C.3   207  NAP207      0.3377
     15  N7A       12.3000   12.2790   27.1090 N.2   207  NAP207     -0.2095
     16  C5A       12.1260   13.4760   27.8080 C.2   207  NAP207      0.2526
     17  C6A       11.0800   13.9700   28.8610 C.2   207  NAP207      0.4393
     18  N6A       10.1080   13.1250   29.2030 N.pl3 207  NAP207      0.2180
     19  N1A       11.2110   15.2740   29.3820 N.2   207  NAP207      0.0021
     20  C2A       12.2630   16.0450   28.9450 C.3   207  NAP207      0.5254
     21  N3A       13.2230   15.7090   28.0380 N.2   207  NAP207     -0.0055
     22  C4A       13.0760   14.3720   27.5090 C.2   207  NAP207      0.3518
     23  O3        17.0620    9.3760   23.0420 O.3   207  NAP207     -0.2703
     24  PN        17.4800    8.0190   23.8850 P.3   207  NAP207      0.2189
     25  O1N       16.5320    7.5040   24.7770 O.3   207  NAP207     -0.4371
     26  O2N       18.6370    8.5330   24.5640 O.2   207  NAP207     -0.5170
     27  O5D       18.0660    7.0170   22.8480 O.3   207  NAP207     -0.3112
     28  C5D       19.0480    7.2710   21.8200 C.3   207  NAP207      0.1813
     29  C4D       19.5450    6.2350   20.9460 C.3   207  NAP207      0.1799
     30  O4D       18.5950    5.5110   20.0090 O.3   207  NAP207     -0.3327
     31  C3D       20.5980    6.9100   20.0700 C.3   207  NAP207      0.2158
     32  O3D       21.9050    6.3940   20.4160 O.3   207  NAP207     -0.2175
     33  C2D       20.3310    6.5830   18.5720 C.3   207  NAP207      0.2309
     34  O2D       21.3550    5.9070   17.9300 O.3   207  NAP207     -0.2158
     35  C1D       19.0700    5.7010   18.5830 C.3   207  NAP207      0.2263
     36  N1N       17.8360    6.0000   17.7150 N.pl3 207  NAP207     -0.2787
     37  C2N       17.5070    4.8800   16.7490 C.3   207  NAP207      0.1244
     38  C3N       16.4380    5.0290   15.9280 C.2   207  NAP207      0.0544
     39  C7N       16.1460    3.8230   14.9350 C.2   207  NAP207      0.2818
     40  O7N       15.2190    4.0040   14.2520 O.2   207  NAP207     -0.2670
     41  N7N       16.9210    2.7440   14.9320 N.am  207  NAP207     -0.0839
     42  C4N       15.5180    6.3390   15.9480 C.2   207  NAP207      0.0033
     43  C5N       15.9870    7.4170   17.0050 C.2   207  NAP207      0.0157
     44  C6N       17.1240    7.1620   17.8140 C.2   207  NAP207      0.0633
     45  P2B       17.5770   16.9340   27.6160 P.3   207  NAP207      0.5328
     46  O1X       16.6130   17.1750   28.6510 O.3   207  NAP207     -0.1145
     47  O2X       17.9360   17.9480   26.5810 O.2   207  NAP207     -0.2224
     48  O3X       18.7300   16.1290   28.0300 O.3   207  NAP207     -0.1145
@<TRIPOS>BOND
     1    40    39    2
     2    41    39   am
     3    39    38    1
     4    38    42    2
     5    38    37    1
     6    42    43    1
     7    37    36    1
     8    43    44    2
     9    36    44    1
    10    36    35    1
    11    34    33    1
    12    33    35    1
    13    33    31    1
    14    35    30    1
    15    30    29    1
    16    31    32    1
    17    31    29    1
    18    29    28    1
    19     2     1    2
    20    28    27    1
    21    27    24    1
    22     1    23    1
    23     1     4    1
    24     1     3    1
    25    23    24    1
    26     4     5    1
    27    24    26    2
    28    24    25    1
    29     5     6    1
    30     7     6    1
    31     7    12    1
    32     6     8    1
    33    12    13    1
    34    12    10    1
    35    14    13    1
    36    14    15    1
    37    11    10    1
    38    11    45    1
    39    47    45    2
    40    13    22    1
    41     8    10    1
    42     8     9    1
    43    15    16    2
    44    22    16    1
    45    22    21    2
    46    45    48    1
    47    45    46    1
    48    16    17    1
    49    21    20    1
    50    17    18    1
    51    17    19    2
    52    20    19    1
