@<TRIPOS>MOLECULE
1s3y_TQT_A_1.pdb
 22 25 0 0 0
SMALL
GASTEIGER

@<TRIPOS>ATOM
      1  C2'       10.2400    2.9830   12.4790 C.1   208  TQT208      0.2418
      2  C4'       10.6670    4.8620   13.8360 C.2   208  TQT208      0.2160
      3  C4B       11.9290    5.1570   12.9600 C.3   208  TQT208      0.1200
      4  C6'       13.5710    6.7630   11.8280 C.3   208  TQT208      0.0239
      5  C7'       14.3040    5.5110   11.1680 C.3   208  TQT208      0.0091
      6  C8B       12.1470    4.2350   11.9190 C.2   208  TQT208      0.1081
      7  C9'       14.5560    8.0040   12.0860 C.3   208  TQT208      0.1060
      8  C'0       14.7880    9.0110    9.6380 C.ar  208  TQT208      0.0759
      9  C'1       16.7620    8.2100   10.7920 C.ar  208  TQT208      0.0599
     10  C'2       17.7120    7.6900   11.6950 C.ar  208  TQT208      0.0172
     11  C'3       19.2100    7.6560   11.2230 C.ar  208  TQT208      0.0015
     12  C'4       19.5030    8.1540    9.9390 C.ar  208  TQT208      0.0001
     13  C'5       18.5000    8.6580    9.1050 C.ar  208  TQT208      0.0015
     14  C'6       17.1550    8.6900    9.5410 C.ar  208  TQT208      0.0173
     15  C'7       16.0290    9.2150    8.7020 C.ar  208  TQT208      0.0201
     16  N1'       11.2750    3.2140   11.7560 N.2   208  TQT208     -0.3342
     17  N2'        9.4120    1.8290   12.1440 N.pl3 208  TQT208     -0.0232
     18  N3'        9.9240    3.8130   13.5300 N.2   208  TQT208     -0.3115
     19  N4'       10.3610    5.7370   14.9270 N.pl3 208  TQT208     -0.0965
     20  C5'       12.8850    6.3380   13.1840 C.3   208  TQT208      0.0173
     21  C8'       13.2910    4.2790   10.9280 C.3   208  TQT208      0.0560
     22  N'0       15.3020    8.4110   10.8670 N.ar  208  TQT208     -0.3261
@<TRIPOS>BOND
     1    15    14   ar
     2    15     8   ar
     3    13    14   ar
     4    13    12   ar
     5    14     9   ar
     6     8    22   ar
     7    12    11   ar
     8     9    22   ar
     9     9    10   ar
    10    22     7    1
    11    21     5    1
    12    21     6    1
    13     5     4    1
    14    11    10   ar
    15    16     6    2
    16    16     1    2
    17     4     7    1
    18     4    20    1
    19     6     3    1
    20    17     1    1
    21     1    18    2
    22     3    20    1
    23     3     2    1
    24    18     2    2
    25     2    19    1
