@<TRIPOS>MOLECULE
1s3z_COA_A_1.pdb
 48 50 0 0 0
SMALL
GASTEIGER

@<TRIPOS>ATOM
      1  N1A        9.6510  -23.3860   19.2940 N.2   600  COA600      0.0021
      2  C2A       10.9880  -23.7870   19.3990 C.3   600  COA600      0.5254
      3  N3A       11.9420  -23.6320   18.4620 N.2   600  COA600     -0.0055
      4  C4A       11.5480  -23.0150   17.2850 C.2   600  COA600      0.3518
      5  C5A       10.2130  -22.5570   17.0800 C.2   600  COA600      0.2526
      6  C6A        9.2270  -22.7620   18.1530 C.2   600  COA600      0.4393
      7  N6A        7.9380  -22.3250   17.9650 N.pl3 600  COA600      0.2180
      8  N7A       10.0560  -21.9690   15.8500 N.2   600  COA600     -0.2095
      9  C8A       11.2230  -22.0490   15.2870 C.3   600  COA600      0.3377
     10  N9A       12.1230  -22.6640   16.1350 N.pl3 600  COA600     -0.1439
     11  C1B       13.5310  -22.8880   15.8720 C.3   600  COA600      0.3185
     12  C2B       13.9850  -24.2640   15.4990 C.3   600  COA600      0.2543
     13  O2B       14.9820  -24.6770   16.4730 O.3   600  COA600     -0.2131
     14  C3B       14.6860  -24.0910   14.1650 C.3   600  COA600      0.1928
     15  O3B       14.0600  -24.8240   13.1690 O.3   600  COA600     -0.2673
     16  P3B       13.8010  -26.5390   13.2670 P.3   600  COA600      0.5327
     17  O7A       14.1620  -26.9620   14.7020 O.3   600  COA600     -0.1145
     18  O8A       14.6380  -27.2750   12.2210 O.2   600  COA600     -0.2224
     19  O9A       12.2950  -26.6590   12.9650 O.3   600  COA600     -0.1145
     20  C4B       14.8070  -22.5290   14.0110 C.3   600  COA600      0.1795
     21  O4B       14.1670  -21.9380   15.0980 O.3   600  COA600     -0.3136
     22  C5B       14.4180  -21.7450   12.7360 C.3   600  COA600      0.1812
     23  O5B       12.9780  -21.8370   12.5170 O.3   600  COA600     -0.3112
     24  P1A       12.2730  -21.2490   11.1650 P.3   600  COA600      0.2189
     25  O1A       13.2820  -20.6990   10.1920 O.2   600  COA600     -0.5170
     26  O2A       11.3270  -22.2980   10.6120 O.3   600  COA600     -0.4371
     27  O3A       11.4700  -20.0450   11.8510 O.3   600  COA600     -0.2703
     28  P2A       10.0620  -19.4030   11.3660 P.3   600  COA600      0.2188
     29  O4A       10.0020  -19.3680    9.8940 O.2   600  COA600     -0.5170
     30  O5A        8.9570  -20.1950   12.0200 O.3   600  COA600     -0.4371
     31  O6A        9.9730  -17.9200   11.9930 O.3   600  COA600     -0.3138
     32  CBP        9.6650  -16.3210   13.7520 C.3   600  COA600      0.0645
     33  CCP       10.4000  -17.6070   13.3240 C.3   600  COA600      0.1519
     34  CDP       10.1890  -15.8220   15.1470 C.3   600  COA600      0.0056
     35  CEP       10.0050  -15.2000   12.6970 C.3   600  COA600      0.0056
     36  CAP        8.0970  -16.6080   13.8400 C.3   600  COA600      0.2312
     37  OAP        7.7710  -17.4270   15.0010 O.3   600  COA600     -0.2131
     38  C9P        7.2690  -15.3510   13.9070 C.2   600  COA600      0.2719
     39  O9P        6.9790  -14.7220   12.8910 O.2   600  COA600     -0.2706
     40  N8P        6.9400  -14.9850   15.1780 N.am  600  COA600     -0.2028
     41  C7P        6.2130  -13.7120   15.5000 C.3   600  COA600      0.1248
     42  C6P        7.0780  -12.4360   15.2600 C.3   600  COA600      0.1102
     43  C5P        8.2550  -12.4040   16.2050 C.2   600  COA600      0.2432
     44  O5P        8.1370  -12.7610   17.3520 O.2   600  COA600     -0.2733
     45  N4P        9.4570  -11.9630   15.6760 N.am  600  COA600     -0.2044
     46  C3P       10.7220  -12.0340   16.4640 C.3   600  COA600      0.1276
     47  C2P       11.5200  -10.7130   16.6480 C.3   600  COA600      0.0920
     48  S1P       10.9490   -9.3230   15.5740 S.3   600  COA600     -0.0802
@<TRIPOS>BOND
     1    29    28    2
     2    25    24    2
     3    26    24    1
     4    24    27    1
     5    24    23    1
     6    28    27    1
     7    28    31    1
     8    28    30    1
     9    31    33    1
    10    18    16    2
    11    23    22    1
    12    35    32    1
    13    22    20    1
    14    39    38    2
    15    19    16    1
    16    15    16    1
    17    15    14    1
    18    16    17    1
    19    33    32    1
    20    32    36    1
    21    32    34    1
    22    36    38    1
    23    36    37    1
    24    38    40   am
    25    20    14    1
    26    20    21    1
    27    14    12    1
    28    21    11    1
    29    40    41    1
    30    42    41    1
    31    42    43    1
    32     9     8    1
    33     9    10    1
    34    12    11    1
    35    12    13    1
    36    48    47    1
    37    45    43   am
    38    45    46    1
    39     8     5    2
    40    11    10    1
    41    10     4    1
    42    43    44    2
    43    46    47    1
    44     5     4    1
    45     5     6    1
    46     4     3    2
    47     7     6    1
    48     6     1    2
    49     3     2    1
    50     1     2    1
