@<TRIPOS>MOLECULE
1s3z_RIO_A_1.pdb
 31 33 0 0 0
SMALL
GASTEIGER

@<TRIPOS>ATOM
      1  O1         7.8670   -2.2320   20.1480 O.3   500  RIO500     -0.2176
      2  C1         7.1630   -2.3490   18.9000 C.3   500  RIO500      0.2142
      3  C2         7.1630   -1.0060   18.2150 C.3   500  RIO500      0.1836
      4  O2         8.5180   -0.5500   18.1150 O.3   500  RIO500     -0.3256
      5  C3         8.7580   -0.0400   16.8450 C.3   500  RIO500      0.2695
      6  O3         9.4880   -1.0230   16.1660 O.3   500  RIO500     -0.3258
      7  C4        10.7420   -0.6790   15.6740 C.3   500  RIO500      0.1779
      8  C5        10.6670   -0.2590   14.2120 C.3   500  RIO500      0.1989
      9  O4         9.7350    0.8200   14.0390 O.3   500  RIO500     -0.2189
     10  C6        12.0660    0.1620   13.6660 C.3   500  RIO500      0.1261
     11  N1        11.9360    0.4290   12.1990 N.3   500  RIO500     -0.1301
     12  C7        13.1030   -0.9970   13.8910 C.3   500  RIO500      0.0433
     13  C8        13.1500   -1.4450   15.3900 C.3   500  RIO500      0.1230
     14  N2        14.0710   -2.6020   15.5740 N.3   500  RIO500     -0.1302
     15  C9        11.7450   -1.8510   15.8940 C.3   500  RIO500      0.1649
     16  O5        11.9010   -2.2390   17.2610 O.3   500  RIO500     -0.3278
     17  C10       10.8890   -3.1010   17.8100 C.3   500  RIO500      0.2561
     18  O6        11.0460   -4.4580   17.3320 O.3   500  RIO500     -0.3276
     19  C11       12.1990   -5.1740   17.7860 C.3   500  RIO500      0.1696
     20  C12       12.0740   -6.5790   17.1930 C.3   500  RIO500      0.1415
     21  N3        13.2710   -7.3910   17.4080 N.3   500  RIO500     -0.1286
     22  C13       12.2720   -5.1680   19.3460 C.3   500  RIO500      0.2122
     23  O7        13.5200   -5.6930   19.8090 O.3   500  RIO500     -0.2177
     24  C14       12.2000   -3.7470   19.8880 C.3   500  RIO500      0.2070
     25  O8        12.2110   -3.8290   21.3300 O.3   500  RIO500     -0.2186
     26  C15       10.9140   -3.0370   19.3500 C.3   500  RIO500      0.1807
     27  N4        10.8700   -1.6100   19.7900 N.3   500  RIO500     -0.1248
     28  C16        7.4180    0.0650   16.1210 C.3   500  RIO500      0.2404
     29  O9         6.8180    1.3580   16.2010 O.3   500  RIO500     -0.2149
     30  C17        6.5970   -1.0270   16.7960 C.3   500  RIO500      0.2168
     31  O10        5.1990   -0.6790   16.8000 O.3   500  RIO500     -0.2175
@<TRIPOS>BOND
     1    11    10    1
     2    10    12    1
     3    10     8    1
     4    12    13    1
     5     9     8    1
     6     8     7    1
     7    13    14    1
     8    13    15    1
     9     7    15    1
    10     7     6    1
    11    15    16    1
    12    28    29    1
    13    28    30    1
    14    28     5    1
    15     6     5    1
    16    30    31    1
    17    30     3    1
    18     5     4    1
    19    20    21    1
    20    20    19    1
    21    16    17    1
    22    18    19    1
    23    18    17    1
    24    19    22    1
    25    17    26    1
    26     4     3    1
    27     3     2    1
    28     2     1    1
    29    22    23    1
    30    22    24    1
    31    26    27    1
    32    26    24    1
    33    24    25    1
