@<TRIPOS>MOLECULE
1s46_BGC_A_1.pdb
 11 11 0 0 0
SMALL
GASTEIGER

@<TRIPOS>ATOM
      1  C2        68.3460   25.0600   17.8320 C.3   700  BGC700      0.2141
      2  C3        66.8660   24.9190   18.0360 C.3   700  BGC700      0.2173
      3  C4        66.2540   26.3090   17.9960 C.3   700  BGC700      0.2142
      4  C5        66.5050   26.9240   16.6040 C.3   700  BGC700      0.1810
      5  C6        65.9410   28.3180   16.4670 C.3   700  BGC700      0.2141
      6  C1        68.6800   25.7100   16.5120 C.3   700  BGC700      0.1777
      7  O2        69.0100   23.7870   17.8600 O.3   700  BGC700     -0.2176
      8  O3        66.6730   24.3150   19.3260 O.3   700  BGC700     -0.2175
      9  O4        64.8310   26.2090   18.1830 O.3   700  BGC700     -0.2176
     10  O5        67.9690   26.9810   16.4350 O.3   700  BGC700     -0.3481
     11  O6        66.7390   29.2340   17.2260 O.3   700  BGC700     -0.2176
@<TRIPOS>BOND
     1    10     6    1
     2    10     4    1
     3     5     4    1
     4     5    11    1
     5     6     1    1
     6     4     3    1
     7     1     7    1
     8     1     2    1
     9     3     2    1
    10     3     9    1
    11     2     8    1
