@<TRIPOS>MOLECULE
1s49_GTP_A_1.pdb
 32 34 0 0 0
SMALL
GASTEIGER

@<TRIPOS>ATOM
      1  PG         1.2560  158.6290   23.6980 P.3   2030  GTP2030     0.5373
      2  O1G        2.7190  158.3170   23.5260 O.3   2030  GTP2030    -0.1143
      3  O2G        0.7930  159.8040   22.8790 O.2   2030  GTP2030    -0.2221
      4  O3G        0.9570  158.8820   25.1750 O.3   2030  GTP2030    -0.1143
      5  O3B        0.4420  157.3540   23.1950 O.3   2030  GTP2030    -0.2258
      6  PB        -0.4010  156.3200   24.0920 P.3   2030  GTP2030     0.2277
      7  O1B       -1.7410  156.1400   23.4910 O.2   2030  GTP2030    -0.5168
      8  O2B       -0.4170  156.7080   25.5080 O.3   2030  GTP2030    -0.4368
      9  O3A        0.3890  154.9510   23.9160 O.3   2030  GTP2030    -0.2700
     10  PA         0.8510  154.0190   22.6720 P.3   2030  GTP2030     0.2189
     11  O1A        1.6790  152.9120   23.2380 O.3   2030  GTP2030    -0.4371
     12  O2A        1.4670  154.8570   21.6150 O.2   2030  GTP2030    -0.5170
     13  O5'       -0.5520  153.4620   22.1880 O.3   2030  GTP2030    -0.3112
     14  C5'       -0.7490  152.8780   20.8990 C.3   2030  GTP2030     0.1813
     15  C4'       -2.1130  152.2310   20.8480 C.3   2030  GTP2030     0.1799
     16  O4'       -2.1450  151.0570   21.6890 O.3   2030  GTP2030    -0.3326
     17  C3'       -3.2500  153.1120   21.3510 C.3   2030  GTP2030     0.2158
     18  O3'       -3.7620  153.9240   20.2970 O.3   2030  GTP2030    -0.2175
     19  C2'       -4.2610  152.1220   21.8750 C.3   2030  GTP2030     0.2310
     20  O2'       -5.1300  151.7530   20.8020 O.3   2030  GTP2030    -0.2158
     21  C1'       -3.4610  150.8840   22.2250 C.3   2030  GTP2030     0.2293
     22  N9        -3.2820  150.3420   23.5760 N.pl3 2030  GTP2030    -0.2354
     23  C8        -2.9560  151.0730   24.6940 C.3   2030  GTP2030     0.2246
     24  N7        -2.8480  150.3510   25.7730 N.2   2030  GTP2030    -0.2322
     25  C5        -3.1150  149.0570   25.3480 C.2   2030  GTP2030     0.2182
     26  C6        -3.1360  147.8440   26.0760 C.1   2030  GTP2030     0.2372
     27  O6        -2.9330  147.6440   27.2790 O.2   2030  GTP2030    -0.2069
     28  N1        -3.4500  146.7600   25.2590 N.2   2030  GTP2030    -0.2485
     29  C2        -3.6980  146.8520   23.9090 C.1   2030  GTP2030     0.2531
     30  N2        -3.9770  145.6900   23.3030 N.pl3 2030  GTP2030    -0.0226
     31  N3        -3.6730  147.9750   23.2160 N.2   2030  GTP2030    -0.3074
     32  C4        -3.3810  149.0420   23.9960 C.2   2030  GTP2030     0.2300
@<TRIPOS>BOND
     1    18    17    1
     2    20    19    1
     3    15    14    1
     4    15    17    1
     5    15    16    1
     6    14    13    1
     7    17    19    1
     8    12    10    2
     9    16    21    1
    10    19    21    1
    11    13    10    1
    12    21    22    1
    13    10    11    1
    14    10     9    1
    15     3     1    2
    16     5     1    1
    17     5     6    1
    18    31    29    2
    19    31    32    2
    20    30    29    1
    21     7     6    2
    22     2     1    1
    23    22    32    1
    24    22    23    1
    25     1     4    1
    26    29    28    2
    27     9     6    1
    28    32    25    1
    29     6     8    1
    30    23    24    1
    31    28    26    2
    32    25    24    2
    33    25    26    1
    34    26    27    2
