@<TRIPOS>MOLECULE
1s4d_SAH_A_1.pdb
 26 28 0 0 0
SMALL
GASTEIGER

@<TRIPOS>ATOM
      1  N         81.6350   90.0850    9.8730 N.3   1501  SAH1501    -0.1159
      2  CA        82.2770   91.3110    9.4220 C.3   1501  SAH1501     0.2168
      3  CB        83.7900   91.2960    9.6630 C.2   1501  SAH1501     0.0105
      4  CG        84.2470   91.4610   11.1180 C.2   1501  SAH1501     0.0284
      5  SD        86.0440   91.5690   11.3810 S.3   1501  SAH1501    -0.1108
      6  C         81.9460   91.5410    7.9550 C.2   1501  SAH1501     0.3860
      7  O         81.4580   90.6390    7.2710 O.co2 1501  SAH1501    -0.2437
      8  OXT       82.1400   92.6350    7.4300 O.co2 1501  SAH1501    -0.2437
      9  C5'       86.0730   93.3900   11.3730 C.3   1501  SAH1501     0.0945
     10  C4'       86.8000   93.9460   10.1500 C.3   1501  SAH1501     0.1634
     11  O4'       85.8770   94.0850    9.0920 O.3   1501  SAH1501    -0.3152
     12  C3'       87.4220   95.3240   10.2980 C.3   1501  SAH1501     0.2168
     13  O3'       88.7430   95.3200   10.7710 O.3   1501  SAH1501    -0.2175
     14  C2'       87.3690   95.8810    8.8950 C.3   1501  SAH1501     0.2569
     15  O2'       88.4520   95.4500    8.1080 O.3   1501  SAH1501    -0.2130
     16  C1'       86.1270   95.2390    8.3310 C.3   1501  SAH1501     0.3185
     17  N9        84.9670   96.1560    8.3730 N.pl3 1501  SAH1501    -0.1439
     18  C8        83.8230   96.0020    9.0910 C.3   1501  SAH1501     0.3377
     19  N7        83.0230   97.0430    8.8460 N.2   1501  SAH1501    -0.2095
     20  C5        83.6210   97.8630    7.9700 C.2   1501  SAH1501     0.2526
     21  C6        83.2430   99.0680    7.3770 C.2   1501  SAH1501     0.4393
     22  N6        82.0750   99.6380    7.6210 N.pl3 1501  SAH1501     0.2180
     23  N1        84.1190   99.6820    6.5170 N.2   1501  SAH1501     0.0021
     24  C2        85.3390   99.1140    6.2230 C.3   1501  SAH1501     0.5254
     25  N3        85.7140   97.9320    6.8070 N.2   1501  SAH1501    -0.0055
     26  C4        84.8610   97.3190    7.6680 C.2   1501  SAH1501     0.3518
@<TRIPOS>BOND
     1    24    23    1
     2    24    25    1
     3    23    21    2
     4    25    26    2
     5     7     6   ar
     6    21    22    1
     7    21    20    1
     8     8     6   ar
     9    26    20    1
    10    26    17    1
    11     6     2    1
    12    20    19    2
    13    15    14    1
    14    16    17    1
    15    16    14    1
    16    16    11    1
    17    17    18    1
    18    19    18    1
    19    14    12    1
    20    11    10    1
    21     2     3    1
    22     2     1    1
    23     3     4    2
    24    10    12    1
    25    10     9    1
    26    12    13    1
    27     4     5    1
    28     9     5    1
