@<TRIPOS>MOLECULE
1s4e_ADP_A_1.pdb
 27 29 0 0 0
SMALL
GASTEIGER

@<TRIPOS>ATOM
      1  PB        73.8820   59.6870   54.6930 P.3   400  ADP400      0.5373
      2  O1B       74.5240   59.4420   56.0070 O.3   400  ADP400     -0.1143
      3  O2B       73.9510   61.1430   54.1550 O.2   400  ADP400     -0.2221
      4  O3B       72.3900   59.4070   54.9390 O.3   400  ADP400     -0.1143
      5  PA        73.5600   57.1630   53.5340 P.3   400  ADP400      0.2231
      6  O1A       74.3710   55.9900   53.1630 O.2   400  ADP400     -0.5169
      7  O2A       72.8020   56.8930   54.8320 O.3   400  ADP400     -0.4370
      8  O3A       74.4040   58.5390   53.6840 O.3   400  ADP400     -0.2261
      9  O5'       72.6600   57.4290   52.2350 O.3   400  ADP400     -0.3111
     10  C5'       71.5310   58.2440   52.0690 C.3   400  ADP400      0.1813
     11  C4'       70.7220   57.4480   51.0440 C.3   400  ADP400      0.1821
     12  O4'       69.3360   57.5110   51.3210 O.3   400  ADP400     -0.3135
     13  C3'       70.8980   57.9090   49.6000 C.3   400  ADP400      0.2184
     14  O3'       71.9000   57.1870   48.9350 O.3   400  ADP400     -0.2174
     15  C2'       69.5500   57.6260   48.9710 C.3   400  ADP400      0.2570
     16  O2'       69.5240   56.3000   48.4220 O.3   400  ADP400     -0.2130
     17  C1'       68.5950   57.7820   50.1480 C.3   400  ADP400      0.3186
     18  N9        68.0760   59.1440   50.2360 N.pl3 400  ADP400     -0.1439
     19  C8        68.3000   60.0810   51.2080 C.3   400  ADP400      0.3377
     20  N7        67.5930   61.2110   50.9090 N.2   400  ADP400     -0.2095
     21  C5        66.9200   60.9820   49.7570 C.2   400  ADP400      0.2526
     22  C6        66.0680   61.7660   48.9750 C.2   400  ADP400      0.4393
     23  N6        65.8010   63.0240   49.2810 N.pl3 400  ADP400      0.2180
     24  N1        65.5360   61.2390   47.8230 N.2   400  ADP400      0.0021
     25  C2        65.8370   59.9390   47.4230 C.3   400  ADP400      0.5254
     26  N3        66.6840   59.1540   48.1950 N.2   400  ADP400     -0.0055
     27  C4        67.2160   59.6790   49.3370 C.2   400  ADP400      0.3518
@<TRIPOS>BOND
     1    25    24    1
     2    25    26    1
     3    24    22    2
     4    26    27    2
     5    16    15    1
     6    14    13    1
     7    15    13    1
     8    15    17    1
     9    22    23    1
    10    22    21    1
    11    27    21    1
    12    27    18    1
    13    13    11    1
    14    21    20    2
    15    17    18    1
    16    17    12    1
    17    18    19    1
    18    20    19    1
    19    11    12    1
    20    11    10    1
    21    10     9    1
    22     9     5    1
    23     6     5    2
    24     5     8    1
    25     5     7    1
    26     8     1    1
    27     3     1    2
    28     1     4    1
    29     1     2    1
