@<TRIPOS>MOLECULE
1s4e_GLA_A_1.pdb
 12 12 0 0 0
SMALL
GASTEIGER

@<TRIPOS>ATOM
      1  C1        77.0580   56.4440   62.2700 C.3   500  GLA500      0.3024
      2  C2        75.9060   55.6770   62.8960 C.3   500  GLA500      0.2434
      3  C3        75.6590   56.1540   64.3430 C.3   500  GLA500      0.2199
      4  C4        76.9420   56.2750   65.1740 C.3   500  GLA500      0.2144
      5  C5        77.8580   57.1950   64.3780 C.3   500  GLA500      0.1836
      6  C6        79.1370   57.5450   65.1170 C.3   500  GLA500      0.2142
      7  O1        76.6010   57.7580   62.0530 O.3   500  GLA500     -0.1869
      8  O2        74.7250   55.8550   62.1030 O.3   500  GLA500     -0.2148
      9  O3        74.7050   55.3150   64.9760 O.3   500  GLA500     -0.2174
     10  O4        77.6070   55.0410   65.4340 O.3   500  GLA500     -0.2176
     11  O5        78.1690   56.5220   63.1490 O.3   500  GLA500     -0.3236
     12  O6        78.8670   57.8410   66.4820 O.3   500  GLA500     -0.2176
@<TRIPOS>BOND
     1     7     1    1
     2     8     2    1
     3     1     2    1
     4     1    11    1
     5     2     3    1
     6    11     5    1
     7     3     9    1
     8     3     4    1
     9     5     6    1
    10     5     4    1
    11     6    12    1
    12     4    10    1
