@<TRIPOS>MOLECULE
1s4m_LUM_A_1.pdb
 18 20 0 0 0
SMALL
GASTEIGER

@<TRIPOS>ATOM
      1  N1        36.1730   -4.6600   25.7560 N.2   294  LUM294     -0.2376
      2  C2        35.7040   -5.1510   26.9680 C.1   294  LUM294      0.3754
      3  C10       36.1220   -5.3730   24.5880 C.1   294  LUM294      0.1957
      4  O2        35.8100   -4.4260   27.9320 O.2   294  LUM294     -0.1738
      5  N3        35.1720   -6.4010   26.9320 N.2   294  LUM294     -0.2289
      6  C4        35.0330   -7.2690   25.8550 C.1   294  LUM294      0.2593
      7  O4        34.5280   -8.3770   25.9750 O.2   294  LUM294     -0.2051
      8  C4A       35.5670   -6.6890   24.5640 C.2   294  LUM294      0.3114
      9  N5        35.5020   -7.4140   23.4770 N.2   294  LUM294     -0.3754
     10  C5A       36.0030   -6.8660   22.2760 C.ar  294  LUM294      0.1633
     11  C6        35.9010   -7.7180   21.1070 C.ar  294  LUM294      0.0302
     12  C9A       36.5620   -5.5560   22.2270 C.ar  294  LUM294      0.1730
     13  C7        36.3920   -7.1660   19.9340 C.ar  294  LUM294     -0.0231
     14  C7M       36.3540   -7.9310   18.6100 C.3   294  LUM294      0.0308
     15  C8        36.9610   -5.8100   19.9260 C.ar  294  LUM294     -0.0231
     16  C8M       37.4910   -5.2400   18.5670 C.3   294  LUM294      0.0308
     17  C9        37.0760   -4.9660   21.0240 C.ar  294  LUM294      0.0311
     18  N10       36.6050   -4.8150   23.4610 N.2   294  LUM294     -0.3340
@<TRIPOS>BOND
     1    16    15    1
     2    14    13    1
     3    15    13   ar
     4    15    17   ar
     5    13    11   ar
     6    17    12   ar
     7    11    10   ar
     8    12    10   ar
     9    12    18    2
    10    10     9    2
    11    18     3    2
    12     9     8    2
    13     8     3    1
    14     8     6    1
    15     3     1    2
    16     1     2    2
    17     6     7    2
    18     6     5    2
    19     5     2    2
    20     2     4    2
