@<TRIPOS>MOLECULE
1s4o_GDP_A_1.pdb
 28 30 0 0 0
SMALL
GASTEIGER

@<TRIPOS>ATOM
      1  PB        23.9100   54.0730   42.4380 P.3   800  GDP800      0.5373
      2  O1B       23.8610   52.6750   41.9480 O.3   800  GDP800     -0.1143
      3  O2B       24.3870   55.0740   41.3850 O.2   800  GDP800     -0.2221
      4  O3B       24.6880   54.1970   43.7580 O.3   800  GDP800     -0.1143
      5  O3A       22.3440   54.4870   42.7750 O.3   800  GDP800     -0.2261
      6  PA        21.6950   55.8290   43.2720 P.3   800  GDP800      0.2231
      7  O1A       22.5180   57.0420   42.9890 O.2   800  GDP800     -0.5169
      8  O2A       21.2790   55.6510   44.7140 O.3   800  GDP800     -0.4370
      9  O5'       20.3500   55.8880   42.3910 O.3   800  GDP800     -0.3111
     10  C5'       20.3860   56.0850   40.9480 C.3   800  GDP800      0.1813
     11  C4'       19.5030   57.2760   40.6410 C.3   800  GDP800      0.1799
     12  O4'       18.1660   56.8340   40.9870 O.3   800  GDP800     -0.3326
     13  C3'       19.8040   58.5300   41.4920 C.3   800  GDP800      0.2158
     14  O3'       19.4320   59.6420   40.5970 O.3   800  GDP800     -0.2175
     15  C2'       18.8190   58.4320   42.6440 C.3   800  GDP800      0.2310
     16  O2'       18.5190   59.6810   43.1930 O.3   800  GDP800     -0.2158
     17  C1'       17.6500   57.6570   41.9970 C.3   800  GDP800      0.2293
     18  N9        16.9220   56.7140   43.0130 N.pl3 800  GDP800     -0.2354
     19  C8        17.4550   55.6140   43.6230 C.3   800  GDP800      0.2246
     20  N7        16.5470   55.0360   44.4090 N.2   800  GDP800     -0.2322
     21  C5        15.4030   55.8110   44.2760 C.2   800  GDP800      0.2182
     22  C6        14.1330   55.6630   44.8630 C.1   800  GDP800      0.2372
     23  O6        13.8010   54.7550   45.6440 O.2   800  GDP800     -0.2069
     24  N1        13.2210   56.6620   44.4820 N.2   800  GDP800     -0.2485
     25  C2        13.5440   57.6960   43.6100 C.1   800  GDP800      0.2531
     26  N2        12.5940   58.6150   43.3190 N.pl3 800  GDP800     -0.0226
     27  N3        14.7560   57.8230   43.0500 N.2   800  GDP800     -0.3074
     28  C4        15.6230   56.8510   43.4270 C.2   800  GDP800      0.2300
@<TRIPOS>BOND
     1    14    13    1
     2    11    10    1
     3    11    12    1
     4    11    13    1
     5    10     9    1
     6    12    17    1
     7     3     1    2
     8    13    15    1
     9     2     1    1
    10    17    15    1
    11    17    18    1
    12     9     6    1
    13     1     5    1
    14     1     4    1
    15    15    16    1
    16     5     6    1
    17     7     6    2
    18    18    28    1
    19    18    19    1
    20    27    28    2
    21    27    25    2
    22     6     8    1
    23    26    25    1
    24    28    21    1
    25    25    24    2
    26    19    20    1
    27    21    20    2
    28    21    22    1
    29    24    22    2
    30    22    23    2
