@<TRIPOS>MOLECULE
1s4p_GDP_A_1.pdb
 28 30 0 0 0
SMALL
GASTEIGER

@<TRIPOS>ATOM
      1  PB        24.2470   54.1170   42.7440 P.3   904  GDP904      0.5373
      2  O1B       24.2960   52.7140   42.2590 O.3   904  GDP904     -0.1143
      3  O2B       24.8040   55.1090   41.7300 O.2   904  GDP904     -0.2221
      4  O3B       24.8810   54.3000   44.1340 O.3   904  GDP904     -0.1143
      5  O3A       22.6380   54.4800   42.9050 O.3   904  GDP904     -0.2261
      6  PA        21.9540   55.7880   43.4480 P.3   904  GDP904      0.2231
      7  O1A       22.6930   57.0210   43.1380 O.2   904  GDP904     -0.5169
      8  O2A       21.6300   55.5730   44.8990 O.3   904  GDP904     -0.4370
      9  O5'       20.6150   55.7700   42.5820 O.3   904  GDP904     -0.3111
     10  C5'       20.6640   56.0070   41.1500 C.3   904  GDP904      0.1813
     11  C4'       19.7670   57.2040   40.8630 C.3   904  GDP904      0.1799
     12  O4'       18.4110   56.7730   41.1870 O.3   904  GDP904     -0.3326
     13  C3'       20.0640   58.4630   41.7200 C.3   904  GDP904      0.2158
     14  O3'       19.7600   59.5750   40.7980 O.3   904  GDP904     -0.2175
     15  C2'       19.0360   58.4000   42.8450 C.3   904  GDP904      0.2310
     16  O2'       18.7290   59.6730   43.3640 O.3   904  GDP904     -0.2158
     17  C1'       17.8760   57.6070   42.1950 C.3   904  GDP904      0.2293
     18  N9        17.1410   56.6390   43.2080 N.pl3 904  GDP904     -0.2354
     19  C8        17.6740   55.5130   43.7700 C.3   904  GDP904      0.2246
     20  N7        16.7760   54.9120   44.5570 N.2   904  GDP904     -0.2322
     21  C5        15.6320   55.6930   44.4820 C.2   904  GDP904      0.2182
     22  C6        14.3730   55.5250   45.0990 C.1   904  GDP904      0.2372
     23  O6        14.0530   54.5860   45.8630 O.2   904  GDP904     -0.2069
     24  N1        13.4490   56.5470   44.7710 N.2   904  GDP904     -0.2485
     25  C2        13.7640   57.6090   43.9270 C.1   904  GDP904      0.2531
     26  N2        12.8140   58.5350   43.6860 N.pl3 904  GDP904     -0.0226
     27  N3        14.9680   57.7540   43.3420 N.2   904  GDP904     -0.3074
     28  C4        15.8400   56.7700   43.6620 C.2   904  GDP904      0.2300
@<TRIPOS>BOND
     1    14    13    1
     2    11    10    1
     3    11    12    1
     4    11    13    1
     5    10     9    1
     6    12    17    1
     7    13    15    1
     8     3     1    2
     9    17    15    1
    10    17    18    1
    11     2     1    1
    12     9     6    1
    13     1     5    1
    14     1     4    1
    15    15    16    1
    16     5     6    1
    17     7     6    2
    18    18    28    1
    19    18    19    1
    20    27    28    2
    21    27    25    2
    22     6     8    1
    23    28    21    1
    24    26    25    1
    25    19    20    1
    26    25    24    2
    27    21    20    2
    28    21    22    1
    29    24    22    2
    30    22    23    2
