@<TRIPOS>MOLECULE
1s4p_MMA_A_1.pdb
 13 13 0 0 0
SMALL
GASTEIGER

@<TRIPOS>ATOM
      1  C1        28.4920   51.1830   41.2090 C.3   901  MMA901      0.2695
      2  C2        27.0680   50.8400   41.7320 C.3   901  MMA901      0.2406
      3  C3        26.8240   49.2900   41.5560 C.3   901  MMA901      0.2198
      4  C4        26.9940   48.8680   40.0660 C.3   901  MMA901      0.2144
      5  C5        28.4510   49.2080   39.5870 C.3   901  MMA901      0.1835
      6  C6        28.7230   48.8660   38.1010 C.3   901  MMA901      0.2142
      7  C7        30.8740   50.6650   41.8210 C.3   901  MMA901      0.1769
      8  O1        29.4420   50.5090   42.0700 O.3   901  MMA901     -0.3259
      9  O2        26.1350   51.5100   40.9370 O.3   901  MMA901     -0.2149
     10  O3        25.4660   48.9840   42.0290 O.3   901  MMA901     -0.2174
     11  O4        26.7640   47.4550   39.9040 O.3   901  MMA901     -0.2176
     12  O5        28.6810   50.6520   39.8110 O.3   901  MMA901     -0.3256
     13  O6        27.9410   49.6740   37.2150 O.3   901  MMA901     -0.2176
@<TRIPOS>BOND
     1    13     6    1
     2     6     5    1
     3     5    12    1
     4     5     4    1
     5    12     1    1
     6    11     4    1
     7     4     3    1
     8     9     2    1
     9     1     2    1
    10     1     8    1
    11     3     2    1
    12     3    10    1
    13     7     8    1
