@<TRIPOS>MOLECULE
1s4v_III_C_1.pdb
 25 24 0 0 0
SMALL
GASTEIGER

@<TRIPOS>ATOM
      1  N         -0.2390   17.2960   -3.6640 N.3   501  DVA501     -0.1231
      2  CA         0.6350   18.2100   -2.8760 C.3   501  DVA501      0.1692
      3  CB         1.6100   17.4360   -1.9530 C.3   501  DVA501      0.0266
      4  CG1        0.8530   16.7820   -0.8270 C.3   501  DVA501      0.0020
      5  CG2        2.3720   16.3820   -2.7600 C.3   501  DVA501      0.0020
      6  C         -0.2350   19.1470   -2.0410 C.2   501  DVA501      0.2592
      7  O         -1.4570   18.9630   -1.9460 O.2   501  DVA501     -0.2718
      8  N          0.3940   20.1600   -1.4600 N.am  502  LEU502     -0.1966
      9  CA        -0.3100   21.1280   -0.6400 C.3   502  LEU502      0.1728
     10  C         -0.8180   22.2510   -1.5230 C.2   502  LEU502      0.2616
     11  O         -0.0780   22.7870   -2.3490 O.2   502  LEU502     -0.2715
     12  CB         0.6290   21.7090    0.4150 C.3   502  LEU502      0.0311
     13  CG         1.3430   20.6710    1.2790 C.3   502  LEU502      0.0022
     14  CD1        2.4160   21.3560    2.1300 C.3   502  LEU502      0.0001
     15  CD2        0.3230   19.9600    2.1580 C.3   502  LEU502      0.0001
     16  N         -2.0840   22.6070   -1.3510 N.am  503  LYS503     -0.1982
     17  CA        -2.6660   23.6770   -2.1490 C.3   503  LYS503      0.1523
     18  C         -2.7040   24.9880   -1.3670 C.2   503  LYS503      0.1707
     19  O         -3.0420   26.0190   -1.9860 O.2   503  LYS503     -0.2943
     20  CB        -4.0660   23.2740   -2.6200 C.3   503  LYS503      0.0293
     21  CG        -4.0480   22.1230   -3.6170 C.3   503  LYS503      0.0037
     22  CD        -5.4580   21.7580   -4.0860 C.3   503  LYS503      0.0206
     23  CE        -5.4380   20.5890   -5.0580 C.3   503  LYS503      0.1093
     24  NZ        -6.8080   20.2200   -5.5090 N.3   503  LYS503     -0.1314
     25  C1        -2.3530   25.1810    0.0980 C.3   504  0QE504      0.0741
@<TRIPOS>BOND
     1    24    23    1
     2    23    22    1
     3    22    21    1
     4     1     2    1
     5    21    20    1
     6     2     6    1
     7     2     3    1
     8     5     3    1
     9    20    17    1
    10    11    10    2
    11    17    18    1
    12    17    16    1
    13     6     7    2
    14     6     8   am
    15    19    18    2
    16     3     4    1
    17    10    16   am
    18    10     9    1
    19     8     9    1
    20    18    25    1
    21     9    12    1
    22    12    13    1
    23    13    14    1
    24    13    15    1
