@<TRIPOS>MOLECULE
1s50_GLU_A_1.pdb
 10 9 0 0 0
SMALL
GASTEIGER

@<TRIPOS>ATOM
      1  N         11.2350    2.0370   -1.4510 N.3   999  GLU999     -0.1208
      2  CA        11.2960    3.4810   -1.8360 C.3   999  GLU999      0.1949
      3  C         12.6620    3.8100   -2.4330 C.2   999  GLU999      0.3819
      4  O         13.3860    2.8550   -2.8120 O.co2 999  GLU999     -0.2441
      5  CB        11.0320    4.3670   -0.6100 C.3   999  GLU999      0.0424
      6  CG         9.5570    4.5100   -0.2210 C.3   999  GLU999      0.1161
      7  CD         8.7420    5.2660   -1.2640 C.2   999  GLU999      0.3649
      8  OE1        9.3340    6.0960   -1.9860 O.co2 999  GLU999     -0.2457
      9  OE2        7.5140    5.0450   -1.3470 O.co2 999  GLU999     -0.2457
     10  OXT       12.9950    5.0120   -2.5170 O.co2 999  GLU999     -0.2441
@<TRIPOS>BOND
     1     4     3   ar
     2    10     3   ar
     3     3     2    1
     4     8     7   ar
     5     2     1    1
     6     2     5    1
     7     9     7   ar
     8     7     6    1
     9     5     6    1
