@<TRIPOS>MOLECULE
1s51_RET_A_1.pdb
 20 20 0 0 0
SMALL
GASTEIGER

@<TRIPOS>ATOM
      1  C1        40.4720   54.8340    2.2050 C.3   5301  RET5301     0.0183
      2  C2        41.2490   56.0810    1.7490 C.3   5301  RET5301     0.0044
      3  C3        41.7990   56.0950    0.3800 C.3   5301  RET5301     0.0047
      4  C4        42.4110   54.7610   -0.1080 C.3   5301  RET5301     0.0217
      5  C5        41.6440   53.4640    0.2960 C.2   5301  RET5301    -0.0479
      6  C6        40.7460   53.5100    1.3700 C.2   5301  RET5301    -0.0307
      7  C7        40.0770   52.2340    1.6480 C.2   5301  RET5301    -0.0052
      8  C8        39.1550   51.9100    2.5940 C.2   5301  RET5301    -0.0049
      9  C9        38.5040   50.6410    2.7840 C.2   5301  RET5301    -0.0258
     10  C10       37.6430   50.6850    3.8200 C.2   5301  RET5301    -0.0257
     11  C11       36.8860   49.4960    4.1400 C.3   5301  RET5301     0.0510
     12  C12       36.1040   49.6980    5.1930 C.2   5301  RET5301    -0.0299
     13  C13       35.2590   48.7010    5.7700 C.2   5301  RET5301    -0.0478
     14  C14       34.6330   49.2740    6.8460 C.3   5301  RET5301     0.0217
     15  C15       33.7150   48.6450    7.7290 C.3   5301  RET5301     0.0047
     16  C16       40.8800   54.6370    3.7060 C.3   5301  RET5301     0.0043
     17  C17       38.9890   55.3160    2.0940 C.3   5301  RET5301     0.0043
     18  C18       42.0530   52.3260   -0.6220 C.3   5301  RET5301     0.0260
     19  C19       38.7670   49.4420    1.9040 C.3   5301  RET5301     0.0307
     20  C20       35.1420   47.2960    5.2510 C.3   5301  RET5301     0.0260
@<TRIPOS>BOND
     1    18     5    1
     2     4     5    1
     3     4     3    1
     4     5     6    2
     5     3     2    1
     6     6     7    1
     7     6     1    1
     8     7     8    2
     9     2     1    1
    10    19     9    1
    11    17     1    1
    12     1    16    1
    13     8     9    1
    14     9    10    2
    15    10    11    1
    16    11    12    1
    17    12    13    2
    18    20    13    1
    19    13    14    1
    20    14    15    1
