@<TRIPOS>MOLECULE
1s52_RET_A_1.pdb
 20 20 0 0 0
SMALL
GASTEIGER

@<TRIPOS>ATOM
      1  C1        40.2540   54.9810    2.3030 C.3   5301  RET5301     0.0183
      2  C2        41.0400   56.2480    1.8440 C.3   5301  RET5301     0.0044
      3  C3        41.6320   56.2750    0.5020 C.3   5301  RET5301     0.0047
      4  C4        42.2700   54.9690    0.0450 C.3   5301  RET5301     0.0217
      5  C5        41.5500   53.6340    0.4490 C.2   5301  RET5301    -0.0479
      6  C6        40.6060   53.6370    1.5010 C.2   5301  RET5301    -0.0307
      7  C7        39.9760   52.3140    1.7780 C.2   5301  RET5301    -0.0052
      8  C8        39.0270   51.9490    2.7060 C.2   5301  RET5301    -0.0049
      9  C9        38.4170   50.6560    2.9420 C.2   5301  RET5301    -0.0258
     10  C10       37.5180   50.7120    3.9760 C.2   5301  RET5301    -0.0257
     11  C11       36.7900   49.5240    4.4080 C.3   5301  RET5301     0.0510
     12  C12       35.9550   49.8360    5.4560 C.2   5301  RET5301    -0.0299
     13  C13       35.1010   48.8730    6.1530 C.2   5301  RET5301    -0.0478
     14  C14       34.3880   49.5100    7.1460 C.3   5301  RET5301     0.0217
     15  C15       33.4620   48.8600    8.0180 C.3   5301  RET5301     0.0047
     16  C16       40.5470   54.8170    3.8470 C.3   5301  RET5301     0.0043
     17  C17       38.7460   55.4550    2.0750 C.3   5301  RET5301     0.0043
     18  C18       42.0520   52.5280   -0.4620 C.3   5301  RET5301     0.0260
     19  C19       38.7750   49.4230    2.1220 C.3   5301  RET5301     0.0307
     20  C20       35.0470   47.3960    5.7940 C.3   5301  RET5301     0.0260
@<TRIPOS>BOND
     1    18     5    1
     2     4     5    1
     3     4     3    1
     4     5     6    2
     5     3     2    1
     6     6     7    1
     7     6     1    1
     8     7     8    2
     9     2     1    1
    10    17     1    1
    11    19     9    1
    12     1    16    1
    13     8     9    1
    14     9    10    2
    15    10    11    1
    16    11    12    1
    17    12    13    2
    18    20    13    1
    19    13    14    1
    20    14    15    1
