@<TRIPOS>MOLECULE
1s53_RET_A_1.pdb
 20 20 0 0 0
SMALL
GASTEIGER

@<TRIPOS>ATOM
      1  C1        40.7740   54.8790    2.1570 C.3   5301  RET5301     0.0183
      2  C2        41.5830   56.1150    1.6820 C.3   5301  RET5301     0.0044
      3  C3        42.1450   56.1060    0.3090 C.3   5301  RET5301     0.0047
      4  C4        42.7060   54.7600   -0.1870 C.3   5301  RET5301     0.0217
      5  C5        41.9210   53.4830    0.2340 C.2   5301  RET5301    -0.0479
      6  C6        41.0190   53.5340    1.3200 C.2   5301  RET5301    -0.0307
      7  C7        40.3270   52.2380    1.6040 C.2   5301  RET5301    -0.0052
      8  C8        39.4000   51.8950    2.5520 C.2   5301  RET5301    -0.0049
      9  C9        38.7440   50.6150    2.7560 C.2   5301  RET5301    -0.0258
     10  C10       37.8720   50.6570    3.8110 C.2   5301  RET5301    -0.0257
     11  C11       37.0860   49.4770    4.1830 C.3   5301  RET5301     0.0510
     12  C12       36.2990   49.7070    5.2660 C.2   5301  RET5301    -0.0299
     13  C13       35.4150   48.7130    5.8660 C.2   5301  RET5301    -0.0478
     14  C14       34.7830   49.2630    6.9560 C.3   5301  RET5301     0.0217
     15  C15       33.8510   48.5700    7.7950 C.3   5301  RET5301     0.0047
     16  C16       41.1860   54.6760    3.6610 C.3   5301  RET5301     0.0043
     17  C17       39.2890   55.4120    2.0670 C.3   5301  RET5301     0.0043
     18  C18       42.3150   52.3520   -0.6810 C.3   5301  RET5301     0.0260
     19  C19       39.0150   49.4110    1.8810 C.3   5301  RET5301     0.0307
     20  C20       35.2610   47.3090    5.3440 C.3   5301  RET5301     0.0260
@<TRIPOS>BOND
     1    18     5    1
     2     4     5    1
     3     4     3    1
     4     5     6    2
     5     3     2    1
     6     6     7    1
     7     6     1    1
     8     7     8    2
     9     2     1    1
    10    19     9    1
    11    17     1    1
    12     1    16    1
    13     8     9    1
    14     9    10    2
    15    10    11    1
    16    11    12    1
    17    12    13    2
    18    20    13    1
    19    13    14    1
    20    14    15    1
