@<TRIPOS>MOLECULE
1s54_RET_A_1.pdb
 20 20 0 0 0
SMALL
GASTEIGER

@<TRIPOS>ATOM
      1  C1        40.3460   54.8630    2.1210 C.3   5301  RET5301     0.0183
      2  C2        41.1440   56.1010    1.6360 C.3   5301  RET5301     0.0044
      3  C3        41.6820   56.0870    0.2510 C.3   5301  RET5301     0.0047
      4  C4        42.2850   54.7600   -0.2110 C.3   5301  RET5301     0.0217
      5  C5        41.5290   53.4760    0.2080 C.2   5301  RET5301    -0.0479
      6  C6        40.6230   53.5120    1.2900 C.2   5301  RET5301    -0.0307
      7  C7        39.9600   52.1990    1.5740 C.2   5301  RET5301    -0.0052
      8  C8        39.0400   51.8290    2.5120 C.2   5301  RET5301    -0.0049
      9  C9        38.4250   50.5340    2.7160 C.2   5301  RET5301    -0.0258
     10  C10       37.5470   50.5730    3.7590 C.2   5301  RET5301    -0.0257
     11  C11       36.7750   49.3960    4.1710 C.3   5301  RET5301     0.0510
     12  C12       35.9700   49.6780    5.2330 C.2   5301  RET5301    -0.0299
     13  C13       35.0830   48.7140    5.8610 C.2   5301  RET5301    -0.0478
     14  C14       34.4200   49.3070    6.9060 C.3   5301  RET5301     0.0217
     15  C15       33.4650   48.6370    7.7530 C.3   5301  RET5301     0.0047
     16  C16       40.7260   54.6850    3.6420 C.3   5301  RET5301     0.0043
     17  C17       38.8570   55.3880    2.0020 C.3   5301  RET5301     0.0043
     18  C18       41.9520   52.3540   -0.7080 C.3   5301  RET5301     0.0260
     19  C19       38.7330   49.3250    1.8550 C.3   5301  RET5301     0.0307
     20  C20       34.9530   47.2870    5.3980 C.3   5301  RET5301     0.0260
@<TRIPOS>BOND
     1    18     5    1
     2     4     5    1
     3     4     3    1
     4     5     6    2
     5     3     2    1
     6     6     7    1
     7     6     1    1
     8     7     8    2
     9     2     1    1
    10    19     9    1
    11    17     1    1
    12     1    16    1
    13     8     9    1
    14     9    10    2
    15    10    11    1
    16    11    12    1
    17    12    13    2
    18    20    13    1
    19    13    14    1
    20    14    15    1
