@<TRIPOS>MOLECULE
1s56_HEM_B_1.pdb
 43 50 0 0 0
SMALL
GASTEIGER

@<TRIPOS>ATOM
      1 FE          9.8670  -10.4430   15.7720 Fe    144  HEM144      0.0000
      2  CHA        9.0590   -7.7280   17.9160 C.2   144  HEM144      0.0000
      3  CHB        8.0590   -9.1680   13.3610 C.2   144  HEM144      0.0000
      4  CHC       11.0910  -12.9530   13.4900 C.2   144  HEM144      0.0000
      5  CHD       11.4140  -12.0450   18.2650 C.2   144  HEM144      0.0000
      6  NA         8.8320   -8.7290   15.6860 N.ar  144  HEM144      0.0000
      7  C1A        8.5040   -7.7900   16.6550 C.ar  144  HEM144      0.0000
      8  C2A        7.4850   -6.9240   16.1100 C.ar  144  HEM144      0.0000
      9  C3A        7.2130   -7.3440   14.8720 C.ar  144  HEM144      0.0000
     10  C4A        8.0570   -8.4780   14.5650 C.ar  144  HEM144      0.0000
     11  CMA        6.1980   -6.7190   13.9020 C.3   144  HEM144      0.0000
     12  CAA        6.8270   -5.7380   16.8390 C.3   144  HEM144      0.0000
     13  CBA        7.7490   -4.5290   16.7400 C.3   144  HEM144      0.0000
     14  CGA        7.1080   -3.2990   17.3230 C.2   144  HEM144      0.0000
     15  O1A        7.2680   -2.2130   16.7250 O.co2 144  HEM144      0.0000
     16  O2A        6.4330   -3.3930   18.3730 O.co2 144  HEM144      0.0000
     17  NB         9.6370  -11.0270   13.8120 N.2   144  HEM144      0.0000
     18  C1B        8.8360  -10.2530   12.9800 C.2   144  HEM144      0.0000
     19  C2B        8.9620  -10.7940   11.6260 C.2   144  HEM144      0.0000
     20  C3B        9.7810  -11.8360   11.6610 C.2   144  HEM144      0.0000
     21  C4B       10.2310  -11.9990   13.0230 C.2   144  HEM144      0.0000
     22  CMB        8.2620  -10.2940   10.3470 C.3   144  HEM144      0.0000
     23  CAB       10.1820  -12.6830   10.4390 C.2   144  HEM144      0.0000
     24  CBB       10.2930  -14.0110   10.5400 C.2   144  HEM144      0.0000
     25  NC        11.0080  -12.1900   15.8170 N.ar  144  HEM144      0.0000
     26  C1C       11.4400  -13.0390   14.8080 C.ar  144  HEM144      0.0000
     27  C2C       12.3060  -14.0280   15.3810 C.ar  144  HEM144      0.0000
     28  C3C       12.3860  -13.7780   16.6800 C.ar  144  HEM144      0.0000
     29  C4C       11.5770  -12.6180   17.0080 C.ar  144  HEM144      0.0000
     30  CMC       13.0050  -15.1730   14.6250 C.3   144  HEM144      0.0000
     31  CAC       13.2050  -14.6190   17.6620 C.2   144  HEM144      0.0000
     32  CBC       12.5590  -15.1750   18.6850 C.2   144  HEM144      0.0000
     33  ND        10.1720   -9.9260   17.7830 N.2   144  HEM144      0.0000
     34  C1D       10.8800  -10.8070   18.6010 C.2   144  HEM144      0.0000
     35  C2D       10.9500  -10.2100   19.9080 C.2   144  HEM144      0.0000
     36  C3D       10.2130   -8.8710   19.8380 C.2   144  HEM144      0.0000
     37  C4D        9.7660   -8.7770   18.4710 C.2   144  HEM144      0.0000
     38  CMD       11.6310  -10.8070   21.1440 C.3   144  HEM144      0.0000
     39  CAD       10.0270   -7.8370   20.9730 C.3   144  HEM144      0.0000
     40  CBD        8.7370   -8.0460   21.7760 C.3   144  HEM144      0.0000
     41  CGD        8.5150   -6.8440   22.6760 C.2   144  HEM144      0.0000
     42  O1D        7.4410   -6.7650   23.3430 O.co2 144  HEM144      0.0000
     43  O2D        9.4020   -5.9430   22.7230 O.co2 144  HEM144      0.0000
@<TRIPOS>BOND
     1    22    19    1
     2    23    24    2
     3    23    20    1
     4    19    20    2
     5    19    18    1
     6    20    21    1
     7    18     3    1
     8    18    17    2
     9    21     4    2
    10    21    17    1
    11     3    10    2
    12     4    26    1
    13    17     1    1
    14    11     9    1
    15    10     9   ar
    16    10     6   ar
    17    30    27    1
    18    26    27   ar
    19    26    25   ar
    20     9     8   ar
    21    27    28   ar
    22     6     1    1
    23     6     7   ar
    24     1    25    1
    25     1    33    1
    26    25    29   ar
    27     8     7   ar
    28     8    12    1
    29     7     2    2
    30    28    29   ar
    31    28    31    1
    32    15    14   ar
    33    13    12    1
    34    13    14    1
    35    29     5    1
    36    14    16   ar
    37    31    32    2
    38    33    37    2
    39    33    34    1
    40     2    37    1
    41     5    34    2
    42    37    36    1
    43    34    35    1
    44    36    35    2
    45    36    39    1
    46    35    38    1
    47    39    40    1
    48    40    41    1
    49    41    43   ar
    50    41    42   ar
