@<TRIPOS>MOLECULE
1s56_HEC_A_1.pdb
 43 50 0 0 0
SMALL
GASTEIGER

@<TRIPOS>ATOM
      1 FE         16.6710   18.8770   16.3510 Fe    144  HEC144      0.0000
      2  CHA       15.7580   21.1810   18.8390 C.2   144  HEC144      0.0000
      3  CHB       14.5570   20.5370   14.2100 C.2   144  HEC144      0.0000
      4  CHC       17.8700   17.0410   13.8070 C.2   144  HEC144      0.0000
      5  CHD       18.4870   17.1170   18.6430 C.2   144  HEC144      0.0000
      6  NA        15.4460   20.5760   16.4910 N.ar  144  HEC144      0.0000
      7  C1A       15.1590   21.3230   17.6120 C.ar  144  HEC144      0.0000
      8  C2A       14.1200   22.2710   17.2690 C.ar  144  HEC144      0.0000
      9  C3A       13.7980   22.0860   15.9910 C.ar  144  HEC144      0.0000
     10  C4A       14.6120   21.0210   15.4860 C.ar  144  HEC144      0.0000
     11  CMA       12.7420   22.8510   15.1590 C.3   144  HEC144      0.0000
     12  CAA       13.5000   23.3130   18.2210 C.3   144  HEC144      0.0000
     13  CBA       14.5420   24.3920   18.4940 C.3   144  HEC144      0.0000
     14  CGA       14.0390   25.4210   19.4900 C.2   144  HEC144      0.0000
     15  O1A       13.9840   26.6130   19.1090 O.co2 144  HEC144      0.0000
     16  O2A       13.7010   25.0640   20.6590 O.co2 144  HEC144      0.0000
     17  NB        16.2770   18.7990   14.4070 N.2   144  HEC144      0.0000
     18  C1B       15.3860   19.5750   13.7050 C.2   144  HEC144      0.0000
     19  C2B       15.4660   19.2270   12.3090 C.2   144  HEC144      0.0000
     20  C3B       16.3800   18.2660   12.1790 C.2   144  HEC144      0.0000
     21  C4B       16.9110   17.9760   13.4950 C.2   144  HEC144      0.0000
     22  CMB       14.5950   19.9100   11.2340 C.3   144  HEC144      0.0000
     23  CAB       16.8150   17.5590   10.8870 C.2   144  HEC144      0.0000
     24  CBB       16.9040   18.2540    9.7570 C.2   144  HEC144      0.0000
     25  NC        17.9740   17.4170   16.2370 N.ar  144  HEC144      0.0000
     26  C1C       18.2630   16.7020   15.0920 C.ar  144  HEC144      0.0000
     27  C2C       19.0300   15.5340   15.4850 C.ar  144  HEC144      0.0000
     28  C3C       19.1860   15.5650   16.8130 C.ar  144  HEC144      0.0000
     29  C4C       18.5260   16.7410   17.3190 C.ar  144  HEC144      0.0000
     30  CMC       19.5610   14.4630   14.5080 C.3   144  HEC144      0.0000
     31  CAC       19.9390   14.5780   17.7230 C.2   144  HEC144      0.0000
     32  CBC       19.5850   13.2980   17.8020 C.2   144  HEC144      0.0000
     33  ND        17.1230   19.1820   18.4220 N.2   144  HEC144      0.0000
     34  C1D       17.7620   18.1750   19.1560 C.2   144  HEC144      0.0000
     35  C2D       17.5310   18.4090   20.5630 C.2   144  HEC144      0.0000
     36  C3D       16.6710   19.6830   20.6400 C.2   144  HEC144      0.0000
     37  C4D       16.4650   20.0830   19.2580 C.2   144  HEC144      0.0000
     38  CMD       18.0510   17.5490   21.7310 C.3   144  HEC144      0.0000
     39  CAD       16.1200   20.3640   21.9180 C.3   144  HEC144      0.0000
     40  CBD       17.2050   21.0920   22.6820 C.3   144  HEC144      0.0000
     41  CGD       16.5620   21.8160   23.8440 C.2   144  HEC144      0.0000
     42  O1D       16.6760   23.0800   23.8940 O.co2 144  HEC144      0.0000
     43  O2D       15.9310   21.1240   24.6980 O.co2 144  HEC144      0.0000
@<TRIPOS>BOND
     1    24    23    2
     2    23    20    1
     3    22    19    1
     4    20    19    2
     5    20    21    1
     6    19    18    1
     7    21     4    2
     8    21    17    1
     9    18     3    1
    10    18    17    2
    11     4    26    1
    12     3    10    2
    13    17     1    1
    14    30    27    1
    15    26    27   ar
    16    26    25   ar
    17    11     9    1
    18    27    28   ar
    19    10     9   ar
    20    10     6   ar
    21     9     8   ar
    22    25     1    1
    23    25    29   ar
    24     1     6    1
    25     1    33    1
    26     6     7   ar
    27    28    29   ar
    28    28    31    1
    29     8     7   ar
    30     8    12    1
    31    29     5    1
    32     7     2    2
    33    31    32    2
    34    12    13    1
    35    33    34    1
    36    33    37    2
    37    13    14    1
    38     5    34    2
    39     2    37    1
    40    15    14   ar
    41    34    35    1
    42    37    36    1
    43    14    16   ar
    44    35    36    2
    45    35    38    1
    46    36    39    1
    47    39    40    1
    48    40    41    1
    49    41    42   ar
    50    41    43   ar
