@<TRIPOS>MOLECULE
1s59_DGI_A_1.pdb
 27 29 0 0 0
SMALL
GASTEIGER

@<TRIPOS>ATOM
      1  O1B       26.6180   47.5240   18.3720 O.3   1101  DGI1101    -0.1143
      2  PB        27.4400   47.7450   17.0010 P.3   1101  DGI1101     0.5373
      3  O2B       28.9650   48.0320   17.4410 O.3   1101  DGI1101    -0.1143
      4  O3B       27.3210   46.5940   16.0740 O.2   1101  DGI1101    -0.2221
      5  O3A       26.9070   49.1440   16.3930 O.3   1101  DGI1101    -0.2261
      6  PA        26.0450   49.2330   15.0310 P.3   1101  DGI1101     0.2231
      7  O1A       24.7920   49.9540   15.3640 O.3   1101  DGI1101    -0.4370
      8  O2A       26.9180   49.7900   13.9730 O.2   1101  DGI1101    -0.5169
      9  O5'       25.6860   47.6970   14.6900 O.3   1101  DGI1101    -0.3111
     10  C5'       25.0160   47.3630   13.4700 C.3   1101  DGI1101     0.1812
     11  C4'       24.8970   45.8460   13.2900 C.3   1101  DGI1101     0.1772
     12  O4'       24.2440   45.5230   12.0510 O.3   1101  DGI1101    -0.3347
     13  C3'       26.2670   45.1750   13.1910 C.3   1101  DGI1101     0.1857
     14  O3'       26.7640   44.9290   14.5090 O.3   1101  DGI1101    -0.2203
     15  C2'       25.8380   43.8400   12.5850 C.3   1101  DGI1101     0.0865
     16  C1'       24.7890   44.2830   11.5620 C.3   1101  DGI1101     0.1981
     17  N9        25.3580   44.5240   10.2140 N.pl3 1101  DGI1101    -0.2374
     18  C8        25.8610   45.6640    9.7490 C.3   1101  DGI1101     0.2245
     19  N7        26.1920   45.5110    8.4670 N.2   1101  DGI1101    -0.2322
     20  C5        25.9070   44.2640    8.1060 C.2   1101  DGI1101     0.2182
     21  C4        25.3820   43.6350    9.2280 C.2   1101  DGI1101     0.2299
     22  N3        24.9790   42.2930    9.1710 N.2   1101  DGI1101    -0.3074
     23  C2        25.1020   41.5770    7.9770 C.1   1101  DGI1101     0.2531
     24  N2        24.7350   40.2970    7.9230 N.pl3 1101  DGI1101    -0.0226
     25  N1        25.6300   42.2160    6.8490 N.2   1101  DGI1101    -0.2485
     26  C6        26.0300   43.5570    6.9150 C.1   1101  DGI1101     0.2372
     27  O6        26.4820   44.1030    5.9090 O.2   1101  DGI1101    -0.2069
@<TRIPOS>BOND
     1    27    26    2
     2    25    26    2
     3    25    23    2
     4    26    20    1
     5    24    23    1
     6    23    22    2
     7    20    19    2
     8    20    21    1
     9    19    18    1
    10    22    21    2
    11    21    17    1
    12    18    17    1
    13    17    16    1
    14    16    12    1
    15    16    15    1
    16    12    11    1
    17    15    13    1
    18    13    11    1
    19    13    14    1
    20    11    10    1
    21    10     9    1
    22     8     6    2
    23     9     6    1
    24     6     7    1
    25     6     5    1
    26     4     2    2
    27     5     2    1
    28     2     3    1
    29     2     1    1
