@<TRIPOS>MOLECULE
1s59_DGT_C_1.pdb
 31 33 0 0 0
SMALL
GASTEIGER

@<TRIPOS>ATOM
      1  PG        59.0000   43.6460    7.6280 P.3   1102  DGT1102     0.5373
      2  O1G       58.1270   42.5540    8.3150 O.3   1102  DGT1102    -0.1143
      3  O2G       59.2020   43.3030    6.1390 O.2   1102  DGT1102    -0.2221
      4  O3G       60.3790   43.6240    8.4320 O.3   1102  DGT1102    -0.1143
      5  O3B       57.9640   45.0540    7.9770 O.3   1102  DGT1102    -0.2258
      6  PB        56.9980   46.0780    6.9190 P.3   1102  DGT1102     0.2277
      7  O1B       56.0730   45.1270    6.3700 O.2   1102  DGT1102    -0.5168
      8  O2B       56.2240   47.0140    7.6470 O.3   1102  DGT1102    -0.4368
      9  O3A       57.5380   46.8480    5.6300 O.3   1102  DGT1102    -0.2700
     10  PA        58.6640   48.0210    5.3960 P.3   1102  DGT1102     0.2189
     11  O1A       58.9170   48.0420    3.9270 O.2   1102  DGT1102    -0.5170
     12  O2A       58.1740   49.2520    6.0250 O.3   1102  DGT1102    -0.4371
     13  O5'       59.9230   47.5240    6.0810 O.3   1102  DGT1102    -0.3112
     14  C5'       61.2200   48.0590    6.2520 C.3   1102  DGT1102     0.1812
     15  C4'       61.7950   46.9190    7.0530 C.3   1102  DGT1102     0.1772
     16  O4'       63.2540   46.9090    7.1350 O.3   1102  DGT1102    -0.3347
     17  C3'       61.2500   46.8740    8.5420 C.3   1102  DGT1102     0.1857
     18  O3'       60.0300   46.1630    8.7120 O.3   1102  DGT1102    -0.2203
     19  C2'       62.4370   46.3010    9.3350 C.3   1102  DGT1102     0.0865
     20  C1'       63.6010   46.8770    8.5310 C.3   1102  DGT1102     0.1981
     21  N9        63.9950   48.2700    8.9160 N.pl3 1102  DGT1102    -0.2374
     22  C8        63.4200   49.5250    8.7750 C.3   1102  DGT1102     0.2245
     23  N7        64.0710   50.5440    9.2530 N.2   1102  DGT1102    -0.2322
     24  C5        65.1950   49.9380    9.7660 C.2   1102  DGT1102     0.2182
     25  C6        66.3680   50.4570   10.4530 C.1   1102  DGT1102     0.2372
     26  O6        66.6420   51.6070   10.7460 O.2   1102  DGT1102    -0.2069
     27  N1        67.3090   49.4490   10.8200 N.2   1102  DGT1102    -0.2485
     28  C2        67.1370   48.0520   10.5470 C.1   1102  DGT1102     0.2531
     29  N2        68.0620   47.1690   10.9240 N.pl3 1102  DGT1102    -0.0226
     30  N3        66.0490   47.5870    9.9110 N.2   1102  DGT1102    -0.3074
     31  C4        65.1250   48.5470    9.5480 C.2   1102  DGT1102     0.2299
@<TRIPOS>BOND
     1    11    10    2
     2    10     9    1
     3    10    12    1
     4    10    13    1
     5     9     6    1
     6    13    14    1
     7     3     1    2
     8    14    15    1
     9     7     6    2
    10     6     8    1
    11     6     5    1
    12    15    16    1
    13    15    17    1
    14    16    20    1
    15     1     5    1
    16     1     2    1
    17     1     4    1
    18    20    21    1
    19    20    19    1
    20    17    18    1
    21    17    19    1
    22    22    21    1
    23    22    23    1
    24    21    31    1
    25    23    24    2
    26    31    24    1
    27    31    30    2
    28    24    25    1
    29    30    28    2
    30    25    26    2
    31    25    27    2
    32    28    27    2
    33    28    29    1
