@<TRIPOS>MOLECULE
1s5d_GAL_D_1.pdb
 12 12 0 0 0
SMALL
GASTEIGER

@<TRIPOS>ATOM
      1  C1       -18.8070   23.6220   30.2410 C.3   704  GAL704      0.3024
      2  C2       -18.9870   22.4810   31.2310 C.3   704  GAL704      0.2434
      3  C3       -17.6900   22.2440   31.9980 C.3   704  GAL704      0.2199
      4  C4       -16.5430   22.0150   31.0170 C.3   704  GAL704      0.2144
      5  C5       -16.4920   23.1720   30.0120 C.3   704  GAL704      0.1836
      6  C6       -15.3930   22.9490   28.9970 C.3   704  GAL704      0.2142
      7  O1       -20.0190   23.7600   29.5060 O.3   704  GAL704     -0.1869
      8  O2       -20.0450   22.7610   32.1240 O.3   704  GAL704     -0.2148
      9  O3       -17.8240   21.1300   32.8570 O.3   704  GAL704     -0.2174
     10  O4       -16.7140   20.7690   30.3640 O.3   704  GAL704     -0.2176
     11  O5       -17.7390   23.3090   29.3460 O.3   704  GAL704     -0.3236
     12  O6       -15.2220   24.0840   28.1770 O.3   704  GAL704     -0.2176
@<TRIPOS>BOND
     1    12     6    1
     2     6     5    1
     3    11     5    1
     4    11     1    1
     5     7     1    1
     6     5     4    1
     7     1     2    1
     8    10     4    1
     9     4     3    1
    10     2     3    1
    11     2     8    1
    12     3     9    1
