@<TRIPOS>MOLECULE
1s5e_GAL_D_1.pdb
 12 12 0 0 0
SMALL
GASTEIGER

@<TRIPOS>ATOM
      1  C1        46.4150    3.0390   41.4490 C.3   751  GAL751      0.3024
      2  C2        46.5890    1.5650   41.8120 C.3   751  GAL751      0.2434
      3  C3        45.3010    0.8110   41.4860 C.3   751  GAL751      0.2199
      4  C4        44.0900    1.4640   42.1600 C.3   751  GAL751      0.2144
      5  C5        44.0400    2.9720   41.8550 C.3   751  GAL751      0.1836
      6  C6        42.9160    3.6970   42.6200 C.3   751  GAL751      0.2142
      7  O1        47.6170    3.7160   41.8070 O.3   751  GAL751     -0.1869
      8  O2        47.6770    1.0650   41.0600 O.3   751  GAL751     -0.2148
      9  O3        45.4130   -0.5140   41.9270 O.3   751  GAL751     -0.2174
     10  O4        44.1860    1.1980   43.5410 O.3   751  GAL751     -0.2176
     11  O5        45.2940    3.5740   42.1500 O.3   751  GAL751     -0.3236
     12  O6        42.8510    5.0910   42.3350 O.3   751  GAL751     -0.2176
@<TRIPOS>BOND
     1     8     2    1
     2     1     7    1
     3     1     2    1
     4     1    11    1
     5     3     2    1
     6     3     9    1
     7     3     4    1
     8     5    11    1
     9     5     4    1
    10     5     6    1
    11     4    10    1
    12    12     6    1
