@<TRIPOS>MOLECULE
1s5f_GAL_D_1.pdb
 12 12 0 0 0
SMALL
GASTEIGER

@<TRIPOS>ATOM
      1  C1       -18.2720   30.7250   31.9950 C.3   104  GAL104      0.3024
      2  C2       -18.9960   31.8220   31.2290 C.3   104  GAL104      0.2434
      3  C3       -17.9460   32.5850   30.4160 C.3   104  GAL104      0.2199
      4  C4       -16.7510   33.0300   31.2740 C.3   104  GAL104      0.2144
      5  C5       -16.3510   31.9900   32.3320 C.3   104  GAL104      0.1836
      6  C6       -15.3820   32.5230   33.3830 C.3   104  GAL104      0.2142
      7  O1       -19.1630   29.8160   32.6070 O.3   104  GAL104     -0.1869
      8  O2       -19.9720   31.2320   30.4000 O.3   104  GAL104     -0.2148
      9  O3       -18.5210   33.6970   29.7670 O.3   104  GAL104     -0.2174
     10  O4       -17.0210   34.2650   31.8910 O.3   104  GAL104     -0.2176
     11  O5       -17.4760   31.3970   32.9540 O.3   104  GAL104     -0.3236
     12  O6       -14.6730   31.4370   33.9380 O.3   104  GAL104     -0.2176
@<TRIPOS>BOND
     1     9     3    1
     2     8     2    1
     3     3     2    1
     4     3     4    1
     5     2     1    1
     6     4    10    1
     7     4     5    1
     8     1     7    1
     9     1    11    1
    10     5    11    1
    11     5     6    1
    12     6    12    1
