@<TRIPOS>MOLECULE
1s5g_ADP_A_1.pdb
 27 29 0 0 0
SMALL
GASTEIGER

@<TRIPOS>ATOM
      1  PB       -10.0910   -2.4120   12.1480 P.3   995  ADP995      0.5373
      2  O1B       -9.5510   -1.1110   11.8290 O.3   995  ADP995     -0.1143
      3  O2B      -11.5400   -2.5800   11.5140 O.2   995  ADP995     -0.2221
      4  O3B       -9.1960   -3.6040   11.6960 O.3   995  ADP995     -0.1143
      5  PA       -11.4340   -1.8640   14.6920 P.3   995  ADP995      0.2231
      6  O1A      -12.5060   -1.0360   13.9900 O.2   995  ADP995     -0.5169
      7  O2A      -12.1010   -3.0030   15.4080 O.3   995  ADP995     -0.4370
      8  O3A      -10.3690   -2.4510   13.7190 O.3   995  ADP995     -0.2261
      9  O5'      -10.6640   -0.9540   15.8050 O.3   995  ADP995     -0.3111
     10  C5'       -9.2020   -0.7770   15.7020 C.3   995  ADP995      0.1813
     11  C4'       -8.8800    0.2470   16.8140 C.3   995  ADP995      0.1821
     12  O4'       -7.9290   -0.3260   17.7050 O.3   995  ADP995     -0.3135
     13  C3'       -8.2390    1.5590   16.2990 C.3   995  ADP995      0.2184
     14  O3'       -8.8330    2.7380   16.8770 O.3   995  ADP995     -0.2174
     15  C2'       -6.7480    1.4360   16.6130 C.3   995  ADP995      0.2570
     16  O2'       -6.0890    2.7100   16.7770 O.3   995  ADP995     -0.2130
     17  C1'       -6.7490    0.5110   17.8350 C.3   995  ADP995      0.3186
     18  N9        -5.5460   -0.4290   17.9820 N.pl3 995  ADP995     -0.1439
     19  C8        -5.5830   -1.5830   18.6990 C.3   995  ADP995      0.3377
     20  N7        -4.4100   -2.1870   18.6630 N.2   995  ADP995     -0.2095
     21  C5        -3.5910   -1.4690   17.9450 C.2   995  ADP995      0.2526
     22  C6        -2.2430   -1.5870   17.5520 C.2   995  ADP995      0.4393
     23  N6        -1.5220   -2.6410   17.9510 N.pl3 995  ADP995      0.2180
     24  N1        -1.6590   -0.6100   16.7580 N.2   995  ADP995      0.0021
     25  C2        -2.3530    0.4830   16.3270 C.3   995  ADP995      0.5254
     26  N3        -3.6630    0.6130   16.7000 N.2   995  ADP995     -0.0055
     27  C4        -4.3110   -0.3200   17.4880 C.2   995  ADP995      0.3518
@<TRIPOS>BOND
     1     3     1    2
     2     4     1    1
     3     2     1    1
     4     1     8    1
     5     8     5    1
     6     6     5    2
     7     5     7    1
     8     5     9    1
     9    10     9    1
    10    10    11    1
    11    13    15    1
    12    13    11    1
    13    13    14    1
    14    25    26    1
    15    25    24    1
    16    15    16    1
    17    15    17    1
    18    26    27    2
    19    24    22    2
    20    11    12    1
    21    27    21    1
    22    27    18    1
    23    22    21    1
    24    22    23    1
    25    12    17    1
    26    17    18    1
    27    21    20    2
    28    18    19    1
    29    20    19    1
