@<TRIPOS>MOLECULE
1s5k_COA_A_1.pdb
 48 50 0 0 0
SMALL
GASTEIGER

@<TRIPOS>ATOM
      1  N1A       17.6540   61.8230   28.4760 N.2   600  COA600      0.0021
      2  C2A       16.9630   61.9380   29.6550 C.3   600  COA600      0.5254
      3  N3A       15.9350   61.2010   30.0350 N.2   600  COA600     -0.0055
      4  C4A       15.5270   60.2120   29.1440 C.2   600  COA600      0.3518
      5  C5A       16.1660   60.0200   27.9140 C.2   600  COA600      0.2526
      6  C6A       17.2790   60.8790   27.5780 C.2   600  COA600      0.4393
      7  N6A       17.9090   60.6960   26.3510 N.pl3 600  COA600      0.2180
      8  N7A       15.5920   58.9720   27.1720 N.2   600  COA600     -0.2095
      9  C8A       14.6170   58.5150   27.9240 C.3   600  COA600      0.3377
     10  N9A       14.5730   59.2460   29.0980 N.pl3 600  COA600     -0.1439
     11  C1B       13.6560   59.0210   30.1680 C.3   600  COA600      0.3185
     12  C2B       12.1640   59.3020   29.8960 C.3   600  COA600      0.2543
     13  O2B       11.9120   60.7200   29.8200 O.3   600  COA600     -0.2131
     14  C3B       11.7450   58.7180   31.2140 C.3   600  COA600      0.1928
     15  O3B       10.4330   58.6470   31.5220 O.3   600  COA600     -0.2673
     16  P3B        9.5110   59.8620   32.0850 P.3   600  COA600      0.5327
     17  O7A       10.0900   60.4370   33.3550 O.3   600  COA600     -0.1145
     18  O8A        8.1930   59.1760   32.2780 O.3   600  COA600     -0.1145
     19  O9A        9.5150   60.8480   30.9580 O.2   600  COA600     -0.2224
     20  C4B       12.3260   57.3370   30.9940 C.3   600  COA600      0.1795
     21  O4B       13.6680   57.6620   30.5730 O.3   600  COA600     -0.3136
     22  C5B       11.5750   56.3510   30.0350 C.3   600  COA600      0.1812
     23  O5B       11.9470   56.5640   28.6830 O.3   600  COA600     -0.3112
     24  P1A       11.5550   55.6260   27.4400 P.3   600  COA600      0.2189
     25  O1A       10.6660   54.4930   27.8150 O.3   600  COA600     -0.4371
     26  O2A       11.0130   56.4560   26.3960 O.2   600  COA600     -0.5170
     27  O3A       12.9430   55.0960   26.9760 O.3   600  COA600     -0.2703
     28  P2A       13.4040   54.6980   25.5650 P.3   600  COA600      0.2188
     29  O4A       12.4050   53.9580   24.7990 O.3   600  COA600     -0.4371
     30  O5A       13.9980   55.8600   24.7650 O.2   600  COA600     -0.5170
     31  O6A       14.6810   53.6830   25.7560 O.3   600  COA600     -0.3138
     32  CBP       16.9080   53.1310   26.2450 C.3   600  COA600      0.0645
     33  CCP       15.6830   53.8930   26.7230 C.3   600  COA600      0.1519
     34  CDP       18.0220   53.2280   27.3100 C.3   600  COA600      0.0056
     35  CEP       16.4880   51.6020   26.1390 C.3   600  COA600      0.0056
     36  CAP       17.4200   53.6790   24.8320 C.3   600  COA600      0.2312
     37  OAP       17.9620   55.0160   24.9150 O.3   600  COA600     -0.2131
     38  C9P       18.4960   52.8170   24.1840 C.2   600  COA600      0.2719
     39  O9P       18.2380   51.8550   23.5110 O.2   600  COA600     -0.2706
     40  N8P       19.7730   53.2480   24.4810 N.am  600  COA600     -0.2028
     41  C7P       20.9500   52.6540   23.8450 C.3   600  COA600      0.1248
     42  C6P       21.2370   51.2470   24.3950 C.3   600  COA600      0.1102
     43  C5P       21.4270   51.3260   25.8910 C.2   600  COA600      0.2432
     44  O5P       22.0760   52.2060   26.3750 O.2   600  COA600     -0.2733
     45  N4P       20.7830   50.3600   26.6350 N.am  600  COA600     -0.2044
     46  C3P       20.8610   50.3360   28.1260 C.3   600  COA600      0.1276
     47  C2P       21.8580   49.3570   28.7970 C.3   600  COA600      0.0920
     48  S1P       21.7530   47.5880   28.2530 S.3   600  COA600     -0.0802
@<TRIPOS>BOND
     1    39    38    2
     2    41    42    1
     3    41    40    1
     4    38    40   am
     5    38    36    1
     6    42    43    1
     7    30    28    2
     8    29    28    1
     9    36    37    1
    10    36    32    1
    11    28    31    1
    12    28    27    1
    13    31    33    1
    14    43    44    2
    15    43    45   am
    16    35    32    1
    17    32    33    1
    18    32    34    1
    19     7     6    1
    20    26    24    2
    21    45    46    1
    22    27    24    1
    23     8     5    2
    24     8     9    1
    25    24    25    1
    26    24    23    1
    27     6     5    1
    28     6     1    2
    29     5     4    1
    30     9    10    1
    31    46    47    1
    32    48    47    1
    33     1     2    1
    34    23    22    1
    35    10     4    1
    36    10    11    1
    37     4     3    2
    38     2     3    1
    39    13    12    1
    40    12    11    1
    41    12    14    1
    42    22    20    1
    43    11    21    1
    44    21    20    1
    45    19    16    2
    46    20    14    1
    47    14    15    1
    48    15    16    1
    49    16    18    1
    50    16    17    1
