@<TRIPOS>MOLECULE
1s5l_HEM_e_1.pdb
 43 50 0 0 0
SMALL
GASTEIGER

@<TRIPOS>ATOM
      1  CHA       39.2100  -25.8060  -23.6720 C.2   2084  HEM2084     0.0000
      2  CHB       41.8180  -29.5350  -21.8400 C.2   2084  HEM2084     0.0000
      3  CHC       38.2750  -30.2670  -18.3800 C.2   2084  HEM2084     0.0000
      4  CHD       35.7210  -26.4270  -20.3290 C.2   2084  HEM2084     0.0000
      5  C1A       40.1700  -26.7270  -23.4930 C.ar  2084  HEM2084     0.0000
      6  C2A       41.3430  -26.8020  -24.3900 C.ar  2084  HEM2084     0.0000
      7  C3A       42.1380  -27.8780  -23.8780 C.ar  2084  HEM2084     0.0000
      8  C4A       41.3950  -28.4190  -22.6920 C.ar  2084  HEM2084     0.0000
      9  CMA       43.5100  -28.4220  -24.4260 C.3   2084  HEM2084     0.0000
     10  CAA       41.5650  -25.8910  -25.5910 C.3   2084  HEM2084     0.0000
     11  CBA       40.6440  -26.4810  -26.6880 C.3   2084  HEM2084     0.0000
     12  CGA       40.7260  -25.7410  -27.9370 C.2   2084  HEM2084     0.0000
     13  O1A       41.0230  -24.4640  -27.8320 O.co2 2084  HEM2084     0.0000
     14  O2A       40.5350  -26.3200  -29.0280 O.co2 2084  HEM2084     0.0000
     15  C1B       41.0830  -30.0830  -20.7030 C.2   2084  HEM2084     0.0000
     16  C2B       41.5340  -31.1830  -19.8930 C.2   2084  HEM2084     0.0000
     17  C3B       40.5250  -31.4020  -18.8890 C.2   2084  HEM2084     0.0000
     18  C4B       39.4390  -30.3990  -19.1340 C.2   2084  HEM2084     0.0000
     19  CMB       42.9360  -31.9770  -20.1140 C.3   2084  HEM2084     0.0000
     20  CAB       40.5320  -32.4500  -17.7470 C.3   2084  HEM2084     0.0000
     21  CBB       41.5510  -31.9620  -16.7100 C.3   2084  HEM2084     0.0000
     22  C1C       37.2630  -29.2820  -18.6390 C.ar  2084  HEM2084     0.0000
     23  C2C       36.0170  -29.1380  -17.8460 C.ar  2084  HEM2084     0.0000
     24  C3C       35.3390  -28.0610  -18.4250 C.ar  2084  HEM2084     0.0000
     25  C4C       36.1030  -27.5380  -19.5190 C.ar  2084  HEM2084     0.0000
     26  CMC       35.5790  -30.0100  -16.6420 C.3   2084  HEM2084     0.0000
     27  CAC       33.9600  -27.5060  -17.9680 C.3   2084  HEM2084     0.0000
     28  CBC       32.8070  -27.9180  -18.8420 C.3   2084  HEM2084     0.0000
     29  C1D       36.4710  -25.9380  -21.3940 C.2   2084  HEM2084     0.0000
     30  C2D       36.0930  -24.8070  -22.2330 C.2   2084  HEM2084     0.0000
     31  C3D       37.0800  -24.6470  -23.1480 C.2   2084  HEM2084     0.0000
     32  C4D       38.0770  -25.6750  -22.8950 C.2   2084  HEM2084     0.0000
     33  CMD       34.7310  -23.9820  -22.0330 C.3   2084  HEM2084     0.0000
     34  CAD       37.1160  -23.5800  -24.2340 C.3   2084  HEM2084     0.0000
     35  CBD       38.1530  -22.5240  -23.9210 C.3   2084  HEM2084     0.0000
     36  CGD       38.2940  -21.4280  -24.9370 C.2   2084  HEM2084     0.0000
     37  O1D       38.1530  -20.2710  -24.4600 O.co2 2084  HEM2084     0.0000
     38  O2D       38.4880  -21.7390  -26.1290 O.co2 2084  HEM2084     0.0000
     39  NA        40.1620  -27.7230  -22.4470 N.ar  2084  HEM2084     0.0000
     40  NB        39.7840  -29.5690  -20.2420 N.2   2084  HEM2084     0.0000
     41  NC        37.3190  -28.2840  -19.6740 N.ar  2084  HEM2084     0.0000
     42  ND        37.7080  -26.4470  -21.8180 N.2   2084  HEM2084     0.0000
     43 FE         38.7120  -27.9900  -21.0310 Fe    2084  HEM2084     0.0000
@<TRIPOS>BOND
     1    14    12   ar
     2    12    13   ar
     3    12    11    1
     4    11    10    1
     5    38    36   ar
     6    10     6    1
     7    36    37   ar
     8    36    35    1
     9     9     7    1
    10     6     7   ar
    11     6     5   ar
    12    34    35    1
    13    34    31    1
    14     7     8   ar
    15     1     5    2
    16     1    32    1
    17     5    39   ar
    18    31    32    1
    19    31    30    2
    20    32    42    2
    21     8    39   ar
    22     8     2    2
    23    39    43    1
    24    30    33    1
    25    30    29    1
    26     2    15    1
    27    42    29    1
    28    42    43    1
    29    29     4    2
    30    43    40    1
    31    43    41    1
    32    15    40    2
    33    15    16    1
    34     4    25    1
    35    40    18    1
    36    19    16    1
    37    16    17    2
    38    41    25   ar
    39    41    22   ar
    40    25    24   ar
    41    18    17    1
    42    18     3    2
    43    17    20    1
    44    28    27    1
    45    22     3    1
    46    22    23   ar
    47    24    27    1
    48    24    23   ar
    49    23    26    1
    50    20    21    1
