@<TRIPOS>MOLECULE
1s5m_GLC_A_1.pdb
 24 24 0 0 0
SMALL
GASTEIGER

@<TRIPOS>ATOM
      1  C1        18.7040   35.0340    4.9840 C.3   1001  GLC1001     0.1854
      2  C2        17.2670   35.5820    4.8910 C.3   1001  GLC1001     0.1339
      3  C3        16.5310   35.1930    6.1680 C.3   1001  GLC1001     0.1141
      4  C4        16.5610   33.7150    6.3710 C.3   1001  GLC1001     0.1119
      5  C5        18.0440   33.3310    6.4600 C.3   1001  GLC1001     0.1130
      6  C6        18.0400   31.9300    7.0070 C.3   1001  GLC1001     0.0730
      7  O1        19.4590   35.6320    6.0120 O.3   1001  GLC1001    -0.3649
      8  O2        17.3160   36.9840    4.6820 O.3   1001  GLC1001    -0.3841
      9  O3        15.1600   35.6130    6.1350 O.3   1001  GLC1001    -0.3864
     10  O4        15.8810   33.3240    7.5620 O.3   1001  GLC1001    -0.3865
     11  O5        18.6620   33.5390    5.1790 O.3   1001  GLC1001    -0.3407
     12  O6        17.5330   31.1770    5.9030 O.3   1001  GLC1001    -0.3924
     13  H1        19.1630   35.2200    4.1160 H     1001  GLC1001     0.0935
     14  H2        16.8090   35.1560    4.1110 H     1001  GLC1001     0.0671
     15  H3        16.9820   35.6330    6.9450 H     1001  GLC1001     0.0648
     16  H4        16.1440   33.2610    5.5840 H     1001  GLC1001     0.0647
     17  H5        18.4880   33.9300    7.1270 H     1001  GLC1001     0.0647
     18  H61       18.9530   31.6370    7.2540 H     1001  GLC1001     0.0584
     19  H62       17.4480   31.8540    7.7970 H     1001  GLC1001     0.0584
     20  HO1       18.9860   36.1990    6.4130 H     1001  GLC1001     0.2126
     21  HO2       16.9320   37.3750    5.3180 H     1001  GLC1001     0.2101
     22  HO3       14.6600   34.9430    6.2190 H     1001  GLC1001     0.2100
     23  HO4       15.5960   34.0070    7.9590 H     1001  GLC1001     0.2100
     24  HO6       17.9710   31.3650    5.2110 H     1001  GLC1001     0.2095
@<TRIPOS>BOND
     1    14     2    1
     2    13     1    1
     3     8     2    1
     4     8    21    1
     5     2     1    1
     6     2     3    1
     7     1    11    1
     8     1     7    1
     9    11     5    1
    10    24    12    1
    11    16     4    1
    12    12     6    1
    13     7    20    1
    14     9     3    1
    15     9    22    1
    16     3     4    1
    17     3    15    1
    18     4     5    1
    19     4    10    1
    20     5     6    1
    21     5    17    1
    22     6    18    1
    23     6    19    1
    24    10    23    1
