@<TRIPOS>MOLECULE
1s5n_XYL_A_1.pdb
 22 21 0 0 0
SMALL
GASTEIGER

@<TRIPOS>ATOM
      1  C1        16.0270   36.6810    4.5490 C.3   1001  XYL1001     0.0727
      2  C2        15.7060   35.3660    5.2150 C.3   1001  XYL1001     0.1065
      3  C3        16.9160   34.6150    5.6830 C.3   1001  XYL1001     0.1111
      4  C4        16.6810   33.1550    5.9770 C.3   1001  XYL1001     0.1065
      5  C5        17.9530   32.3400    6.1200 C.3   1001  XYL1001     0.0727
      6  O1        14.8580   37.4100    4.1450 O.3   1001  XYL1001    -0.3924
      7  O2        14.7810   35.6280    6.2890 O.3   1001  XYL1001    -0.3869
      8  O3        17.5860   35.2650    6.7710 O.3   1001  XYL1001    -0.3865
      9  O4        15.9310   32.9620    7.1840 O.3   1001  XYL1001    -0.3869
     10  O5        18.7060   32.3840    4.9070 O.3   1001  XYL1001    -0.3924
     11  H11       16.5530   37.2380    5.1760 H     1001  XYL1001     0.0584
     12  H12       16.5900   36.5090    3.7540 H     1001  XYL1001     0.0584
     13  H2        15.2350   34.7940    4.5430 H     1001  XYL1001     0.0643
     14  H3        17.5590   34.6360    4.9180 H     1001  XYL1001     0.0647
     15  H4        16.1520   32.7700    5.2210 H     1001  XYL1001     0.0643
     16  H51       18.4980   32.7030    6.8630 H     1001  XYL1001     0.0584
     17  H52       17.7240   31.4020    6.3350 H     1001  XYL1001     0.0584
     18  HO1       14.3760   37.5620    4.8160 H     1001  XYL1001     0.2095
     19  HO2       15.0830   35.3060    7.0030 H     1001  XYL1001     0.2100
     20  HO3       17.1710   35.9650    6.9770 H     1001  XYL1001     0.2100
     21  HO4       15.7570   33.7080    7.5280 H     1001  XYL1001     0.2100
     22  HO5       18.2530   32.0500    4.2840 H     1001  XYL1001     0.2095
@<TRIPOS>BOND
     1    12     1    1
     2     6     1    1
     3     6    18    1
     4    22    10    1
     5    13     2    1
     6     1    11    1
     7     1     2    1
     8    10     5    1
     9    14     3    1
    10     2     3    1
    11     2     7    1
    12    15     4    1
    13     3     4    1
    14     3     8    1
    15     4     5    1
    16     4     9    1
    17     5    17    1
    18     5    16    1
    19     7    19    1
    20     8    20    1
    21     9    21    1
