@<TRIPOS>MOLECULE
1s5o_152_A_1.pdb
 11 10 0 0 0
SMALL
GASTEIGER

@<TRIPOS>ATOM
      1  C1        44.5830   26.4470    8.1230 C.2   617  152617      0.3674
      2  O1A       44.6470   26.4310    6.8800 O.co2 617  152617     -0.2456
      3  O1B       43.7640   25.8160    8.8260 O.co2 617  152617     -0.2456
      4  C2        45.6080   27.3140    8.8580 C.3   617  152617      0.1446
      5  C3        44.9810   27.9540   10.1140 C.3   617  152617      0.1433
      6  O3        46.0610   28.6690   10.7440 O.3   617  152617     -0.2248
      7  C4        43.9200   28.9550    9.6400 C.3   617  152617     -0.0392
      8  N5        43.1160   29.4640   10.8460 N.4   617  152617      0.3874
      9  C5A       44.0080   30.2400   11.8150 C.3   617  152617     -0.0959
     10  C5B       42.0180   30.4050   10.3250 C.3   617  152617     -0.0959
     11  C5C       42.4470   28.2860   11.5600 C.3   617  152617     -0.0959
@<TRIPOS>BOND
     1     2     1   ar
     2     1     3   ar
     3     1     4    1
     4     4     5    1
     5     7     5    1
     6     7     8    1
     7     5     6    1
     8    10     8    1
     9     8    11    1
    10     8     9    1
