@<TRIPOS>MOLECULE
1s5s_PG3_A_1.pdb
 20 19 0 0 0
SMALL
GASTEIGER

@<TRIPOS>ATOM
      1  OA        35.5970   27.1810   10.5560 O.3     1  PG31       -0.3949
      2  CB        34.8550   26.3900   11.4510 C.3     1  PG31        0.0471
      3  CG        33.4250   26.9200   11.4740 C.3     1  PG31        0.0010
      4  CD        33.4030   28.2810   12.1860 C.3     1  PG31        0.0666
      5  NE        32.0600   28.5830   12.6970 N.pl3   1  PG31       -0.2787
      6  CZ        31.6750   28.1000   13.8850 C.cat   1  PG31        0.3410
      7  NH1       32.2000   26.9720   14.3770 N.pl3   1  PG31       -0.2919
      8  NH2       30.8080   28.7680   14.6460 N.pl3   1  PG31       -0.2919
      9  HA        35.5120   28.1000   10.8170 H       1  PG31        0.2094
     10  HB1       35.2940   26.4310   12.4470 H       1  PG31        0.0558
     11  HB2       34.8520   25.3560   11.1030 H       1  PG31        0.0558
     12  HG1       32.8010   26.1940   11.9940 H       1  PG31        0.0318
     13  HG2       33.0450   27.0340   10.4570 H       1  PG31        0.0318
     14  HD1       33.7260   29.0580   11.5010 H       1  PG31        0.0655
     15  HD2       34.1000   28.2700   13.0210 H       1  PG31        0.0655
     16  HE        31.6010   29.4060   12.3330 H       1  PG31        0.2578
     17 HH11       31.9540   26.6610   15.3040 H       1  PG31        0.2545
     18 HH12       32.8570   26.4440   13.8230 H       1  PG31        0.2545
     19 HH21       30.4110   29.6350   14.3130 H       1  PG31        0.2545
     20 HH22       30.5560   28.4160   15.5590 H       1  PG31        0.2545
@<TRIPOS>BOND
     1    13     3    1
     2     1     9    1
     3     1     2    1
     4    11     2    1
     5     2     3    1
     6     2    10    1
     7     3    12    1
     8     3     4    1
     9    14     4    1
    10     4     5    1
    11     4    15    1
    12    16     5    1
    13     5     6    1
    14    18     7    1
    15     6     7    2
    16     6     8    1
    17    19     8    1
    18     7    17    1
    19     8    20    1
