@<TRIPOS>MOLECULE
1s5x_HEM_A_1.pdb
 43 50 0 0 0
SMALL
GASTEIGER

@<TRIPOS>ATOM
      1 FE          5.4650   -8.5180   17.7840 Fe    200  HEM200      0.0000
      2  CHA        5.1540   -9.6420   21.0600 C.2   200  HEM200      0.0000
      3  CHB        7.3360  -11.3430   17.0830 C.2   200  HEM200      0.0000
      4  CHC        5.8990   -7.4980   14.5720 C.2   200  HEM200      0.0000
      5  CHD        3.9830   -5.6570   18.6070 C.2   200  HEM200      0.0000
      6  NA         6.0920  -10.2010   18.8460 N.ar  200  HEM200      0.0000
      7  C1A        5.8540  -10.5170   20.1960 C.ar  200  HEM200      0.0000
      8  C2A        6.5050  -11.7450   20.6110 C.ar  200  HEM200      0.0000
      9  C3A        7.1480  -12.2090   19.5060 C.ar  200  HEM200      0.0000
     10  C4A        6.8780  -11.2560   18.4020 C.ar  200  HEM200      0.0000
     11  CMA        8.0270  -13.4430   19.3980 C.3   200  HEM200      0.0000
     12  CAA        6.5650  -12.3220   22.0210 C.3   200  HEM200      0.0000
     13  CBA        5.3710  -13.2380   22.3980 C.3   200  HEM200      0.0000
     14  CGA        5.0510  -13.2250   23.7790 C.2   200  HEM200      0.0000
     15  O1A        4.4990  -12.0880   24.1860 O.co2 200  HEM200      0.0000
     16  O2A        5.2760  -14.2190   24.5530 O.co2 200  HEM200      0.0000
     17  NB         6.3930   -9.2870   16.1560 N.2   200  HEM200      0.0000
     18  C1B        7.1160  -10.4750   16.0160 C.2   200  HEM200      0.0000
     19  C2B        7.5840  -10.6900   14.6280 C.2   200  HEM200      0.0000
     20  C3B        7.1930   -9.6110   13.9080 C.2   200  HEM200      0.0000
     21  C4B        6.4700   -8.7540   14.8580 C.2   200  HEM200      0.0000
     22  CMB        8.3510  -11.9020   14.1040 C.3   200  HEM200      0.0000
     23  CAB        7.4530   -9.3310   12.4300 C.3   200  HEM200      0.0000
     24  CBB        8.8860   -8.8810   12.0070 C.3   200  HEM200      0.0000
     25  NC         4.9650   -6.8980   16.7520 N.ar  200  HEM200      0.0000
     26  C1C        5.2150   -6.6110   15.4200 C.ar  200  HEM200      0.0000
     27  C2C        4.7270   -5.2580   15.0720 C.ar  200  HEM200      0.0000
     28  C3C        4.2000   -4.7460   16.2440 C.ar  200  HEM200      0.0000
     29  C4C        4.3550   -5.7880   17.2440 C.ar  200  HEM200      0.0000
     30  CMC        4.8610   -4.6000   13.6870 C.3   200  HEM200      0.0000
     31  CAC        3.5480   -3.3820   16.5920 C.3   200  HEM200      0.0000
     32  CBC        4.1770   -2.0840   16.1330 C.3   200  HEM200      0.0000
     33  ND         4.7010   -7.8020   19.4960 N.2   200  HEM200      0.0000
     34  C1D        4.1180   -6.5430   19.6780 C.2   200  HEM200      0.0000
     35  C2D        3.7260   -6.2490   21.0560 C.2   200  HEM200      0.0000
     36  C3D        4.0820   -7.3980   21.7430 C.2   200  HEM200      0.0000
     37  C4D        4.6590   -8.3510   20.7580 C.2   200  HEM200      0.0000
     38  CMD        3.0940   -4.9680   21.5940 C.3   200  HEM200      0.0000
     39  CAD        3.9390   -7.6390   23.2400 C.3   200  HEM200      0.0000
     40  CBD        5.1620   -6.8190   23.9340 C.3   200  HEM200      0.0000
     41  CGD        5.4470   -7.1830   25.2260 C.2   200  HEM200      0.0000
     42  O1D        6.2690   -8.1480   25.3910 O.co2 200  HEM200      0.0000
     43  O2D        4.8430   -6.6090   26.1610 O.co2 200  HEM200      0.0000
@<TRIPOS>BOND
     1    24    23    1
     2    23    20    1
     3    30    27    1
     4    20    19    2
     5    20    21    1
     6    22    19    1
     7     4    21    2
     8     4    26    1
     9    19    18    1
    10    21    17    1
    11    27    26   ar
    12    27    28   ar
    13    26    25   ar
    14    18    17    2
    15    18     3    1
    16    32    31    1
    17    17     1    1
    18    28    31    1
    19    28    29   ar
    20    25    29   ar
    21    25     1    1
    22     3    10    2
    23    29     5    1
    24     1     6    1
    25     1    33    1
    26    10     6   ar
    27    10     9   ar
    28     5    34    2
    29     6     7   ar
    30    11     9    1
    31    33    34    1
    32    33    37    2
    33     9     8   ar
    34    34    35    1
    35     7     8   ar
    36     7     2    2
    37     8    12    1
    38    37     2    1
    39    37    36    1
    40    35    38    1
    41    35    36    2
    42    36    39    1
    43    12    13    1
    44    13    14    1
    45    39    40    1
    46    14    15   ar
    47    14    16   ar
    48    40    41    1
    49    41    42   ar
    50    41    43   ar
