@<TRIPOS>MOLECULE
1s5y_HEM_A_1.pdb
 43 50 0 0 0
SMALL
GASTEIGER

@<TRIPOS>ATOM
      1 FE         14.0540  -14.8550   -2.4730 Fe    200  HEM200      0.0000
      2  CHA       17.1420  -16.3510   -2.5880 C.2   200  HEM200      0.0000
      3  CHB       12.6360  -17.8130   -1.4480 C.2   200  HEM200      0.0000
      4  CHC       10.9880  -13.4540   -2.5060 C.2   200  HEM200      0.0000
      5  CHD       15.3720  -12.0790   -3.7530 C.2   200  HEM200      0.0000
      6  NA        14.7810  -16.7110   -2.0500 N.2   200  HEM200      0.0000
      7  C1A       16.0850  -17.1700   -2.1260 C.2   200  HEM200      0.0000
      8  C2A       16.2000  -18.5850   -1.7780 C.2   200  HEM200      0.0000
      9  C3A       14.9240  -19.0050   -1.5050 C.2   200  HEM200      0.0000
     10  C4A       14.0500  -17.8310   -1.6480 C.2   200  HEM200      0.0000
     11  CMA       14.4170  -20.3910   -1.1660 C.3   200  HEM200      0.0000
     12  CAA       17.4610  -19.4840   -1.8320 C.3   200  HEM200      0.0000
     13  CBA       18.7860  -19.2800   -1.0210 C.3   200  HEM200      0.0000
     14  CGA       19.2820  -20.3700   -0.2230 C.2   200  HEM200      0.0000
     15  O1A       20.2550  -20.0920    0.5950 O.co2 200  HEM200      0.0000
     16  O2A       18.8490  -21.5570   -0.2230 O.co2 200  HEM200      0.0000
     17  NB        12.1610  -15.4980   -2.0370 N.ar  200  HEM200      0.0000
     18  C1B       11.7190  -16.7440   -1.6120 C.ar  200  HEM200      0.0000
     19  C2B       10.2510  -16.7850   -1.3490 C.ar  200  HEM200      0.0000
     20  C3B        9.7840  -15.5650   -1.6310 C.ar  200  HEM200      0.0000
     21  C4B       10.9710  -14.7850   -2.0730 C.ar  200  HEM200      0.0000
     22  CMB        9.4390  -17.9740   -0.8290 C.3   200  HEM200      0.0000
     23  CAB        8.3400  -15.0490   -1.4850 C.3   200  HEM200      0.0000
     24  CBB        7.1890  -15.6810   -2.3180 C.3   200  HEM200      0.0000
     25  NC        13.3350  -13.0890   -3.0110 N.2   200  HEM200      0.0000
     26  C1C       12.0120  -12.6540   -2.9620 C.2   200  HEM200      0.0000
     27  C2C       11.8740  -11.2920   -3.4790 C.2   200  HEM200      0.0000
     28  C3C       13.1520  -10.9280   -3.8580 C.2   200  HEM200      0.0000
     29  C4C       14.0060  -12.0380   -3.5290 C.2   200  HEM200      0.0000
     30  CMC       10.5290  -10.5230   -3.5940 C.3   200  HEM200      0.0000
     31  CAC       13.7180   -9.6330   -4.5470 C.3   200  HEM200      0.0000
     32  CBC       12.8970   -8.5050   -5.2320 C.3   200  HEM200      0.0000
     33  ND        15.9290  -14.3130   -3.0400 N.ar  200  HEM200      0.0000
     34  C1D       16.3200  -13.0790   -3.5690 C.ar  200  HEM200      0.0000
     35  C2D       17.7260  -12.9910   -3.9630 C.ar  200  HEM200      0.0000
     36  C3D       18.2140  -14.2250   -3.6480 C.ar  200  HEM200      0.0000
     37  C4D       17.0910  -15.0290   -3.0480 C.ar  200  HEM200      0.0000
     38  CMD       18.4240  -11.8230   -4.6270 C.3   200  HEM200      0.0000
     39  CAD       19.6110  -14.7380   -3.8780 C.3   200  HEM200      0.0000
     40  CBD       19.8200  -15.2800   -5.3690 C.3   200  HEM200      0.0000
     41  CGD       21.0570  -15.9840   -5.5030 C.2   200  HEM200      0.0000
     42  O1D       22.1850  -15.3690   -5.5580 O.co2 200  HEM200      0.0000
     43  O2D       21.0810  -17.2600   -5.5030 O.co2 200  HEM200      0.0000
@<TRIPOS>BOND
     1    42    41   ar
     2    43    41   ar
     3    41    40    1
     4    40    39    1
     5    32    31    1
     6    38    35    1
     7    31    28    1
     8    35    36   ar
     9    35    34   ar
    10    39    36    1
    11    28    29    1
    12    28    27    2
    13     5    34    2
    14     5    29    1
    15    36    37   ar
    16    30    27    1
    17    34    33   ar
    18    29    25    2
    19    27    26    1
    20    37    33   ar
    21    37     2    2
    22    33     1    1
    23    25    26    1
    24    25     1    1
    25    26     4    2
    26     2     7    1
    27     4    21    1
    28     1     6    1
    29     1    17    1
    30    24    23    1
    31     7     6    2
    32     7     8    1
    33    21    17   ar
    34    21    20   ar
    35     6    10    1
    36    17    18   ar
    37    12     8    1
    38    12    13    1
    39     8     9    2
    40    10     9    1
    41    10     3    2
    42    20    23    1
    43    20    19   ar
    44    18     3    1
    45    18    19   ar
    46     9    11    1
    47    19    22    1
    48    13    14    1
    49    14    16   ar
    50    14    15   ar
