@<TRIPOS>MOLECULE
1s5z_SON_A_1.pdb
 26 28 0 0 0
SMALL
GASTEIGER

@<TRIPOS>ATOM
      1  PB         3.7600  -20.3990    4.8340 P.3   1160  SON1160     0.1284
      2  O1B        4.9760  -21.2280    5.0220 O.3   1160  SON1160    -0.3567
      3  O2B        3.1160  -20.1060    6.1380 O.3   1160  SON1160    -0.3567
      4  O3B        4.2670  -18.9960    4.2730 O.2   1160  SON1160    -0.4595
      5  CB         2.6530  -21.1830    3.7600 C.3   1160  SON1160     0.1681
      6  CA         1.5280  -22.0620    4.2610 C.2   1160  SON1160     0.3245
      7  OA         1.6760  -23.2840    4.2640 O.2   1160  SON1160    -0.2496
      8  O5'        0.5790  -21.3950    5.1000 O.3   1160  SON1160    -0.4454
      9  C5'        0.0090  -20.2850    4.4040 C.3   1160  SON1160     0.2406
     10  C4'       -0.5100  -19.2630    5.3890 C.3   1160  SON1160     0.1958
     11  O4'       -1.6570  -19.7930    6.1020 O.3   1160  SON1160    -0.3123
     12  C1'       -1.6940  -19.2550    7.4150 C.3   1160  SON1160     0.3186
     13  N9        -1.7240  -20.3640    8.3690 N.pl3 1160  SON1160    -0.1439
     14  C4        -2.5590  -20.4800    9.4530 C.2   1160  SON1160     0.3518
     15  N3        -3.5100  -19.6160    9.8450 N.2   1160  SON1160    -0.0055
     16  C2        -4.1230  -20.0620   10.9420 C.3   1160  SON1160     0.5254
     17  N1        -3.9070  -21.1900   11.6370 N.2   1160  SON1160     0.0021
     18  C6        -2.9420  -22.0350   11.2120 C.2   1160  SON1160     0.4393
     19  N6        -2.7230  -23.1570   11.9020 N.pl3 1160  SON1160     0.2180
     20  C5        -2.2210  -21.6770   10.0620 C.2   1160  SON1160     0.2526
     21  N7        -1.1930  -22.3040    9.3740 N.2   1160  SON1160    -0.2095
     22  C8        -0.9360  -21.4880    8.3810 C.3   1160  SON1160     0.3377
     23  C2'       -0.4660  -18.3560    7.5820 C.3   1160  SON1160     0.2570
     24  O2'       -0.8360  -17.0050    7.3980 O.3   1160  SON1160    -0.2130
     25  C3'        0.4630  -18.8960    6.4970 C.3   1160  SON1160     0.2197
     26  O3'        1.4010  -17.9240    6.0450 O.3   1160  SON1160    -0.2174
@<TRIPOS>BOND
     1     5     6    1
     2     5     1    1
     3     6     7    2
     4     6     8    1
     5     4     1    2
     6     9     8    1
     7     9    10    1
     8     1     2    1
     9     1     3    1
    10    10    11    1
    11    10    25    1
    12    26    25    1
    13    11    12    1
    14    25    23    1
    15    24    23    1
    16    12    23    1
    17    12    13    1
    18    13    22    1
    19    13    14    1
    20    22    21    1
    21    21    20    2
    22    14    15    2
    23    14    20    1
    24    15    16    1
    25    20    18    1
    26    16    17    1
    27    18    17    2
    28    18    19    1
