@<TRIPOS>MOLECULE
1s60_COA_A_1.pdb
 48 50 0 0 0
SMALL
GASTEIGER

@<TRIPOS>ATOM
      1  N1A        7.2110   54.7490   37.0970 N.2   600  COA600      0.0021
      2  C2A        7.2120   55.4430   35.9100 C.3   600  COA600      0.5254
      3  N3A        6.2500   55.4840   34.9710 N.2   600  COA600     -0.0055
      4  C4A        5.1150   54.7200   35.2780 C.2   600  COA600      0.3518
      5  C5A        5.0320   53.9750   36.4850 C.2   600  COA600      0.2526
      6  C6A        6.1150   53.9880   37.4030 C.2   600  COA600      0.4393
      7  N6A        5.9620   53.2340   38.5460 N.pl3 600  COA600      0.2180
      8  N7A        3.8470   53.2820   36.5870 N.2   600  COA600     -0.2095
      9  C8A        3.1920   53.5660   35.5020 C.3   600  COA600      0.3377
     10  N9A        3.9110   54.3890   34.7080 N.pl3 600  COA600     -0.1439
     11  C1B        3.4470   54.8570   33.4200 C.3   600  COA600      0.3185
     12  C2B        3.2040   53.6790   32.4670 C.3   600  COA600      0.2543
     13  O2B        4.4260   53.2050   31.8590 O.3   600  COA600     -0.2131
     14  C3B        2.3790   54.3790   31.4660 C.3   600  COA600      0.1928
     15  O3B        1.8660   53.5370   30.4950 O.3   600  COA600     -0.2673
     16  P3B        1.8860   54.0570   28.9220 P.3   600  COA600      0.5327
     17  O7A        2.5320   55.4380   28.9130 O.3   600  COA600     -0.1145
     18  O8A        0.4400   54.0500   28.3880 O.3   600  COA600     -0.1145
     19  O9A        2.7910   53.0360   28.2750 O.2   600  COA600     -0.2224
     20  C4B        1.3750   55.0970   32.3790 C.3   600  COA600      0.1795
     21  O4B        2.1730   55.4770   33.5140 O.3   600  COA600     -0.3136
     22  C5B        0.0660   54.3990   32.8500 C.3   600  COA600      0.1812
     23  O5B        0.3620   53.4760   33.9360 O.3   600  COA600     -0.3112
     24  P1A       -0.6680   52.3260   34.5540 P.3   600  COA600      0.2189
     25  O1A       -1.9980   52.2950   33.8770 O.2   600  COA600     -0.5170
     26  O2A        0.1050   51.0540   34.4900 O.3   600  COA600     -0.4371
     27  O3A       -0.8400   52.7540   36.0710 O.3   600  COA600     -0.2703
     28  P2A       -0.4820   51.9390   37.3780 P.3   600  COA600      0.2188
     29  O4A       -1.1460   50.6080   37.3920 O.2   600  COA600     -0.5170
     30  O5A        0.9750   51.7270   37.5490 O.3   600  COA600     -0.4371
     31  O6A       -0.8480   52.8290   38.7200 O.3   600  COA600     -0.3138
     32  CBP       -0.5840   54.7730   40.3290 C.3   600  COA600      0.0645
     33  CCP       -0.2950   54.1570   38.9160 C.3   600  COA600      0.1519
     34  CDP       -0.3340   56.2790   40.2220 C.3   600  COA600      0.0056
     35  CEP       -2.1050   54.6110   40.5920 C.3   600  COA600      0.0056
     36  CAP        0.3480   54.2340   41.5160 C.3   600  COA600      0.2312
     37  OAP        1.3400   53.3330   41.0520 O.3   600  COA600     -0.2131
     38  C9P       -0.3500   53.6150   42.7420 C.2   600  COA600      0.2719
     39  O9P       -1.0470   52.6650   42.5890 O.2   600  COA600     -0.2706
     40  N8P        0.2470   53.8560   43.9660 N.am  600  COA600     -0.2028
     41  C7P        0.2830   55.1280   44.7000 C.3   600  COA600      0.1248
     42  C6P       -0.9680   56.0250   44.6090 C.3   600  COA600      0.1102
     43  C5P       -0.6930   57.3910   43.9870 C.2   600  COA600      0.2432
     44  O5P        0.3930   57.7220   43.5850 O.2   600  COA600     -0.2733
     45  N4P       -1.7970   58.1820   43.8230 N.am  600  COA600     -0.2044
     46  C3P       -1.8490   59.3180   42.8450 C.3   600  COA600      0.1276
     47  C2P       -3.0270   60.3220   43.0890 C.3   600  COA600      0.0920
     48  S1P       -3.9170   59.9560   44.6540 S.3   600  COA600     -0.0802
@<TRIPOS>BOND
     1    19    16    2
     2    18    16    1
     3    17    16    1
     4    16    15    1
     5    15    14    1
     6    14    20    1
     7    14    12    1
     8    13    12    1
     9    20    22    1
    10    20    21    1
    11    12    11    1
    12    22    23    1
    13    11    21    1
    14    11    10    1
    15    25    24    2
    16    23    24    1
    17    26    24    1
    18    24    27    1
    19    10     4    1
    20    10     9    1
    21     3     4    2
    22     3     2    1
    23     4     5    1
    24     9     8    1
    25     2     1    1
    26    27    28    1
    27     5     8    2
    28     5     6    1
    29     1     6    2
    30    28    29    2
    31    28    30    1
    32    28    31    1
    33     6     7    1
    34    31    33    1
    35    33    32    1
    36    34    32    1
    37    32    35    1
    38    32    36    1
    39    37    36    1
    40    36    38    1
    41    39    38    2
    42    38    40   am
    43    46    47    1
    44    46    45    1
    45    47    48    1
    46    44    43    2
    47    45    43   am
    48    40    41    1
    49    43    42    1
    50    42    41    1
