@<TRIPOS>MOLECULE
1s61_HEC_A_1.pdb
 43 50 0 0 0
SMALL
GASTEIGER

@<TRIPOS>ATOM
      1 FE          5.1890   11.6140   62.3890 Fe    144  HEC144      0.0000
      2  CHA        5.8900    9.4060   64.8280 C.2   144  HEC144      0.0000
      3  CHB        7.2190    9.9530   60.2790 C.2   144  HEC144      0.0000
      4  CHC        4.2570   13.7850   59.8960 C.2   144  HEC144      0.0000
      5  CHD        3.5900   13.6800   64.6610 C.2   144  HEC144      0.0000
      6  NA         6.3000    9.9590   62.5070 N.ar  144  HEC144      0.0000
      7  C1A        6.5600    9.2460   63.6480 C.ar  144  HEC144      0.0000
      8  C2A        7.5910    8.2680   63.3840 C.ar  144  HEC144      0.0000
      9  C3A        7.9500    8.4230   62.1230 C.ar  144  HEC144      0.0000
     10  C4A        7.1550    9.4770   61.5520 C.ar  144  HEC144      0.0000
     11  CMA        9.0040    7.5930   61.3940 C.3   144  HEC144      0.0000
     12  CAA        8.1710    7.2440   64.3770 C.3   144  HEC144      0.0000
     13  CBA        7.3530    5.9670   64.3200 C.3   144  HEC144      0.0000
     14  CGA        7.7800    5.0160   65.4000 C.2   144  HEC144      0.0000
     15  O1A        8.0170    3.8120   65.1080 O.co2 144  HEC144      0.0000
     16  O2A        7.8750    5.4430   66.5760 O.co2 144  HEC144      0.0000
     17  NB         5.6800   11.8560   60.5100 N.2   144  HEC144      0.0000
     18  C1B        6.5110   11.0280   59.7910 C.2   144  HEC144      0.0000
     19  C2B        6.5240   11.4660   58.4160 C.2   144  HEC144      0.0000
     20  C3B        5.7190   12.5330   58.3200 C.2   144  HEC144      0.0000
     21  C4B        5.1610   12.7890   59.6190 C.2   144  HEC144      0.0000
     22  CMB        7.3580   10.8230   57.2810 C.3   144  HEC144      0.0000
     23  CAB        5.4150   13.3480   57.0520 C.2   144  HEC144      0.0000
     24  CBB        4.5630   12.7960   56.1880 C.2   144  HEC144      0.0000
     25  NC         4.1510   13.3900   62.2700 N.ar  144  HEC144      0.0000
     26  C1C        3.8340   14.0920   61.1440 C.ar  144  HEC144      0.0000
     27  C2C        3.0280   15.2170   61.5010 C.ar  144  HEC144      0.0000
     28  C3C        2.8660   15.1860   62.8220 C.ar  144  HEC144      0.0000
     29  C4C        3.5570   14.0360   63.3340 C.ar  144  HEC144      0.0000
     30  CMC        2.4770   16.2440   60.4820 C.3   144  HEC144      0.0000
     31  CAC        2.0930   16.1440   63.7470 C.2   144  HEC144      0.0000
     32  CBC        1.9170   17.4130   63.4010 C.2   144  HEC144      0.0000
     33  ND         4.7660   11.5520   64.3930 N.2   144  HEC144      0.0000
     34  C1D        4.1260   12.5200   65.1690 C.2   144  HEC144      0.0000
     35  C2D        4.1500   12.1080   66.5700 C.2   144  HEC144      0.0000
     36  C3D        4.8600   10.7620   66.5680 C.2   144  HEC144      0.0000
     37  C4D        5.2070   10.5230   65.2020 C.2   144  HEC144      0.0000
     38  CMD        3.5920   12.8110   67.8140 C.3   144  HEC144      0.0000
     39  CAD        5.2580    9.8050   67.6990 C.3   144  HEC144      0.0000
     40  CBD        4.2770    9.6460   68.8020 C.3   144  HEC144      0.0000
     41  CGD        5.1380    9.1080   69.9120 C.2   144  HEC144      0.0000
     42  O1D        5.5050    7.9110   69.8320 O.co2 144  HEC144      0.0000
     43  O2D        5.4640    9.8730   70.8430 O.co2 144  HEC144      0.0000
@<TRIPOS>BOND
     1    24    23    2
     2    23    20    1
     3    22    19    1
     4    20    19    2
     5    20    21    1
     6    19    18    1
     7    21     4    2
     8    21    17    1
     9    18     3    1
    10    18    17    2
    11     4    26    1
    12     3    10    2
    13    30    27    1
    14    17     1    1
    15    26    27   ar
    16    26    25   ar
    17    11     9    1
    18    27    28   ar
    19    10     9   ar
    20    10     6   ar
    21     9     8   ar
    22    25     1    1
    23    25    29   ar
    24     1     6    1
    25     1    33    1
    26     6     7   ar
    27    28    29   ar
    28    28    31    1
    29    29     5    1
    30     8     7   ar
    31     8    12    1
    32    32    31    2
    33     7     2    2
    34    13    12    1
    35    13    14    1
    36    33    34    1
    37    33    37    2
    38     5    34    2
    39     2    37    1
    40    15    14   ar
    41    34    35    1
    42    37    36    1
    43    14    16   ar
    44    36    35    2
    45    36    39    1
    46    35    38    1
    47    39    40    1
    48    40    41    1
    49    42    41   ar
    50    41    43   ar
