@<TRIPOS>MOLECULE
1s61_HEM_B_1.pdb
 43 50 0 0 0
SMALL
GASTEIGER

@<TRIPOS>ATOM
      1 FE         12.3040   41.0480   61.9420 Fe    144  HEM144      0.0000
      2  CHA       13.0040   38.2320   63.8920 C.2   144  HEM144      0.0000
      3  CHB       14.1110   39.7000   59.4390 C.2   144  HEM144      0.0000
      4  CHC       11.3780   43.6060   59.9530 C.2   144  HEM144      0.0000
      5  CHD       10.9170   42.6280   64.6700 C.2   144  HEM144      0.0000
      6  NA        13.2900   39.2490   61.7230 N.ar  144  HEM144      0.0000
      7  C1A       13.6140   38.2980   62.6620 C.ar  144  HEM144      0.0000
      8  C2A       14.6710   37.4490   62.1290 C.ar  144  HEM144      0.0000
      9  C3A       14.9380   37.8950   60.9060 C.ar  144  HEM144      0.0000
     10  C4A       14.1000   39.0220   60.6330 C.ar  144  HEM144      0.0000
     11  CMA       15.9730   37.3280   59.9220 C.3   144  HEM144      0.0000
     12  CAA       15.3600   36.2210   62.7730 C.3   144  HEM144      0.0000
     13  CBA       14.5760   34.9730   62.3330 C.3   144  HEM144      0.0000
     14  CGA       14.9250   33.6970   63.0660 C.2   144  HEM144      0.0000
     15  O1A       15.0270   32.6410   62.4150 O.co2 144  HEM144      0.0000
     16  O2A       15.0790   33.6760   64.2930 O.co2 144  HEM144      0.0000
     17  NB        12.6830   41.5400   60.0820 N.2   144  HEM144      0.0000
     18  C1B       13.4540   40.8470   59.1690 C.2   144  HEM144      0.0000
     19  C2B       13.4630   41.5410   57.9170 C.2   144  HEM144      0.0000
     20  C3B       12.7080   42.6390   58.0700 C.2   144  HEM144      0.0000
     21  C4B       12.2090   42.6550   59.4190 C.2   144  HEM144      0.0000
     22  CMB       14.2430   41.0730   56.6630 C.3   144  HEM144      0.0000
     23  CAB       12.3820   43.7280   57.0280 C.2   144  HEM144      0.0000
     24  CBB       11.5820   43.3920   56.0120 C.2   144  HEM144      0.0000
     25  NC        11.3780   42.7840   62.2550 N.ar  144  HEM144      0.0000
     26  C1C       11.0140   43.6660   61.2600 C.ar  144  HEM144      0.0000
     27  C2C       10.1830   44.7040   61.8370 C.ar  144  HEM144      0.0000
     28  C3C       10.0680   44.4650   63.1350 C.ar  144  HEM144      0.0000
     29  C4C       10.7950   43.2370   63.4350 C.ar  144  HEM144      0.0000
     30  CMC        9.5870   45.8810   61.0420 C.3   144  HEM144      0.0000
     31  CAC        9.2610   45.3180   64.1260 C.2   144  HEM144      0.0000
     32  CBC        9.7930   45.4820   65.3180 C.2   144  HEM144      0.0000
     33  ND        12.0170   40.5420   63.9490 N.2   144  HEM144      0.0000
     34  C1D       11.3910   41.3610   64.9130 C.2   144  HEM144      0.0000
     35  C2D       11.3080   40.6300   66.1550 C.2   144  HEM144      0.0000
     36  C3D       11.9590   39.2910   65.8720 C.2   144  HEM144      0.0000
     37  C4D       12.3670   39.3000   64.5020 C.2   144  HEM144      0.0000
     38  CMD       10.7250   40.9900   67.5360 C.3   144  HEM144      0.0000
     39  CAD       12.1120   38.1380   66.8540 C.3   144  HEM144      0.0000
     40  CBD       13.3570   38.3070   67.6850 C.3   144  HEM144      0.0000
     41  CGD       13.3370   37.1590   68.6630 C.2   144  HEM144      0.0000
     42  O1D       13.7520   36.0450   68.2430 O.co2 144  HEM144      0.0000
     43  O2D       12.8970   37.3720   69.8290 O.co2 144  HEM144      0.0000
@<TRIPOS>BOND
     1    24    23    2
     2    22    19    1
     3    23    20    1
     4    19    20    2
     5    19    18    1
     6    20    21    1
     7    18     3    1
     8    18    17    2
     9    21     4    2
    10    21    17    1
    11     3    10    2
    12    11     9    1
    13     4    26    1
    14    17     1    1
    15    10     9   ar
    16    10     6   ar
    17     9     8   ar
    18    30    27    1
    19    26    27   ar
    20    26    25   ar
    21     6     1    1
    22     6     7   ar
    23    27    28   ar
    24     1    25    1
    25     1    33    1
    26     8     7   ar
    27     8    12    1
    28    25    29   ar
    29    13    12    1
    30    13    14    1
    31    15    14   ar
    32     7     2    2
    33    14    16   ar
    34    28    29   ar
    35    28    31    1
    36    29     5    1
    37     2    37    1
    38    33    37    2
    39    33    34    1
    40    31    32    2
    41    37    36    1
    42     5    34    2
    43    34    35    1
    44    36    35    2
    45    36    39    1
    46    35    38    1
    47    39    40    1
    48    40    41    1
    49    42    41   ar
    50    41    43   ar
