@<TRIPOS>MOLECULE
1s63_FPP_B_1.pdb
 24 23 0 0 0
SMALL
GASTEIGER

@<TRIPOS>ATOM
      1  C1        24.3840  130.6190   -1.0840 C.3   3011  FPP3011     0.1747
      2  O1        24.0370  131.8740   -0.4850 O.3   3011  FPP3011    -0.3089
      3  C2        23.1580  129.9280   -1.6530 C.2   3011  FPP3011    -0.0024
      4  C3        22.8070  129.9550   -2.9660 C.2   3011  FPP3011    -0.0454
      5  C4        23.6190  130.6850   -4.0190 C.3   3011  FPP3011     0.0261
      6  C5        21.5820  129.2580   -3.5280 C.3   3011  FPP3011     0.0264
      7  C6        20.5550  128.7720   -2.4840 C.3   3011  FPP3011     0.0297
      8  C7        19.3180  128.1950   -3.1280 C.2   3011  FPP3011    -0.0342
      9  C8        18.1430  128.0170   -2.4860 C.2   3011  FPP3011    -0.0478
     10  C10       17.9220  128.3750   -1.0410 C.3   3011  FPP3011     0.0260
     11  C9        16.9240  127.4360   -3.1500 C.3   3011  FPP3011     0.0263
     12  C11       16.2220  128.3160   -4.1550 C.3   3011  FPP3011     0.0297
     13  C12       15.0300  127.5940   -4.7390 C.2   3011  FPP3011    -0.0342
     14  C13       14.2220  128.1080   -5.6710 C.2   3011  FPP3011    -0.0478
     15  C14       14.4090  129.4790   -6.2600 C.3   3011  FPP3011     0.0260
     16  C15       13.0510  127.3510   -6.2200 C.3   3011  FPP3011     0.0260
     17  PA        24.7740  132.2800    0.8700 P.3   3011  FPP3011     0.2233
     18  O1A       26.2560  132.1960    0.7920 O.2   3011  FPP3011    -0.5169
     19  O2A       24.2880  133.6970    1.1670 O.3   3011  FPP3011    -0.4370
     20  O3A       24.1910  131.3470    2.0220 O.3   3011  FPP3011    -0.2261
     21  PB        24.9050  130.2690    2.9500 P.3   3011  FPP3011     0.5373
     22  O1B       26.0190  130.8520    3.7550 O.3   3011  FPP3011    -0.1143
     23  O2B       25.3920  129.1560    2.0040 O.2   3011  FPP3011    -0.2221
     24  O3B       23.7620  129.7180    3.8230 O.3   3011  FPP3011    -0.1143
@<TRIPOS>BOND
     1    15    14    1
     2    16    14    1
     3    14    13    2
     4    13    12    1
     5    12    11    1
     6     5     4    1
     7     6     4    1
     8     6     7    1
     9    11     9    1
    10     8     9    2
    11     8     7    1
    12     4     3    2
    13     9    10    1
    14     3     1    1
    15     1     2    1
    16     2    17    1
    17    18    17    2
    18    17    19    1
    19    17    20    1
    20    23    21    2
    21    20    21    1
    22    21    22    1
    23    21    24    1
