@<TRIPOS>MOLECULE
1s63_778_B_1.pdb
 29 32 0 0 0
SMALL
GASTEIGER

@<TRIPOS>ATOM
      1  N1        18.5610  135.2050   -0.0600 N.3   3012  7783012    -0.2584
      2  C2        17.2650  135.6440    0.4650 C.3   3012  7783012     0.0949
      3  C3        19.7520  135.2070    0.7900 C.3   3012  7783012     0.1187
      4  C4        18.9500  135.8920   -1.2990 C.3   3012  7783012     0.1593
      5  C5        16.3280  135.0430   -0.5960 C.3   3012  7783012     0.1155
      6  C7        19.5950  134.1260    1.8570 C.ar  3012  7783012     0.0741
      7  C8        17.8720  135.6640   -2.4020 C.2   3012  7783012     0.2457
      8  N9        16.5930  135.2440   -2.0230 N.am  3012  7783012    -0.2560
      9  N11       20.1020  132.8670    1.7040 N.ar  3012  7783012    -0.3070
     10  C12       18.9610  134.2450    3.0400 C.ar  3012  7783012     0.1147
     11  O13       18.1540  135.8470   -3.5710 O.2   3012  7783012    -0.2730
     12  C14       15.5650  135.0040   -2.9070 C.ar  3012  7783012     0.0547
     13  C16       20.8650  132.3200    0.5570 C.3   3012  7783012     0.1340
     14  C17       19.8100  132.1530    2.7740 C.ar  3012  7783012     0.1786
     15  N18       19.0960  132.9550    3.6550 N.ar  3012  7783012    -0.2226
     16  C20       15.0300  133.7270   -2.8320 C.ar  3012  7783012     0.0263
     17  C21       15.0300  135.9470   -3.8520 C.ar  3012  7783012     0.0150
     18  C25       20.0510  132.2060   -0.7400 C.ar  3012  7783012     0.0005
     19  C26       13.9770  133.3250   -3.6540 C.ar  3012  7783012     0.0589
     20  C27       13.9670  135.5450   -4.6930 C.ar  3012  7783012     0.0021
     21  C28       20.6160  132.5930   -1.9770 C.ar  3012  7783012    -0.0017
     22  C29       18.7370  131.7180   -0.7350 C.ar  3012  7783012    -0.0017
     23  C30       13.4400  134.2320   -4.5910 C.ar  3012  7783012     0.0115
     24 CL31       13.3840  131.7160   -3.4630 Cl    3012  7783012    -0.0822
     25  C32       19.8810  132.4840   -3.1800 C.ar  3012  7783012     0.0100
     26  C33       18.0080  131.6100   -1.9240 C.ar  3012  7783012     0.0100
     27  C34       18.5870  131.9950   -3.1560 C.ar  3012  7783012     0.0684
     28  C35       17.8950  131.8790   -4.2840 C.1   3012  7783012     0.1004
     29  N36       17.2860  131.7730   -5.2800 N.1   3012  7783012    -0.1908
@<TRIPOS>BOND
     1    29    28    3
     2    20    23   ar
     3    20    17   ar
     4    23    19   ar
     5    28    27    1
     6    17    12   ar
     7    19    24    1
     8    19    16   ar
     9    11     7    2
    10    25    27   ar
    11    25    21   ar
    12    27    26   ar
    13    12    16   ar
    14    12     8    1
    15     7     8   am
    16     7     4    1
    17     8     5    1
    18    21    18   ar
    19    26    22   ar
    20     4     1    1
    21    18    22   ar
    22    18    13    1
    23     5     2    1
    24     1     2    1
    25     1     3    1
    26    13     9    1
    27     3     6    1
    28     9     6   ar
    29     9    14   ar
    30     6    10   ar
    31    14    15   ar
    32    10    15   ar
