@<TRIPOS>MOLECULE
1s64_778_B_1.pdb
 29 32 0 0 0
SMALL
GASTEIGER

@<TRIPOS>ATOM
      1  N1        29.9290   90.2660   63.5610 N.3   380  778380     -0.2584
      2  C2        30.3220   89.3280   64.6290 C.3   380  778380      0.0949
      3  C3        28.5150   90.5410   63.3000 C.3   380  778380      0.1187
      4  C4        30.4760   89.9420   62.2280 C.3   380  778380      0.1593
      5  C5        31.8420   89.5790   64.7200 C.3   380  778380      0.1155
      6  C7        27.7940   91.1470   64.5070 C.ar  380  778380      0.0741
      7  C8        32.0220   89.6180   62.2620 C.2   380  778380      0.2457
      8  N9        32.6800   89.4250   63.5250 N.am  380  778380     -0.2560
      9  N11       27.8360   92.5000   64.8060 N.ar  380  778380     -0.3070
     10  C12       27.0460   90.4840   65.4150 C.ar  380  778380      0.1147
     11  O13       32.6120   89.4690   61.1980 O.2   380  778380     -0.2730
     12  C14       34.0680   89.1790   63.7160 C.ar  380  778380      0.0547
     13  C16       28.5530   93.6010   64.0680 C.3   380  778380      0.1340
     14  C17       27.1110   92.7200   65.9090 C.ar  380  778380      0.1786
     15  N18       26.5880   91.5040   66.3440 N.ar  380  778380     -0.2226
     16  C20       34.7000   88.2070   62.8640 C.ar  380  778380      0.0263
     17  C21       34.8790   89.8470   64.7210 C.ar  380  778380      0.0150
     18  C25       30.1000   93.5400   64.2140 C.ar  380  778380      0.0005
     19  C26       36.0850   87.8990   62.9940 C.ar  380  778380      0.0589
     20  C27       36.2720   89.5330   64.8480 C.ar  380  778380      0.0021
     21  C28       30.9490   93.6930   63.0610 C.ar  380  778380     -0.0017
     22  C29       30.7260   93.3230   65.4900 C.ar  380  778380     -0.0017
     23  C30       36.8700   88.5630   63.9890 C.ar  380  778380      0.0115
     24 CL31       36.7750   86.7320   61.9500 Cl    380  778380     -0.0822
     25  C32       32.3790   93.6320   63.1810 C.ar  380  778380      0.0100
     26  C33       32.1440   93.2620   65.6140 C.ar  380  778380      0.0100
     27  C34       32.9740   93.4180   64.4470 C.ar  380  778380      0.0684
     28  C35       34.2820   93.3640   64.5530 C.1   380  778380      0.1004
     29  N36       35.4410   93.3150   64.6460 N.1   380  778380     -0.1908
@<TRIPOS>BOND
     1    11     7    2
     2    24    19    1
     3     4     7    1
     4     4     1    1
     5     7     8   am
     6    16    19   ar
     7    16    12   ar
     8    19    23   ar
     9    21    25   ar
    10    21    18   ar
    11    25    27   ar
    12     3     1    1
    13     3     6    1
    14     8    12    1
    15     8     5    1
    16     1     2    1
    17    12    17   ar
    18    23    20   ar
    19    13    18    1
    20    13     9    1
    21    18    22   ar
    22    27    28    1
    23    27    26   ar
    24     6     9   ar
    25     6    10   ar
    26    28    29    3
    27     2     5    1
    28    17    20   ar
    29     9    14   ar
    30    10    15   ar
    31    22    26   ar
    32    14    15   ar
