@<TRIPOS>MOLECULE
1s66_HEM_L_1.pdb
 43 50 0 0 0
SMALL
GASTEIGER

@<TRIPOS>ATOM
      1 FE         41.1670   39.0590   33.9460 Fe    1135  HEM1135     0.0000
      2  CHA       44.3330   40.3240   34.3880 C.2   1135  HEM1135     0.0000
      3  CHB       40.6000   41.3750   31.4500 C.2   1135  HEM1135     0.0000
      4  CHC       37.9150   37.9370   33.6000 C.2   1135  HEM1135     0.0000
      5  CHD       41.7810   36.5450   36.1960 C.2   1135  HEM1135     0.0000
      6  NA        42.2600   40.5740   33.0810 N.ar  1135  HEM1135     0.0000
      7  C1A       43.5570   40.9160   33.4130 C.ar  1135  HEM1135     0.0000
      8  C2A       43.9600   42.0160   32.5580 C.ar  1135  HEM1135     0.0000
      9  C3A       42.9370   42.3090   31.7480 C.ar  1135  HEM1135     0.0000
     10  C4A       41.8410   41.4070   32.0580 C.ar  1135  HEM1135     0.0000
     11  CMA       42.9330   43.4180   30.6700 C.3   1135  HEM1135     0.0000
     12  CAA       45.3400   42.7190   32.5860 C.3   1135  HEM1135     0.0000
     13  CBA       45.5060   43.5260   33.8730 C.3   1135  HEM1135     0.0000
     14  CGA       44.9130   44.9020   33.7100 C.2   1135  HEM1135     0.0000
     15  O1A       45.6780   45.9000   33.7530 O.co2 1135  HEM1135     0.0000
     16  O2A       43.6720   45.0010   33.5400 O.co2 1135  HEM1135     0.0000
     17  NB        39.5440   39.5900   32.7760 N.2   1135  HEM1135     0.0000
     18  C1B       39.5590   40.5190   31.7520 C.2   1135  HEM1135     0.0000
     19  C2B       38.2880   40.4380   31.0560 C.2   1135  HEM1135     0.0000
     20  C3B       37.5510   39.4930   31.6500 C.2   1135  HEM1135     0.0000
     21  C4B       38.3240   38.9380   32.7430 C.2   1135  HEM1135     0.0000
     22  CMB       37.8680   41.3000   29.8430 C.3   1135  HEM1135     0.0000
     23  CAB       36.1250   39.0530   31.2520 C.2   1135  HEM1135     0.0000
     24  CBB       35.1270   39.9410   31.2490 C.2   1135  HEM1135     0.0000
     25  NC        40.0670   37.4870   34.7010 N.ar  1135  HEM1135     0.0000
     26  C1C       38.7100   37.2870   34.5220 C.ar  1135  HEM1135     0.0000
     27  C2C       38.2780   36.2760   35.4670 C.ar  1135  HEM1135     0.0000
     28  C3C       39.3470   35.8980   36.1810 C.ar  1135  HEM1135     0.0000
     29  C4C       40.4920   36.6500   35.7130 C.ar  1135  HEM1135     0.0000
     30  CMC       36.8290   35.7520   35.6070 C.3   1135  HEM1135     0.0000
     31  CAC       39.4020   34.8430   37.3080 C.2   1135  HEM1135     0.0000
     32  CBC       38.4540   34.7880   38.2440 C.2   1135  HEM1135     0.0000
     33  ND        42.8110   38.5110   35.1060 N.2   1135  HEM1135     0.0000
     34  C1D       42.8150   37.4350   35.9910 C.2   1135  HEM1135     0.0000
     35  C2D       44.0930   37.3980   36.6680 C.2   1135  HEM1135     0.0000
     36  C3D       44.8900   38.5810   36.1030 C.2   1135  HEM1135     0.0000
     37  C4D       44.0140   39.2120   35.1400 C.2   1135  HEM1135     0.0000
     38  CMD       44.5560   36.3860   37.7380 C.3   1135  HEM1135     0.0000
     39  CAD       46.3260   39.0100   36.4810 C.3   1135  HEM1135     0.0000
     40  CBD       46.2770   40.2800   37.3290 C.3   1135  HEM1135     0.0000
     41  CGD       47.5370   41.0820   37.1270 C.2   1135  HEM1135     0.0000
     42  O1D       47.4710   42.1480   36.4630 O.co2 1135  HEM1135     0.0000
     43  O2D       48.6080   40.6550   37.6310 O.co2 1135  HEM1135     0.0000
@<TRIPOS>BOND
     1    22    19    1
     2    11     9    1
     3    19    20    2
     4    19    18    1
     5    24    23    2
     6    23    20    1
     7     3    18    1
     8     3    10    2
     9    20    21    1
    10     9    10   ar
    11     9     8   ar
    12    18    17    2
    13    10     6   ar
    14     8    12    1
    15     8     7   ar
    16    12    13    1
    17    21    17    1
    18    21     4    2
    19    17     1    1
    20     6     7   ar
    21     6     1    1
    22     7     2    2
    23    16    14   ar
    24     4    26    1
    25    14    15   ar
    26    14    13    1
    27     1    25    1
    28     1    33    1
    29     2    37    1
    30    26    25   ar
    31    26    27   ar
    32    25    29   ar
    33    33    37    2
    34    33    34    1
    35    37    36    1
    36    27    30    1
    37    27    28   ar
    38    29    28   ar
    39    29     5    1
    40    34     5    2
    41    34    35    1
    42    36    39    1
    43    36    35    2
    44    28    31    1
    45    42    41   ar
    46    39    40    1
    47    35    38    1
    48    41    40    1
    49    41    43   ar
    50    31    32    2
