@<TRIPOS>MOLECULE
1s67_HEM_L_1.pdb
 43 50 0 0 0
SMALL
GASTEIGER

@<TRIPOS>ATOM
      1 FE         41.6920   38.4700   33.7060 Fe    1135  HEM1135     0.0000
      2  CHA       44.8050   39.8350   34.2820 C.2   1135  HEM1135     0.0000
      3  CHB       41.0600   40.9340   31.3770 C.2   1135  HEM1135     0.0000
      4  CHC       38.3760   37.4750   33.4890 C.2   1135  HEM1135     0.0000
      5  CHD       42.2190   36.0980   36.1240 C.2   1135  HEM1135     0.0000
      6  NA        42.7310   40.0910   32.9740 N.ar  1135  HEM1135     0.0000
      7  C1A       44.0150   40.4550   33.3370 C.ar  1135  HEM1135     0.0000
      8  C2A       44.3860   41.6130   32.5510 C.ar  1135  HEM1135     0.0000
      9  C3A       43.3630   41.9200   31.7480 C.ar  1135  HEM1135     0.0000
     10  C4A       42.2930   40.9700   31.9980 C.ar  1135  HEM1135     0.0000
     11  CMA       43.3370   43.0880   30.7380 C.3   1135  HEM1135     0.0000
     12  CAA       45.7420   42.3540   32.6290 C.3   1135  HEM1135     0.0000
     13  CBA       45.7770   43.2790   33.8490 C.3   1135  HEM1135     0.0000
     14  CGA       45.5630   44.7270   33.4730 C.2   1135  HEM1135     0.0000
     15  O1A       46.0440   45.1680   32.4000 O.co2 1135  HEM1135     0.0000
     16  O2A       44.9080   45.4620   34.2600 O.co2 1135  HEM1135     0.0000
     17  NB        40.0070   39.1330   32.6810 N.2   1135  HEM1135     0.0000
     18  C1B       40.0200   40.0750   31.6680 C.2   1135  HEM1135     0.0000
     19  C2B       38.7480   40.0040   30.9740 C.2   1135  HEM1135     0.0000
     20  C3B       38.0120   39.0530   31.5580 C.2   1135  HEM1135     0.0000
     21  C4B       38.7860   38.4850   32.6430 C.2   1135  HEM1135     0.0000
     22  CMB       38.3300   40.8810   29.7700 C.3   1135  HEM1135     0.0000
     23  CAB       36.5850   38.6180   31.1590 C.2   1135  HEM1135     0.0000
     24  CBB       35.5960   39.5160   31.1480 C.2   1135  HEM1135     0.0000
     25  NC        40.5190   37.0260   34.6050 N.ar  1135  HEM1135     0.0000
     26  C1C       39.1610   36.8380   34.4280 C.ar  1135  HEM1135     0.0000
     27  C2C       38.7140   35.8570   35.3970 C.ar  1135  HEM1135     0.0000
     28  C3C       39.7760   35.4810   36.1220 C.ar  1135  HEM1135     0.0000
     29  C4C       40.9320   36.2080   35.6390 C.ar  1135  HEM1135     0.0000
     30  CMC       37.2600   35.3520   35.5470 C.3   1135  HEM1135     0.0000
     31  CAC       39.8150   34.4530   37.2740 C.2   1135  HEM1135     0.0000
     32  CBC       38.8330   34.3940   38.1740 C.2   1135  HEM1135     0.0000
     33  ND        43.2730   38.0310   35.0010 N.2   1135  HEM1135     0.0000
     34  C1D       43.2520   36.9910   35.9280 C.2   1135  HEM1135     0.0000
     35  C2D       44.5020   36.9930   36.6560 C.2   1135  HEM1135     0.0000
     36  C3D       45.3100   38.1630   36.0810 C.2   1135  HEM1135     0.0000
     37  C4D       44.4670   38.7470   35.0600 C.2   1135  HEM1135     0.0000
     38  CMD       44.9310   36.0270   37.7810 C.3   1135  HEM1135     0.0000
     39  CAD       46.7250   38.6190   36.5010 C.3   1135  HEM1135     0.0000
     40  CBD       46.6300   39.9030   37.3240 C.3   1135  HEM1135     0.0000
     41  CGD       47.9230   40.6700   37.2260 C.2   1135  HEM1135     0.0000
     42  O1D       47.9840   41.6440   36.4320 O.co2 1135  HEM1135     0.0000
     43  O2D       48.8930   40.3090   37.9410 O.co2 1135  HEM1135     0.0000
@<TRIPOS>BOND
     1    22    19    1
     2    11     9    1
     3    19    20    2
     4    19    18    1
     5    24    23    2
     6    23    20    1
     7     3    18    1
     8     3    10    2
     9    20    21    1
    10    18    17    2
    11     9    10   ar
    12     9     8   ar
    13    10     6   ar
    14    15    14   ar
    15     8    12    1
    16     8     7   ar
    17    12    13    1
    18    21    17    1
    19    21     4    2
    20    17     1    1
    21     6     7   ar
    22     6     1    1
    23     7     2    2
    24    14    13    1
    25    14    16   ar
    26     4    26    1
    27     1    25    1
    28     1    33    1
    29     2    37    1
    30    26    25   ar
    31    26    27   ar
    32    25    29   ar
    33    33    37    2
    34    33    34    1
    35    37    36    1
    36    27    30    1
    37    27    28   ar
    38    29    28   ar
    39    29     5    1
    40    34     5    2
    41    34    35    1
    42    36    39    1
    43    36    35    2
    44    28    31    1
    45    42    41   ar
    46    39    40    1
    47    35    38    1
    48    41    40    1
    49    41    43   ar
    50    31    32    2
