@<TRIPOS>MOLECULE
1s69_HEM_A_1.pdb
 43 50 0 0 0
SMALL
GASTEIGER

@<TRIPOS>ATOM
      1  CHA        4.6310   19.4380    2.3220 C.2   125  HEM125      0.0000
      2  CHB        3.2780   24.1020    2.8790 C.2   125  HEM125      0.0000
      3  CHC        5.6660   25.2340   -1.1880 C.2   125  HEM125      0.0000
      4  CHD        5.6050   20.4910   -2.3080 C.2   125  HEM125      0.0000
      5  C1A        4.1150   20.6300    2.8500 C.2   125  HEM125      0.0000
      6  C2A        3.4260   20.7580    4.1200 C.2   125  HEM125      0.0000
      7  C3A        3.0250   22.0170    4.2570 C.2   125  HEM125      0.0000
      8  C4A        3.4410   22.7520    3.1000 C.2   125  HEM125      0.0000
      9  CMA        2.2140   22.5830    5.4580 C.3   125  HEM125      0.0000
     10  CAA        3.1970   19.5600    5.0740 C.3   125  HEM125      0.0000
     11  CBA        4.2480   19.7570    6.1810 C.3   125  HEM125      0.0000
     12  CGA        4.1410   18.8630    7.4100 C.2   125  HEM125      0.0000
     13  O1A        4.5790   17.7350    7.2210 O.co2 125  HEM125      0.0000
     14  O2A        3.6790   19.2540    8.5550 O.co2 125  HEM125      0.0000
     15  C1B        3.8620   24.7950    1.8390 C.ar  125  HEM125      0.0000
     16  C2B        3.7560   26.2050    1.6900 C.ar  125  HEM125      0.0000
     17  C3B        4.4480   26.5550    0.5690 C.ar  125  HEM125      0.0000
     18  C4B        4.9540   25.3230   -0.0120 C.ar  125  HEM125      0.0000
     19  CMB        2.9990   27.1280    2.7080 C.3   125  HEM125      0.0000
     20  CAB        4.6560   27.9460   -0.1590 C.2   125  HEM125      0.0000
     21  CBB        3.6780   28.8780   -0.3920 C.2   125  HEM125      0.0000
     22  C1C        5.8560   24.0180   -1.8570 C.2   125  HEM125      0.0000
     23  C2C        6.3600   23.8950   -3.2030 C.2   125  HEM125      0.0000
     24  C3C        6.2920   22.5770   -3.4990 C.2   125  HEM125      0.0000
     25  C4C        5.7630   21.8500   -2.3750 C.2   125  HEM125      0.0000
     26  CMC        6.8580   25.1350   -4.0400 C.3   125  HEM125      0.0000
     27  CAC        6.6550   21.8010   -4.7800 C.2   125  HEM125      0.0000
     28  CBC        6.1930   22.2370   -5.9430 C.2   125  HEM125      0.0000
     29  C1D        5.3600   19.7750   -1.1760 C.ar  125  HEM125      0.0000
     30  C2D        5.4070   18.3550   -1.0840 C.ar  125  HEM125      0.0000
     31  C3D        5.1340   18.0680    0.3550 C.ar  125  HEM125      0.0000
     32  C4D        4.9560   19.3080    1.0090 C.ar  125  HEM125      0.0000
     33  CMD        5.6750   17.3280   -2.1850 C.3   125  HEM125      0.0000
     34  CAD        5.0360   16.7160    1.0320 C.3   125  HEM125      0.0000
     35  CBD        6.5210   16.4420    1.2820 C.3   125  HEM125      0.0000
     36  CGD        6.7310   14.9770    1.5000 C.2   125  HEM125      0.0000
     37  O1D        6.5600   14.5340    2.6260 O.co2 125  HEM125      0.0000
     38  O2D        7.0790   14.2450    0.5660 O.co2 125  HEM125      0.0000
     39  NA         4.0640   21.8610    2.2550 N.2   125  HEM125      0.0000
     40  NB         4.5860   24.2550    0.7680 N.ar  125  HEM125      0.0000
     41  NC         5.5150   22.7620   -1.4010 N.2   125  HEM125      0.0000
     42  ND         5.1200   20.3200    0.0870 N.ar  125  HEM125      0.0000
     43 FE          4.8220   22.2750    0.4290 Fe    125  HEM125      0.0000
@<TRIPOS>BOND
     1    28    27    2
     2    27    24    1
     3    26    23    1
     4    24    23    2
     5    24    25    1
     6    23    22    1
     7    25     4    1
     8    25    41    2
     9     4    29    2
    10    33    30    1
    11    22    41    1
    12    22     3    2
    13    41    43    1
    14     3    18    1
    15    29    30   ar
    16    29    42   ar
    17    30    31   ar
    18    21    20    2
    19    20    17    1
    20    18    17   ar
    21    18    40   ar
    22    42    43    1
    23    42    32   ar
    24    31    32   ar
    25    31    34    1
    26    43    40    1
    27    43    39    1
    28    38    36   ar
    29    17    16   ar
    30    40    15   ar
    31    32     1    2
    32    34    35    1
    33    35    36    1
    34    36    37   ar
    35    16    15   ar
    36    16    19    1
    37    15     2    1
    38    39     5    2
    39    39     8    1
    40     1     5    1
    41     5     6    1
    42     2     8    2
    43     8     7    1
    44     6     7    2
    45     6    10    1
    46     7     9    1
    47    10    11    1
    48    11    12    1
    49    13    12   ar
    50    12    14   ar
