@<TRIPOS>MOLECULE
1s6a_HEM_A_1.pdb
 43 50 0 0 0
SMALL
GASTEIGER

@<TRIPOS>ATOM
      1  CHA       61.0360   46.4430   -2.4650 C.2   125  HEM125      0.0000
      2  CHB       65.5590   44.7170   -2.7560 C.2   125  HEM125      0.0000
      3  CHC       66.7130   47.5490    1.0070 C.2   125  HEM125      0.0000
      4  CHD       62.0180   47.1140    2.2560 C.2   125  HEM125      0.0000
      5  C1A       62.1870   45.8290   -2.9120 C.ar  125  HEM125      0.0000
      6  C2A       62.3000   45.0770   -4.1340 C.ar  125  HEM125      0.0000
      7  C3A       63.5210   44.5700   -4.2220 C.ar  125  HEM125      0.0000
      8  C4A       64.2560   45.0060   -3.0570 C.ar  125  HEM125      0.0000
      9  CMA       64.0920   43.6790   -5.3510 C.3   125  HEM125      0.0000
     10  CAA       61.1110   44.8980   -5.1060 C.3   125  HEM125      0.0000
     11  CBA       61.3520   45.7970   -6.3280 C.3   125  HEM125      0.0000
     12  CGA       60.3120   45.6650   -7.4460 C.2   125  HEM125      0.0000
     13  O1A       59.1620   46.0770   -7.2390 O.co2 125  HEM125      0.0000
     14  O2A       60.6350   45.1920   -8.5740 O.co2 125  HEM125      0.0000
     15  C1B       66.3000   45.3870   -1.7990 C.2   125  HEM125      0.0000
     16  C2B       67.7380   45.3880   -1.6870 C.2   125  HEM125      0.0000
     17  C3B       68.0720   46.1900   -0.6580 C.2   125  HEM125      0.0000
     18  C4B       66.8450   46.7150   -0.0860 C.2   125  HEM125      0.0000
     19  CMB       68.6610   44.5880   -2.6130 C.3   125  HEM125      0.0000
     20  CAB       69.4810   46.5140   -0.0740 C.3   125  HEM125      0.0000
     21  CBB       70.2010   45.5340    0.5850 C.3   125  HEM125      0.0000
     22  C1C       65.5460   47.6520    1.7830 C.ar  125  HEM125      0.0000
     23  C2C       65.3910   48.1640    3.1090 C.ar  125  HEM125      0.0000
     24  C3C       64.0760   47.9870    3.4620 C.ar  125  HEM125      0.0000
     25  C4C       63.3790   47.4090    2.3590 C.ar  125  HEM125      0.0000
     26  CMC       66.5480   48.7480    3.9490 C.3   125  HEM125      0.0000
     27  CAC       63.3100   48.3370    4.7760 C.2   125  HEM125      0.0000
     28  CBC       63.7430   47.9350    5.9630 C.2   125  HEM125      0.0000
     29  C1D       61.3020   46.9460    1.0940 C.2   125  HEM125      0.0000
     30  C2D       59.8590   47.0100    0.9890 C.2   125  HEM125      0.0000
     31  C3D       59.5480   46.8110   -0.5020 C.2   125  HEM125      0.0000
     32  C4D       60.8190   46.6500   -1.1390 C.2   125  HEM125      0.0000
     33  CMD       58.9570   47.2080    2.2370 C.3   125  HEM125      0.0000
     34  CAD       58.1880   46.7650   -1.2290 C.3   125  HEM125      0.0000
     35  CBD       57.8460   48.2410   -1.3880 C.3   125  HEM125      0.0000
     36  CGD       56.3990   48.3010   -1.7540 C.2   125  HEM125      0.0000
     37  O1D       56.0810   48.1410   -2.9320 O.co2 125  HEM125      0.0000
     38  O2D       55.5330   48.4880   -0.8900 O.co2 125  HEM125      0.0000
     39  NA        63.3970   45.7520   -2.2360 N.ar  125  HEM125      0.0000
     40  NB        65.8080   46.2160   -0.8270 N.2   125  HEM125      0.0000
     41  NC        64.3070   47.2270    1.3860 N.ar  125  HEM125      0.0000
     42  ND        61.8120   46.7720   -0.1880 N.2   125  HEM125      0.0000
     43 FE         63.8130   46.5230   -0.4660 Fe    125  HEM125      0.0000
@<TRIPOS>BOND
     1    14    12   ar
     2    12    13   ar
     3    12    11    1
     4    11    10    1
     5     9     7    1
     6    10     6    1
     7     7     6   ar
     8     7     8   ar
     9     6     5   ar
    10     8     2    2
    11     8    39   ar
    12    37    36   ar
    13     5     1    2
    14     5    39   ar
    15     2    15    1
    16    19    16    1
    17     1    32    1
    18    39    43    1
    19    15    16    1
    20    15    40    2
    21    36    35    1
    22    36    38   ar
    23    16    17    2
    24    35    34    1
    25    34    31    1
    26    32    31    1
    27    32    42    2
    28    40    43    1
    29    40    18    1
    30    17    18    1
    31    17    20    1
    32    31    30    2
    33    43    42    1
    34    43    41    1
    35    42    29    1
    36    18     3    2
    37    20    21    1
    38    30    29    1
    39    30    33    1
    40     3    22    1
    41    29     4    2
    42    41    22   ar
    43    41    25   ar
    44    22    23   ar
    45     4    25    1
    46    25    24   ar
    47    23    24   ar
    48    23    26    1
    49    24    27    1
    50    27    28    2
