@<TRIPOS>MOLECULE
1s6f_SBP_A_1.pdb
 28 28 0 0 0
SMALL
GASTEIGER

@<TRIPOS>ATOM
      1  BD        35.7660   27.1890    7.9390 B     800  SBP800      0.0000
      2  OE1       35.0210   27.0860    9.1640 O.3   800  SBP800      0.0000
      3  OE2       36.9340   26.3060    8.0180 O.3   800  SBP800      0.0000
      4  OE3       35.0470   26.7750    6.7630 O.3   800  SBP800      0.0000
      5  CZ2       37.0580   25.5700    6.7870 C.3   800  SBP800      0.0000
      6  CZ3       35.7310   25.7480    6.0220 C.3   800  SBP800      0.0000
      7  CZ1       34.2230   28.2060    9.5480 C.3   800  SBP800      0.0000
      8  CH        33.5180   27.9060   10.8520 C.3   800  SBP800      0.0000
      9  CQ        32.7830   29.1420   11.3750 C.3   800  SBP800      0.0000
     10  NI        32.1460   28.7910   12.6380 N.pl3 800  SBP800      0.3300
     11  CK        31.3280   29.5860   13.3330 C.cat 800  SBP800      0.0000
     12  NL1       31.0510   30.8120   12.8970 N.pl3 800  SBP800      0.3300
     13  NL2       30.8170   29.1630   14.4930 N.pl3 800  SBP800      0.3300
     14 HZ22       37.2620   24.5190    6.9750 H     800  SBP800      0.0000
     15 HZ23       37.8690   26.0140    6.2080 H     800  SBP800      0.0000
     16 HZ32       35.1850   24.8050    6.0510 H     800  SBP800      0.0000
     17 HZ33       35.9120   26.0480    4.9940 H     800  SBP800      0.0000
     18 HZ12       34.8460   29.0880    9.6960 H     800  SBP800      0.0000
     19 HZ13       33.4850   28.4020    8.7680 H     800  SBP800      0.0000
     20  HH2       34.2610   27.5970   11.5860 H     800  SBP800      0.0000
     21  HH3       32.8320   27.0750   10.6970 H     800  SBP800      0.0000
     22  HQ2       32.0250   29.4440   10.6510 H     800  SBP800      0.0000
     23  HQ3       33.4770   29.9660   11.5470 H     800  SBP800      0.0000
     24  HI        32.3380   27.8670   12.9900 H     800  SBP800      0.0000
     25 HL11       31.3890   31.0970   11.9920 H     800  SBP800      0.0000
     26 HL12       30.5060   31.4470   13.4610 H     800  SBP800      0.0000
     27 HL21       31.0050   28.2330   14.8390 H     800  SBP800      0.0000
     28 HL22       30.3200   29.8270   15.0640 H     800  SBP800      0.0000
@<TRIPOS>BOND
     1    17     6    1
     2     6    16    1
     3     6     4    1
     4     6     5    1
     5    15     5    1
     6     4     1    1
     7     5    14    1
     8     5     3    1
     9     1     3    1
    10     1     2    1
    11    19     7    1
    12     2     7    1
    13     7    18    1
    14     7     8    1
    15    22     9    1
    16    21     8    1
    17     8     9    1
    18     8    20    1
    19     9    23    1
    20     9    10    1
    21    25    12    1
    22    10    24    1
    23    10    11    1
    24    12    11    2
    25    12    26    1
    26    11    13    1
    27    13    27    1
    28    13    28    1
