@<TRIPOS>MOLECULE
1s6f_EDO_A_1.pdb
 10 9 0 0 0
SMALL
GASTEIGER

@<TRIPOS>ATOM
      1  C1        37.6910   27.1840   20.6460 C.3     5  EDO5        0.0673
      2  O1        39.0780   27.0050   20.4710 O.3     5  EDO5       -0.3928
      3  C2        37.3530   27.5360   22.0980 C.3     5  EDO5        0.0673
      4  O2        38.1760   28.5870   22.5730 O.3     5  EDO5       -0.3928
      5  H11       37.3500   27.9780   19.9910 H       5  EDO5        0.0580
      6  H12       37.1870   26.2610   20.3730 H       5  EDO5        0.0580
      7  HO1       39.3550   26.2230   20.9540 H       5  EDO5        0.2095
      8  H21       37.4820   26.6610   22.7380 H       5  EDO5        0.0580
      9  H22       36.3160   27.8550   22.1110 H       5  EDO5        0.0580
     10  HO2       39.0920   28.3020   22.5470 H       5  EDO5        0.2095
@<TRIPOS>BOND
     1     5     1    1
     2     6     1    1
     3     2     1    1
     4     2     7    1
     5     1     3    1
     6     3     9    1
     7     3     4    1
     8     3     8    1
     9    10     4    1
