@<TRIPOS>MOLECULE
1s6h_4BZ_A_1.pdb
 22 22 0 0 0
SMALL
GASTEIGER

@<TRIPOS>ATOM
      1  OA        35.3900   24.0600   11.4920 O.3     1  4BZ1       -0.3904
      2  CB        35.1910   25.3470   11.0290 C.3     1  4BZ1        0.0692
      3  CG        34.2840   26.1760   11.9070 C.ar    1  4BZ1       -0.0221
      4  CD1       33.9980   25.8980   13.2610 C.ar    1  4BZ1       -0.0556
      5  CD2       33.6350   27.2430   11.2900 C.ar    1  4BZ1       -0.0556
      6  CE1       33.0000   26.6110   13.9470 C.ar    1  4BZ1       -0.0467
      7  CE2       32.6590   27.9740   11.9890 C.ar    1  4BZ1       -0.0467
      8  CZ        32.3010   27.6490   13.2980 C.ar    1  4BZ1        0.0608
      9  CH        31.3440   28.3990   13.9810 C.2     1  4BZ1        0.2662
     10  NQ1       30.7230   27.9090   15.0390 N.pl3   1  4BZ1       -0.2497
     11  NQ2       31.0640   29.6380   13.5860 N.2     1  4BZ1       -0.2884
     12  HA        35.8850   23.5780   10.8270 H       1  4BZ1        0.2098
     13  HB2       34.7220   25.2460   10.0520 H       1  4BZ1        0.0607
     14  HB3       36.1560   25.8420   10.9300 H       1  4BZ1        0.0607
     15  HD1       34.4750   25.0750   13.7720 H       1  4BZ1        0.0621
     16  HD2       33.8200   27.4660   10.2510 H       1  4BZ1        0.0621
     17  HE1       32.8030   26.3640   14.9780 H       1  4BZ1        0.0626
     18  HE2       32.1540   28.7630   11.4560 H       1  4BZ1        0.0626
     19 HQ11       30.0580   28.4660   15.5490 H       1  4BZ1        0.2883
     20 HQ12       30.9190   26.9660   15.3330 H       1  4BZ1        0.2883
     21 HQ21       31.5190   30.0010   12.7620 H       1  4BZ1        0.3009
     22 HQ22       30.4610   30.2230   14.1410 H       1  4BZ1        0.3009
@<TRIPOS>BOND
     1    13     2    1
     2    16     5    1
     3    12     1    1
     4    14     2    1
     5     2     1    1
     6     2     3    1
     7     5     3   ar
     8     5     7   ar
     9    18     7    1
    10     3     4   ar
    11     7     8   ar
    12    21    11    1
    13     4    15    1
    14     4     6   ar
    15     8     6   ar
    16     8     9    1
    17    11     9    2
    18    11    22    1
    19     6    17    1
    20     9    10    1
    21    10    20    1
    22    10    19    1
