@<TRIPOS>MOLECULE
1s6p_IET_A_1.pdb
 23 24 0 0 0
SMALL
GASTEIGER

@<TRIPOS>ATOM
      1  C1       145.4400  -22.2430   72.8030 C.ar  701  IET701      0.0114
      2  C7       145.5170  -22.2180   71.2230 C.3   701  IET701      0.1544
      3  C2       144.5310  -21.4600   73.6400 C.ar  701  IET701      0.0551
      4 CL2       143.5170  -20.4890   73.0880 Cl    701  IET701     -0.0825
      5  C3       144.5700  -21.5920   75.0690 C.ar  701  IET701      0.0111
      6  C4       145.4950  -22.4810   75.6920 C.ar  701  IET701      0.0017
      7  C5       146.3660  -23.2380   74.8930 C.ar  701  IET701      0.0111
      8  C6       146.3490  -23.1300   73.4790 C.ar  701  IET701      0.0551
      9 CL6       147.3240  -23.9930   72.7190 Cl    701  IET701     -0.0825
     10  C8       144.5060  -22.6430   70.3740 C.2   701  IET701      0.4006
     11  N1       143.3500  -23.0800   70.9100 N.am  701  IET701      0.0197
     12  C9       142.5320  -23.9040   70.2340 C.2   701  IET701      0.2937
     13  N5       142.2020  -25.1060   70.6650 N.am  701  IET701     -0.1674
     14  S2       141.8510  -23.4130   68.7290 S.2   701  IET701      0.0153
     15  N3       144.6960  -22.6100   69.0330 N.2   701  IET701      0.1926
     16  C11      142.6170  -25.7580   71.8150 C.ar  701  IET701      0.0746
     17  C12      143.9870  -25.8770   72.1290 C.ar  701  IET701      0.0173
     18  C13      144.4200  -26.5910   73.2750 C.ar  701  IET701      0.0116
     19  C14      143.4960  -27.2040   74.1590 C.ar  701  IET701      0.0685
     20  C15      142.0960  -27.0950   73.8920 C.ar  701  IET701      0.0116
     21  C16      141.6550  -26.3650   72.7230 C.ar  701  IET701      0.0173
     22  C17      143.9780  -27.9640   75.2960 C.1   701  IET701      0.1004
     23  N6       144.3620  -28.6040   76.1850 N.1   701  IET701     -0.1908
@<TRIPOS>BOND
     1    14    12    2
     2    15    10    2
     3    12    13    1
     4    12    11    1
     5    10    11    1
     6    10     2    1
     7    13    16    1
     8     2     1    1
     9    16    17   ar
    10    16    21   ar
    11    17    18   ar
    12     9     8    1
    13    21    20   ar
    14     1     8   ar
    15     1     3   ar
    16     4     3    1
    17    18    19   ar
    18     8     7   ar
    19     3     5   ar
    20    20    19   ar
    21    19    22    1
    22     7     6   ar
    23     5     6   ar
    24    22    23    3
