@<TRIPOS>MOLECULE
1s6q_TPB_A_1.pdb
 25 27 0 0 0
SMALL
GASTEIGER

@<TRIPOS>ATOM
      1  C1       146.7480  -22.2560   73.6760 C.ar  701  TPB701      0.0651
      2  N7       146.4280  -21.8520   72.3620 N.pl3 701  TPB701     -0.1834
      3  C2       146.0220  -21.6030   74.7400 C.ar  701  TPB701     -0.0071
      4  C21      144.9820  -20.5380   74.4100 C.3   701  TPB701      0.0324
      5  C3       146.2670  -21.9520   76.1210 C.ar  701  TPB701     -0.0072
      6  C4       147.2260  -22.9360   76.4650 C.ar  701  TPB701     -0.0224
      7  C5       147.9800  -23.6040   75.4070 C.ar  701  TPB701     -0.0072
      8  C6       147.7500  -23.2700   73.9990 C.ar  701  TPB701     -0.0071
      9  C61      148.6050  -24.0380   72.9600 C.3   701  TPB701      0.0324
     10  C8       145.5390  -22.7110   71.5850 C.2   701  TPB701      0.2178
     11  N1       145.0720  -23.8620   72.1450 N.2   701  TPB701     -0.3189
     12  C9       144.2390  -24.7400   71.4940 C.1   701  TPB701      0.1709
     13  N5       143.8080  -25.9570   72.1220 N.pl3 701  TPB701     -0.1357
     14  N3       143.8220  -24.4030   70.1620 N.2   701  TPB701     -0.1683
     15  C10      144.3210  -23.1760   69.5780 C.2   701  TPB701      0.1158
     16  C7       145.1690  -22.3550   70.3000 C.2   701  TPB701      0.0720
     17  C11      144.3630  -26.5610   73.3130 C.ar  701  TPB701      0.0826
     18  C12      144.0550  -27.9320   73.5610 C.ar  701  TPB701      0.0180
     19  C13      144.5600  -28.6200   74.7310 C.ar  701  TPB701      0.0116
     20  C14      145.3750  -27.9290   75.6710 C.ar  701  TPB701      0.0685
     21  C15      145.7030  -26.5250   75.4540 C.ar  701  TPB701      0.0116
     22  C16      145.1940  -25.8430   74.2820 C.ar  701  TPB701      0.0180
     23  C17      145.8440  -28.6960   76.7820 C.1   701  TPB701      0.1004
     24  N6       146.2050  -29.3670   77.6610 N.1   701  TPB701     -0.1908
     25  C41      147.4450  -23.2640   77.9110 C.3   701  TPB701      0.0310
@<TRIPOS>BOND
     1    15    14    1
     2    15    16    2
     3    14    12    2
     4    16    10    1
     5    12    13    1
     6    12    11    2
     7    10    11    2
     8    10     2    1
     9    13    17    1
    10     2     1    1
    11     9     8    1
    12    17    18   ar
    13    17    22   ar
    14    18    19   ar
    15     1     8   ar
    16     1     3   ar
    17     8     7   ar
    18    22    21   ar
    19     4     3    1
    20    19    20   ar
    21     3     5   ar
    22     7     6   ar
    23    21    20   ar
    24    20    23    1
    25     5     6   ar
    26     6    25    1
    27    23    24    3
