@<TRIPOS>MOLECULE
1s6r_IAP_A_1.pdb
 14 14 0 0 0
SMALL
GASTEIGER

@<TRIPOS>ATOM
      1  B         13.2590   27.1440   24.0860 B       1  IAP1        0.0000
      2  O1        12.0670   27.9410   23.8830 O.3     1  IAP1        0.0000
      3  O2        13.6920   26.6080   22.8110 O.3     1  IAP1        0.0000
      4  C1        14.4180   28.0600   24.7230 C.ar    1  IAP1        0.0000
      5  C2        14.0670   29.1120   25.5770 C.ar    1  IAP1        0.0000
      6  C3        15.0670   29.9060   26.1370 C.ar    1  IAP1        0.0000
      7  C4        16.4000   29.6590   25.8070 C.ar    1  IAP1        0.0000
      8  C5        16.7910   28.6040   24.9720 C.ar    1  IAP1        0.0000
      9  C6        15.7600   27.7980   24.4300 C.ar    1  IAP1        0.0000
     10  N1        18.1200   28.4620   24.7610 N.am    1  IAP1        0.0000
     11  C7        19.1630   29.1620   25.2640 C.2     1  IAP1        0.0000
     12  O3        19.1500   30.1380   26.0090 O.2     1  IAP1        0.0000
     13  C8        20.4850   28.6360   24.7360 C.3     1  IAP1        0.0000
     14  I         20.3910   28.1570   22.6700 I       1  IAP1        0.0000
@<TRIPOS>BOND
     1    14    13    1
     2     3     1    1
     3     2     1    1
     4     1     4    1
     5     9     4   ar
     6     9     8   ar
     7     4     5   ar
     8    13    11    1
     9    10     8    1
    10    10    11   am
    11     8     7   ar
    12    11    12    2
    13     5     6   ar
    14     7     6   ar
