@<TRIPOS>MOLECULE
1s6v_HEM_A_1.pdb
 43 50 0 0 0
SMALL
GASTEIGER

@<TRIPOS>ATOM
      1 FE         20.4820   60.3860   -0.1760 Fe    296  HEM296      0.0000
      2  CHA       23.2240   59.8530    1.7730 C.2   296  HEM296      0.0000
      3  CHB       22.3650   59.7930   -3.0580 C.2   296  HEM296      0.0000
      4  CHC       17.6750   60.5380   -2.1790 C.2   296  HEM296      0.0000
      5  CHD       18.5400   60.2590    2.6550 C.2   296  HEM296      0.0000
      6  NA        22.3790   59.8870   -0.5600 N.ar  296  HEM296      0.0000
      7  C1A       23.3780   59.7200    0.3620 C.ar  296  HEM296      0.0000
      8  C2A       24.6270   59.5090   -0.3040 C.ar  296  HEM296      0.0000
      9  C3A       24.4090   59.4320   -1.6740 C.ar  296  HEM296      0.0000
     10  C4A       23.0050   59.6910   -1.7990 C.ar  296  HEM296      0.0000
     11  CMA       25.4750   59.3010   -2.8250 C.3   296  HEM296      0.0000
     12  CAA       25.9710   59.3500    0.4210 C.3   296  HEM296      0.0000
     13  CBA       26.1060   57.9430    1.0130 C.3   296  HEM296      0.0000
     14  CGA       27.4820   57.7110    1.6670 C.2   296  HEM296      0.0000
     15  O1A       28.5080   57.9030    0.9800 O.co2 296  HEM296      0.0000
     16  O2A       27.5250   57.3490    2.8610 O.co2 296  HEM296      0.0000
     17  NB        20.1340   60.2580   -2.1390 N.2   296  HEM296      0.0000
     18  C1B       21.0330   60.0550   -3.2040 C.2   296  HEM296      0.0000
     19  C2B       20.3560   60.2500   -4.5310 C.2   296  HEM296      0.0000
     20  C3B       19.0470   60.4920   -4.2720 C.2   296  HEM296      0.0000
     21  C4B       18.8950   60.4080   -2.8110 C.2   296  HEM296      0.0000
     22  CMB       21.0350   60.1030   -5.8970 C.3   296  HEM296      0.0000
     23  CAB       17.9710   60.7880   -5.1750 C.3   296  HEM296      0.0000
     24  CBB       18.1630   61.5880   -6.3730 C.3   296  HEM296      0.0000
     25  NC        18.5220   60.3960    0.1250 N.ar  296  HEM296      0.0000
     26  C1C       17.5260   60.5110   -0.7620 C.ar  296  HEM296      0.0000
     27  C2C       16.2530   60.5680   -0.1320 C.ar  296  HEM296      0.0000
     28  C3C       16.4500   60.4090    1.2030 C.ar  296  HEM296      0.0000
     29  C4C       17.8970   60.3400    1.3580 C.ar  296  HEM296      0.0000
     30  CMC       14.9100   60.6330   -0.8330 C.3   296  HEM296      0.0000
     31  CAC       15.5720   60.2600    2.2780 C.3   296  HEM296      0.0000
     32  CBC       14.2880   60.8180    2.3910 C.3   296  HEM296      0.0000
     33  ND        20.7880   60.1740    1.7840 N.2   296  HEM296      0.0000
     34  C1D       19.9290   60.2630    2.7950 C.2   296  HEM296      0.0000
     35  C2D       20.6130   60.3780    4.0900 C.2   296  HEM296      0.0000
     36  C3D       21.9020   60.2870    3.8360 C.2   296  HEM296      0.0000
     37  C4D       22.0150   60.1040    2.4130 C.2   296  HEM296      0.0000
     38  CMD       19.9410   60.8290    5.4090 C.3   296  HEM296      0.0000
     39  CAD       23.0930   60.4850    4.8290 C.3   296  HEM296      0.0000
     40  CBD       23.5610   59.0610    5.2250 C.3   296  HEM296      0.0000
     41  CGD       24.7210   59.0540    6.2570 C.2   296  HEM296      0.0000
     42  O1D       25.1650   57.9390    6.5940 O.co2 296  HEM296      0.0000
     43  O2D       25.1810   60.1270    6.7030 O.co2 296  HEM296      0.0000
@<TRIPOS>BOND
     1    24    23    1
     2    22    19    1
     3    23    20    1
     4    19    20    2
     5    19    18    1
     6    20    21    1
     7    18     3    1
     8    18    17    2
     9     3    10    2
    10    11     9    1
    11    21     4    2
    12    21    17    1
    13     4    26    1
    14    17     1    1
    15    10     9   ar
    16    10     6   ar
    17     9     8   ar
    18    30    27    1
    19    26    27   ar
    20    26    25   ar
    21     6     1    1
    22     6     7   ar
    23     8     7   ar
    24     8    12    1
    25     1    25    1
    26     1    33    1
    27    27    28   ar
    28    25    29   ar
    29     7     2    2
    30    12    13    1
    31    15    14   ar
    32    13    14    1
    33    28    29   ar
    34    28    31    1
    35    29     5    1
    36    14    16   ar
    37     2    37    1
    38    33    37    2
    39    33    34    1
    40    31    32    1
    41    37    36    1
    42     5    34    2
    43    34    35    1
    44    36    35    2
    45    36    39    1
    46    35    38    1
    47    39    40    1
    48    40    41    1
    49    41    42   ar
    50    41    43   ar
