@<TRIPOS>MOLECULE
1s73_FMI_A_1.pdb
 44 51 0 0 0
SMALL
GASTEIGER

@<TRIPOS>ATOM
      1 FE         28.2510   92.3700   52.1910 Fe    296  FMI296      0.0000
      2  NA        29.0960   94.1540   51.6560 N.2   296  FMI296      0.0000
      3  NB        29.2390   92.4840   53.9660 N.pl3 296  FMI296      0.0000
      4  NC        27.0720   90.8750   52.8930 N.2   296  FMI296      0.0000
      5  ND        27.0050   92.5200   50.5810 N.ar  296  FMI296      0.0000
      6  C1A       28.8540   94.8690   50.5030 C.2   296  FMI296      0.0000
      7  CHA       27.9320   94.5280   49.5220 C.2   296  FMI296      0.0000
      8  C4D       27.0890   93.4280   49.5460 C.ar  296  FMI296      0.0000
      9  C1B       30.2320   93.3950   54.3250 C.2   296  FMI296      0.0000
     10  CHB       30.6620   94.4570   53.5250 C.2   296  FMI296      0.0000
     11  C4A       30.1340   94.8030   52.2910 C.2   296  FMI296      0.0000
     12  C1C       27.2820   90.1720   54.0610 C.2   296  FMI296      0.0000
     13  CHC       28.2440   90.4800   55.0140 C.2   296  FMI296      0.0000
     14  C4B       29.1380   91.5370   54.9860 C.2   296  FMI296      0.0000
     15  C1D       26.0110   91.6330   50.2160 C.ar  296  FMI296      0.0000
     16  CHD       25.5500   90.5820   50.9980 C.2   296  FMI296      0.0000
     17  C4C       26.0340   90.2330   52.2530 C.2   296  FMI296      0.0000
     18  C2A       29.7220   96.0170   50.4510 C.2   296  FMI296      0.0000
     19  CAA       29.7030   97.0900   49.3970 C.3   296  FMI296      0.0000
     20  C3A       30.5400   95.9490   51.5210 C.2   296  FMI296      0.0000
     21  CMA       31.6510   96.9310   51.8820 C.3   296  FMI296      0.0000
     22  CBA       28.5560   98.0710   49.5440 C.3   296  FMI296      0.0000
     23  CGA       28.5660   99.1100   48.4470 C.2   296  FMI296      0.0000
     24  O1A       29.6230   99.7500   48.2580 O.co2 296  FMI296      0.0000
     25  O2A       27.5290   99.2850   47.7760 O.co2 296  FMI296      0.0000
     26  C2B       30.6670   93.0630   55.7530 C.2   296  FMI296      0.0000
     27  CLB       32.1150   92.5090   55.5850 C.3   296  FMI296      0.0000
     28  CMB       30.6660   94.4420   56.4580 C.3   296  FMI296      0.0000
     29  CNB       29.1620   94.6910   56.7310 C.3   296  FMI296      0.0000
     30  C3B       30.0010   91.8620   56.0880 C.2   296  FMI296      0.0000
     31  OAB       30.1980   91.5120   57.3850 O.2   296  FMI296      0.0000
     32  C2C       26.2800   89.1410   54.2060 C.2   296  FMI296      0.0000
     33  CMC       26.1210   88.2580   55.4480 C.3   296  FMI296      0.0000
     34  C3C       25.5120   89.1730   53.0890 C.2   296  FMI296      0.0000
     35  CAC       24.3800   88.4050   52.7770 C.3   296  FMI296      0.0000
     36  CBC       23.9970   87.1180   53.3550 C.3   296  FMI296      0.0000
     37  C2D       25.5910   91.9000   48.8600 C.ar  296  FMI296      0.0000
     38  CMD       24.6060   91.0580   48.0500 C.3   296  FMI296      0.0000
     39  C3D       26.2590   93.0030   48.4460 C.ar  296  FMI296      0.0000
     40  CAD       26.1800   93.6970   47.0680 C.3   296  FMI296      0.0000
     41  CBD       25.2750   94.9250   47.1130 C.3   296  FMI296      0.0000
     42  CGD       25.2010   95.6680   45.7890 C.2   296  FMI296      0.0000
     43  O1D       24.5370   96.7290   45.7520 O.co2 296  FMI296      0.0000
     44  O2D       25.7970   95.2030   44.7930 O.co2 296  FMI296      0.0000
@<TRIPOS>BOND
     1    44    42   ar
     2    43    42   ar
     3    42    41    1
     4    40    41    1
     5    40    39    1
     6    25    23   ar
     7    38    37    1
     8    24    23   ar
     9    39    37   ar
    10    39     8   ar
    11    23    22    1
    12    37    15   ar
    13    19    22    1
    14    19    18    1
    15     7     8    2
    16     7     6    1
    17     8     5   ar
    18    15     5   ar
    19    15    16    2
    20    18     6    1
    21    18    20    2
    22     6     2    2
    23     5     1    1
    24    16    17    1
    25    20    21    1
    26    20    11    1
    27     2     1    1
    28     2    11    1
    29     1     4    1
    30     1     3    1
    31    17     4    2
    32    17    34    1
    33    11    10    2
    34    35    34    1
    35    35    36    1
    36     4    12    1
    37    34    32    2
    38    10     9    1
    39     3     9    1
    40     3    14    1
    41    12    32    1
    42    12    13    2
    43    32    33    1
    44     9    26    2
    45    14    13    1
    46    14    30    2
    47    27    26    1
    48    26    30    1
    49    26    28    1
    50    30    31    1
    51    28    29    1
