@<TRIPOS>MOLECULE
1s76_APC_R_1.pdb
 31 33 0 0 0
SMALL
GASTEIGER

@<TRIPOS>ATOM
      1  PG       -43.4100    5.2620   42.8130 P.3   901  APC901      0.5389
      2  O1G      -42.1800    4.8710   43.5410 O.3   901  APC901     -0.1143
      3  O2G      -44.7200    4.6890   43.2240 O.3   901  APC901     -0.1143
      4  O3G      -43.1980    5.0010   41.2460 O.2   901  APC901     -0.2220
      5  PB       -43.1220    8.0290   43.8600 P.3   901  APC901      0.3895
      6  O1B      -44.1910    9.0330   43.7020 O.2   901  APC901     -0.2544
      7  O2B      -42.8880    7.4230   45.1940 O.3   901  APC901     -0.1388
      8  O3B      -43.4810    6.8790   42.7720 O.3   901  APC901     -0.2026
      9  PA       -40.2230    9.0400   43.2450 P.3   901  APC901      0.3820
     10  O1A      -39.7240    8.7190   41.8890 O.2   901  APC901     -0.2548
     11  O2A      -39.9430    8.1160   44.3710 O.3   901  APC901     -0.1392
     12  C3A      -41.9040    8.9910   43.2690 C.3   901  APC901      0.2357
     13  O5'      -39.6700   10.4820   43.6080 O.3   901  APC901     -0.2896
     14  C5'      -39.7350   10.9990   44.9480 C.3   901  APC901      0.1836
     15  C4'      -40.4000   12.3580   44.9390 C.3   901  APC901      0.1822
     16  O4'      -39.6060   13.2840   44.1450 O.3   901  APC901     -0.3135
     17  C3'      -41.7760   12.3920   44.2930 C.3   901  APC901      0.2184
     18  O3'      -42.8230   11.8890   45.0340 O.3   901  APC901     -0.2174
     19  C2'      -41.9020   13.8500   43.8800 C.3   901  APC901      0.2570
     20  O2'      -42.4830   14.7400   44.8960 O.3   901  APC901     -0.2130
     21  C1'      -40.4650   14.1900   43.4780 C.3   901  APC901      0.3186
     22  N9       -40.1410   14.1820   42.0890 N.pl3 901  APC901     -0.1439
     23  C8       -39.5910   12.9950   41.6690 C.3   901  APC901      0.3377
     24  N7       -39.4610   12.9100   40.3630 N.2   901  APC901     -0.2095
     25  C5       -39.9440   14.1310   39.9000 C.2   901  APC901      0.2526
     26  C6       -40.0950   14.6650   38.6080 C.2   901  APC901      0.4393
     27  N6       -39.7710   14.0080   37.4960 N.pl3 901  APC901      0.2180
     28  N1       -40.6030   15.9120   38.4970 N.2   901  APC901      0.0021
     29  C2       -40.9390   16.5700   39.6080 C.3   901  APC901      0.5254
     30  N3       -40.8530   16.1720   40.8770 N.2   901  APC901     -0.0055
     31  C4       -40.3430   14.9290   40.9530 C.2   901  APC901      0.3518
@<TRIPOS>BOND
     1    27    26    1
     2    28    26    2
     3    28    29    1
     4    26    25    1
     5    29    30    1
     6    25    24    2
     7    25    31    1
     8    24    23    1
     9    30    31    2
    10    31    22    1
    11     4     1    2
    12    23    22    1
    13    10     9    2
    14    22    21    1
    15     8     1    1
    16     8     5    1
    17     1     3    1
    18     1     2    1
    19     9    12    1
    20     9    13    1
    21     9    11    1
    22    12     5    1
    23    21    19    1
    24    21    16    1
    25    13    14    1
    26     6     5    2
    27     5     7    1
    28    19    17    1
    29    19    20    1
    30    16    15    1
    31    17    15    1
    32    17    18    1
    33    15    14    1
