@<TRIPOS>MOLECULE
1s7g_NAD_A_1.pdb
 44 48 0 0 0
SMALL
GASTEIGER

@<TRIPOS>ATOM
      1  PA        12.2960   47.9610    1.7450 P.3   703  NAD703      0.2189
      2  O1A       11.8630   48.5010    0.5140 O.2   703  NAD703     -0.5170
      3  O2A       13.4080   48.6690    2.3380 O.3   703  NAD703     -0.4371
      4  O5B       11.0100   47.8700    2.6140 O.3   703  NAD703     -0.3112
      5  C5B       10.9170   47.4460    4.0390 C.3   703  NAD703      0.1813
      6  C4B        9.5180   47.8610    4.5200 C.3   703  NAD703      0.1821
      7  O4B        9.4080   47.4300    5.9030 O.3   703  NAD703     -0.3135
      8  C3B        9.2100   49.4300    4.5220 C.3   703  NAD703      0.2184
      9  O3B        8.0410   49.5780    3.6680 O.3   703  NAD703     -0.2174
     10  C2B        8.9590   49.8540    5.9660 C.3   703  NAD703      0.2570
     11  O2B        7.9460   50.7690    6.2600 O.3   703  NAD703     -0.2130
     12  C1B        8.7780   48.4620    6.6680 C.3   703  NAD703      0.3186
     13  N9A        9.3610   48.3550    8.0360 N.pl3 703  NAD703     -0.1439
     14  C8A       10.4320   48.9380    8.7080 C.3   703  NAD703      0.3377
     15  N7A       10.5610   48.5010    9.9520 N.2   703  NAD703     -0.2095
     16  C5A        9.5940   47.5940   10.1990 C.2   703  NAD703      0.2526
     17  C6A        9.1400   46.6820   11.3830 C.2   703  NAD703      0.4393
     18  N6A        9.7010   46.6430   12.5120 N.pl3 703  NAD703      0.2180
     19  N1A        8.0130   45.8260   11.1730 N.2   703  NAD703      0.0021
     20  C2A        7.2430   45.7430    9.9830 C.3   703  NAD703      0.5254
     21  N3A        7.6360   46.5880    8.8480 N.2   703  NAD703     -0.0055
     22  C4A        8.8070   47.4840    8.9880 C.2   703  NAD703      0.3518
     23  O3        12.6790   46.4730    1.6390 O.3   703  NAD703     -0.2703
     24  PN        12.1720   45.3120    0.7650 P.3   703  NAD703      0.2189
     25  O1N       10.7680   45.4590    0.6440 O.2   703  NAD703     -0.5170
     26  O2N       12.7310   44.1030    1.4180 O.3   703  NAD703     -0.4371
     27  O5D       12.8460   45.6720   -0.7310 O.3   703  NAD703     -0.3112
     28  C5D       14.2920   45.5840   -0.8530 C.3   703  NAD703      0.1813
     29  C4D       14.8630   45.5670   -2.2470 C.3   703  NAD703      0.1799
     30  O4D       14.1590   46.4660   -3.2320 O.3   703  NAD703     -0.3327
     31  C3D       16.3700   46.0180   -2.2580 C.3   703  NAD703      0.2158
     32  O3D       17.1820   45.1280   -3.1120 O.3   703  NAD703     -0.2175
     33  C2D       16.3380   47.5630   -2.7300 C.3   703  NAD703      0.2309
     34  O2D       17.5380   48.0460   -3.3850 O.3   703  NAD703     -0.2158
     35  C1D       14.9960   47.6530   -3.6180 C.3   703  NAD703      0.2263
     36  N1N       14.1860   48.9360   -3.4100 N.pl3 703  NAD703     -0.2787
     37  C2N       14.3340   49.9860   -4.4950 C.3   703  NAD703      0.1244
     38  C3N       13.5840   51.2120   -4.4390 C.2   703  NAD703      0.0544
     39  C7N       13.7320   52.3200   -5.4900 C.2   703  NAD703      0.2818
     40  O7N       12.9010   53.3290   -5.4810 O.2   703  NAD703     -0.2670
     41  N7N       14.7830   52.2380   -6.3670 N.am  703  NAD703     -0.0839
     42  C4N       12.5880   51.4520   -3.2110 C.2   703  NAD703      0.0033
     43  C5N       12.4390   50.3950   -2.0910 C.2   703  NAD703      0.0157
     44  C6N       13.2500   49.1460   -2.2170 C.2   703  NAD703      0.0633
@<TRIPOS>BOND
     1    41    39   am
     2    39    40    2
     3    39    38    1
     4    37    38    1
     5    37    36    1
     6    38    42    2
     7    35    36    1
     8    35    30    1
     9    35    33    1
    10    36    44    1
    11    34    33    1
    12    30    29    1
    13    42    43    1
    14    32    31    1
    15    33    31    1
    16    31    29    1
    17    29    28    1
    18    44    43    2
    19    28    27    1
    20    27    24    1
    21     2     1    2
    22    25    24    2
    23    24    26    1
    24    24    23    1
    25    23     1    1
    26     1     3    1
    27     1     4    1
    28     4     5    1
    29     9     8    1
    30     5     6    1
    31     6     8    1
    32     6     7    1
    33     8    10    1
    34     7    12    1
    35    10    11    1
    36    10    12    1
    37    12    13    1
    38    13    14    1
    39    13    22    1
    40    14    15    1
    41    21    22    2
    42    21    20    1
    43    22    16    1
    44    15    16    2
    45    20    19    1
    46    16    17    1
    47    19    17    2
    48    17    18    1
