@<TRIPOS>MOLECULE
1s7g_APR_E_1.pdb
 36 39 0 0 0
SMALL
GASTEIGER

@<TRIPOS>ATOM
      1  N1       -40.0260    8.3510    1.2030 N.2   704  APR704      0.0021
      2  C2       -39.2190    7.2350    1.0920 C.3   704  APR704      0.5254
      3  N3       -38.8730    6.7640   -0.2500 N.2   704  APR704     -0.0055
      4  C4       -39.3790    7.4910   -1.3990 C.2   704  APR704      0.3518
      5  C5       -40.2270    8.6700   -1.3100 C.2   704  APR704      0.2526
      6  C6       -40.5880    9.1380    0.1030 C.2   704  APR704      0.4393
      7  N6       -41.3490   10.1810    0.3100 N.pl3 704  APR704      0.2180
      8  N7       -40.5090    9.0950   -2.5340 N.2   704  APR704     -0.2095
      9  C8       -39.8980    8.2600   -3.3800 C.3   704  APR704      0.3377
     10  N9       -39.1650    7.2210   -2.7610 N.pl3 704  APR704     -0.1439
     11  C1'      -38.3320    6.0810   -3.2230 C.3   704  APR704      0.3186
     12  C2'      -38.5510    5.6320   -4.6870 C.3   704  APR704      0.2570
     13  O2'      -39.6640    4.8360   -4.8850 O.3   704  APR704     -0.2130
     14  C3'      -37.1810    5.0360   -5.0190 C.3   704  APR704      0.2184
     15  O3'      -37.0840    3.5970   -4.8480 O.3   704  APR704     -0.2174
     16  O4'      -36.9820    6.5100   -3.1100 O.3   704  APR704     -0.3135
     17  C4'      -36.1720    5.6540   -3.9790 C.3   704  APR704      0.1821
     18  C5'      -35.1170    6.5560   -4.5490 C.3   704  APR704      0.1813
     19  O5'      -34.3070    5.7780   -5.4960 O.3   704  APR704     -0.3112
     20  PA       -33.5200    6.4670   -6.6560 P.3   704  APR704      0.2189
     21  O1A      -32.9060    5.3920   -7.4780 O.2   704  APR704     -0.5170
     22  O2A      -34.3020    7.4650   -7.3330 O.3   704  APR704     -0.4371
     23  O3A      -32.3450    7.1980   -5.8470 O.3   704  APR704     -0.2703
     24  PB       -30.9980    6.7060   -5.0200 P.3   704  APR704      0.2189
     25  O1B      -31.2050    5.4020   -4.2990 O.2   704  APR704     -0.5170
     26  O2B      -30.5820    7.9290   -4.1810 O.3   704  APR704     -0.4371
     27  O5D      -29.8220    6.3630   -6.1290 O.3   704  APR704     -0.3112
     28  C5D      -29.5460    7.4070   -7.0210 C.3   704  APR704      0.1813
     29  O4D      -28.3290    7.5740   -8.9470 O.3   704  APR704     -0.3237
     30  O1D      -27.2250    8.4950  -10.7700 O.3   704  APR704     -0.1869
     31  C1D      -28.0410    8.8210   -9.6320 C.3   704  APR704      0.3023
     32  O2D      -25.9520    9.7160   -8.6240 O.3   704  APR704     -0.2148
     33  C2D      -27.3390    9.7180   -8.5360 C.3   704  APR704      0.2433
     34  O3D      -27.0540    9.3230   -6.0250 O.3   704  APR704     -0.2175
     35  C3D      -27.9100    9.1690   -7.1940 C.3   704  APR704      0.2168
     36  C4D      -28.2120    7.6830   -7.4750 C.3   704  APR704      0.1807
@<TRIPOS>BOND
     1    30    31    1
     2    31    29    1
     3    31    33    1
     4    29    36    1
     5    32    33    1
     6    33    35    1
     7    21    20    2
     8    36    35    1
     9    36    28    1
    10    22    20    1
    11    35    34    1
    12    28    27    1
    13    20    23    1
    14    20    19    1
    15    27    24    1
    16    23    24    1
    17    19    18    1
    18    24    25    2
    19    24    26    1
    20    14    15    1
    21    14    12    1
    22    14    17    1
    23    13    12    1
    24    12    11    1
    25    18    17    1
    26    17    16    1
    27     9    10    1
    28     9     8    1
    29    11    16    1
    30    11    10    1
    31    10     4    1
    32     8     5    2
    33     4     5    1
    34     4     3    2
    35     5     6    1
    36     3     2    1
    37     6     7    1
    38     6     1    2
    39     2     1    1
