@<TRIPOS>MOLECULE
1s7l_COA_A_1.pdb
 48 50 0 0 0
SMALL
GASTEIGER

@<TRIPOS>ATOM
      1  N1A       16.2560   35.1820   23.6080 N.2   601  COA601      0.0021
      2  C2A       16.1710   35.4150   22.2750 C.3   601  COA601      0.5254
      3  N3A       15.4210   36.3050   21.6920 N.2   601  COA601     -0.0055
      4  C4A       14.6360   37.1220   22.5220 C.2   601  COA601      0.3518
      5  C5A       14.6630   36.9730   23.9170 C.2   601  COA601      0.2526
      6  C6A       15.5180   35.9370   24.4650 C.2   601  COA601      0.4393
      7  N6A       15.5440   35.7400   25.7970 N.pl3 601  COA601      0.2180
      8  N7A       13.8360   37.8610   24.5450 N.2   601  COA601     -0.2095
      9  C8A       13.2670   38.5610   23.5890 C.3   601  COA601      0.3377
     10  N9A       13.7110   38.1320   22.3740 N.pl3 601  COA601     -0.1439
     11  C1B       13.1960   38.6220   21.0610 C.3   601  COA601      0.3185
     12  C2B       14.0730   39.2920   20.0530 C.3   601  COA601      0.2543
     13  O2B       13.5640   40.5850   19.8670 O.3   601  COA601     -0.2131
     14  C3B       13.8600   38.5560   18.7010 C.3   601  COA601      0.1928
     15  O3B       15.0730   38.1820   18.3570 O.3   601  COA601     -0.2673
     16  P3B       15.8730   38.3080   17.0310 P.3   601  COA601      0.5327
     17  O7A       15.2690   39.2340   16.0990 O.2   601  COA601     -0.2224
     18  O8A       15.9200   36.8440   16.5970 O.3   601  COA601     -0.1145
     19  O9A       17.1440   38.8380   17.5200 O.3   601  COA601     -0.1145
     20  C4B       12.9580   37.3560   19.1270 C.3   601  COA601      0.1795
     21  O4B       12.4890   37.5790   20.4090 O.3   601  COA601     -0.3136
     22  C5B       13.3860   35.9340   19.1000 C.3   601  COA601      0.1812
     23  O5B       12.1830   35.1470   19.3020 O.3   601  COA601     -0.3112
     24  P1A       12.0340   33.6970   18.5720 P.3   601  COA601      0.2189
     25  O1A       13.3040   32.9430   18.6530 O.2   601  COA601     -0.5170
     26  O2A       10.8650   33.1200   19.1590 O.3   601  COA601     -0.4371
     27  O3A       11.8780   34.0140   17.0550 O.3   601  COA601     -0.2703
     28  P2A       10.7980   34.9300   16.3160 P.3   601  COA601      0.2188
     29  O4A        9.7040   35.2950   17.1720 O.3   601  COA601     -0.4371
     30  O5A       11.5340   36.0440   15.6530 O.2   601  COA601     -0.5170
     31  O6A       10.2100   34.1010   15.1260 O.3   601  COA601     -0.3138
     32  CBP       10.3050   32.5510   13.3050 C.3   601  COA601      0.0645
     33  CCP       11.0860   33.4990   14.2060 C.3   601  COA601      0.1519
     34  CDP       11.2700   32.1350   12.1780 C.3   601  COA601      0.0056
     35  CEP        9.8950   31.3220   14.1890 C.3   601  COA601      0.0056
     36  CAP        9.0320   33.2510   12.6880 C.3   601  COA601      0.2312
     37  OAP        9.3980   34.4000   11.9870 O.3   601  COA601     -0.2131
     38  C9P        8.1430   32.3800   11.8040 C.2   601  COA601      0.2719
     39  O9P        7.3430   31.6830   12.2900 O.2   601  COA601     -0.2706
     40  N8P        8.3400   32.5140   10.4330 N.am  601  COA601     -0.2028
     41  C7P        7.7150   31.6210    9.4070 C.3   601  COA601      0.1248
     42  C6P        8.3420   30.2110    9.3310 C.3   601  COA601      0.1102
     43  C5P        9.7520   30.2780    8.8370 C.2   601  COA601      0.2432
     44  O5P       10.1960   31.2760    8.4320 O.2   601  COA601     -0.2733
     45  N4P       10.5120   29.1920    8.9980 N.am  601  COA601     -0.2044
     46  C3P       11.9460   29.2100    8.6850 C.3   601  COA601      0.1276
     47  C2P       12.3000   28.2160    7.5960 C.3   601  COA601      0.0920
     48  S1P       11.9220   28.9420    5.9740 S.3   601  COA601     -0.0802
@<TRIPOS>BOND
     1    48    47    1
     2    47    46    1
     3    44    43    2
     4    46    45    1
     5    43    45   am
     6    43    42    1
     7    42    41    1
     8    41    40    1
     9    40    38   am
    10    38    39    2
    11    38    36    1
    12    37    36    1
    13    34    32    1
    14    36    32    1
    15    32    35    1
    16    32    33    1
    17    33    31    1
    18    31    28    1
    19    30    28    2
    20    17    16    2
    21    28    27    1
    22    28    29    1
    23    18    16    1
    24    16    19    1
    25    16    15    1
    26    27    24    1
    27    15    14    1
    28    24    25    2
    29    24    26    1
    30    24    23    1
    31    14    20    1
    32    14    12    1
    33    22    20    1
    34    22    23    1
    35    20    21    1
    36    13    12    1
    37    12    11    1
    38    21    11    1
    39    11    10    1
    40     3     2    1
    41     3     4    2
    42     2     1    1
    43    10     4    1
    44    10     9    1
    45     4     5    1
    46     9     8    1
    47     1     6    2
    48     5     6    1
    49     5     8    2
    50     6     7    1
