@<TRIPOS>MOLECULE
1s7n_COA_A_1.pdb
 48 50 0 0 0
SMALL
GASTEIGER

@<TRIPOS>ATOM
      1  N1A      -11.3820   -5.7400   25.4860 N.2   601  COA601      0.0021
      2  C2A      -10.0680   -5.9720   25.8320 C.3   601  COA601      0.5254
      3  N3A       -9.4370   -5.5100   26.9270 N.2   601  COA601     -0.0055
      4  C4A      -10.2070   -4.7280   27.7910 C.2   601  COA601      0.3518
      5  C5A      -11.5540   -4.4440   27.5190 C.2   601  COA601      0.2526
      6  C6A      -12.1510   -4.9620   26.3400 C.2   601  COA601      0.4393
      7  N6A      -13.4730   -4.6350   26.1240 N.pl3 601  COA601      0.2180
      8  N7A      -12.1290   -3.6540   28.4870 N.2   601  COA601     -0.2095
      9  C8A      -11.1870   -3.4260   29.3710 C.3   601  COA601      0.3377
     10  N9A      -10.0390   -4.0480   28.9720 N.pl3 601  COA601     -0.1439
     11  C1B       -8.8180   -3.9550   29.6860 C.3   601  COA601      0.3185
     12  C2B       -8.0210   -5.2460   29.8020 C.3   601  COA601      0.2543
     13  O2B       -8.4880   -5.9810   30.9610 O.3   601  COA601     -0.2131
     14  C3B       -6.6450   -4.6710   30.0350 C.3   601  COA601      0.1928
     15  O3B       -6.5490   -4.1370   31.3460 O.3   601  COA601     -0.2673
     16  P3B       -5.1680   -4.3790   32.1900 P.3   601  COA601      0.5327
     17  O7A       -5.5210   -3.9800   33.5740 O.3   601  COA601     -0.1145
     18  O8A       -4.0630   -3.5920   31.5440 O.2   601  COA601     -0.2224
     19  O9A       -4.9450   -5.8630   32.1400 O.3   601  COA601     -0.1145
     20  C4B       -6.6290   -3.5500   28.9910 C.3   601  COA601      0.1795
     21  O4B       -7.9550   -2.9860   29.0550 O.3   601  COA601     -0.3136
     22  C5B       -6.2770   -3.9370   27.5520 C.3   601  COA601      0.1812
     23  O5B       -6.4570   -2.8170   26.6970 O.3   601  COA601     -0.3112
     24  P1A       -5.6650   -2.7890   25.2940 P.3   601  COA601      0.2189
     25  O1A       -5.2850   -4.1500   24.8570 O.3   601  COA601     -0.4371
     26  O2A       -6.5180   -2.0200   24.3560 O.2   601  COA601     -0.5170
     27  O3A       -4.3420   -2.0140   25.5470 O.3   601  COA601     -0.2703
     28  P2A       -3.8580   -1.0630   26.7170 P.3   601  COA601      0.2188
     29  O4A       -4.8830   -0.0980   27.1090 O.2   601  COA601     -0.5170
     30  O5A       -3.2780   -1.8360   27.7800 O.3   601  COA601     -0.4371
     31  O6A       -2.5870   -0.2880   26.1480 O.3   601  COA601     -0.3138
     32  CBP       -0.5570   -0.0470   24.9000 C.3   601  COA601      0.0645
     33  CCP       -1.4890   -1.0130   25.6140 C.3   601  COA601      0.1519
     34  CDP        0.7880   -0.8130   24.5460 C.3   601  COA601      0.0056
     35  CEP       -1.2140    0.3910   23.5430 C.3   601  COA601      0.0056
     36  CAP       -0.2850    1.1990   25.7860 C.3   601  COA601      0.2312
     37  OAP        0.2470    0.7440   27.0210 O.3   601  COA601     -0.2131
     38  C9P        0.6980    2.2320   25.1750 C.2   601  COA601      0.2719
     39  O9P        0.3380    3.0950   24.3660 O.2   601  COA601     -0.2706
     40  N8P        1.9960    2.0550   25.6410 N.am  601  COA601     -0.2028
     41  C7P        3.0900    2.9890   25.3750 C.3   601  COA601      0.1248
     42  C6P        3.6110    2.9040   23.9160 C.3   601  COA601      0.1102
     43  C5P        4.0900    1.4810   23.5580 C.2   601  COA601      0.2432
     44  O5P        4.4530    0.6910   24.4240 O.2   601  COA601     -0.2733
     45  N4P        3.7390    1.0730   22.2530 N.am  601  COA601     -0.2044
     46  C3P        4.0140   -0.2510   21.7130 C.3   601  COA601      0.1276
     47  C2P        5.4290   -0.4110   21.2670 C.3   601  COA601      0.0920
     48  S1P        5.7540   -2.1610   20.7940 S.3   601  COA601     -0.0802
@<TRIPOS>BOND
     1    48    47    1
     2    47    46    1
     3    46    45    1
     4    45    43   am
     5    35    32    1
     6    43    42    1
     7    43    44    2
     8    42    41    1
     9    26    24    2
    10    39    38    2
    11    34    32    1
    12    25    24    1
    13    32    33    1
    14    32    36    1
    15    38    40   am
    16    38    36    1
    17    24    27    1
    18    24    23    1
    19    41    40    1
    20     1     2    1
    21     1     6    2
    22    27    28    1
    23    33    31    1
    24    36    37    1
    25     2     3    1
    26     7     6    1
    27    31    28    1
    28     6     5    1
    29    23    22    1
    30    28    29    2
    31    28    30    1
    32     3     4    2
    33     5     4    1
    34     5     8    2
    35    22    20    1
    36     4    10    1
    37     8     9    1
    38    10     9    1
    39    10    11    1
    40    20    21    1
    41    20    14    1
    42    21    11    1
    43    11    12    1
    44    12    14    1
    45    12    13    1
    46    14    15    1
    47    15    16    1
    48    18    16    2
    49    19    16    1
    50    16    17    1
