@<TRIPOS>MOLECULE
1s7y_GLU_A_1.pdb
 10 9 0 0 0
SMALL
GASTEIGER

@<TRIPOS>ATOM
      1  N         32.3880   15.8890   38.8650 N.3   551  GLU551     -0.1208
      2  CA        33.2230   14.6500   38.8230 C.3   551  GLU551      0.1949
      3  C         32.9700   13.6790   39.9910 C.2   551  GLU551      0.3819
      4  O         33.7890   12.7370   40.1400 O.co2 551  GLU551     -0.2441
      5  CB        34.7080   15.0210   38.7940 C.3   551  GLU551      0.0424
      6  CG        35.1960   15.6180   37.4800 C.3   551  GLU551      0.1161
      7  CD        35.1080   14.6390   36.3200 C.2   551  GLU551      0.3649
      8  OE1       35.1740   13.4170   36.5910 O.co2 551  GLU551     -0.2457
      9  OE2       34.9890   15.0810   35.1470 O.co2 551  GLU551     -0.2457
     10  OXT       31.9740   13.8540   40.7370 O.co2 551  GLU551     -0.2441
@<TRIPOS>BOND
     1     9     7   ar
     2     7     8   ar
     3     7     6    1
     4     6     5    1
     5     5     2    1
     6     2     1    1
     7     2     3    1
     8     3     4   ar
     9     3    10   ar
