@<TRIPOS>MOLECULE
1s81_EDO_A_1.pdb
 10 9 0 0 0
SMALL
GASTEIGER

@<TRIPOS>ATOM
      1  C1        34.4560   27.5980   10.8440 C.3     4  EDO4        0.0673
      2  O1        35.6020   26.8170   11.0940 O.3     4  EDO4       -0.3928
      3  C2        33.1790   26.9090   11.3340 C.3     4  EDO4        0.0673
      4  O2        33.1340   26.9010   12.7370 O.3     4  EDO4       -0.3928
      5  H11       34.5630   28.5660   11.3350 H       4  EDO4        0.0580
      6  H12       34.3710   27.7370    9.7700 H       4  EDO4        0.0580
      7  HO1       35.7020   26.7230   12.0440 H       4  EDO4        0.2095
      8  H21       33.1480   25.8870   10.9610 H       4  EDO4        0.0580
      9  H22       32.3160   27.4630   10.9630 H       4  EDO4        0.0580
     10  HO2       33.1430   27.8100   13.0470 H       4  EDO4        0.2095
@<TRIPOS>BOND
     1     6     1    1
     2     1     2    1
     3     1     3    1
     4     1     5    1
     5     8     3    1
     6     9     3    1
     7     2     7    1
     8     3     4    1
     9     4    10    1
