@<TRIPOS>MOLECULE
1s82_SBE_A_1.pdb
 11 11 0 0 0
SMALL
GASTEIGER

@<TRIPOS>ATOM
      1  BD        35.9010   26.7470    7.7330 B      12  SBE12       0.0000
      2  OE1       37.1830   26.1060    7.6230 O.3    12  SBE12       0.0000
      3  OE2       35.1550   26.4380    6.5660 O.3    12  SBE12       0.0000
      4  OE3       35.1980   26.3190    8.8510 O.3    12  SBE12       0.0000
      5  CZ1       37.2190   25.3810    6.4100 C.3    12  SBE12       0.0000
      6  CZ2       35.7970   25.4240    5.8520 C.3    12  SBE12       0.0000
      7  HE3       35.2710   26.7980    9.6810 H      12  SBE12       0.0000
      8 HZ12       37.5470   24.3500    6.5360 H      12  SBE12       0.0000
      9 HZ13       37.8970   25.9090    5.7430 H      12  SBE12       0.0000
     10 HZ22       35.2960   24.4730    6.0190 H      12  SBE12       0.0000
     11 HZ23       35.8040   25.6720    4.7950 H      12  SBE12       0.0000
@<TRIPOS>BOND
     1    11     6    1
     2     9     5    1
     3     6    10    1
     4     6     5    1
     5     6     3    1
     6     5     8    1
     7     5     2    1
     8     3     1    1
     9     2     1    1
    10     1     4    1
    11     4     7    1
