@<TRIPOS>MOLECULE
1s82_EDO_A_1.pdb
 10 9 0 0 0
SMALL
GASTEIGER

@<TRIPOS>ATOM
      1  C1        34.0390   28.5960   10.5920 C.3     5  EDO5        0.0673
      2  O1        33.0390   27.7400   10.0920 O.3     5  EDO5       -0.3928
      3  C2        33.4070   29.7520   11.3480 C.3     5  EDO5        0.0673
      4  O2        32.7380   29.2890   12.4870 O.3     5  EDO5       -0.3928
      5  H11       34.6880   28.0400   11.2660 H       5  EDO5        0.0580
      6  H12       34.6260   28.9810    9.7590 H       5  EDO5        0.0580
      7  HO1       32.5110   28.2310    9.4580 H       5  EDO5        0.2095
      8  H21       32.6910   30.2530   10.7020 H       5  EDO5        0.0580
      9  H22       34.1850   30.4520   11.6480 H       5  EDO5        0.0580
     10  HO2       33.3810   28.8780   13.0700 H       5  EDO5        0.2095
@<TRIPOS>BOND
     1     7     2    1
     2     6     1    1
     3     2     1    1
     4     1     5    1
     5     1     3    1
     6     8     3    1
     7     3     9    1
     8     3     4    1
     9     4    10    1
