@<TRIPOS>MOLECULE
1s83_4HA_A_1.pdb
 18 17 0 0 0
SMALL
GASTEIGER

@<TRIPOS>ATOM
      1  OA        35.7380   27.1020   10.8570 O.3     5  4HA5       -0.3950
      2  CB        34.9480   26.4360   11.7970 C.3     5  4HA5        0.0441
      3  CG        33.4820   26.6460   11.4350 C.3     5  4HA5       -0.0314
      4  CD        32.8570   27.9510   11.9230 C.3     5  4HA5       -0.0668
      5  CE        32.3960   27.9670   13.3830 C.3     5  4HA5       -0.0962
      6  NZ        31.6370   29.2150   13.5890 N.4     5  4HA5        0.3781
      7  HA        36.6600   26.9940   11.1020 H       5  4HA5        0.2094
      8  HB2       35.1410   26.8100   12.8000 H       5  4HA5        0.0557
      9  HB3       35.1780   25.3730   11.7510 H       5  4HA5        0.0557
     10  HG2       32.8940   25.8180   11.8320 H       5  4HA5        0.0287
     11  HG3       33.4050   26.6220   10.3470 H       5  4HA5        0.0287
     12  HD2       31.9910   28.1400   11.2910 H       5  4HA5        0.0248
     13  HD3       33.5660   28.7660   11.7730 H       5  4HA5        0.0248
     14  HE2       31.7600   27.1070   13.5910 H       5  4HA5        0.0049
     15  HE3       33.2680   27.9510   14.0360 H       5  4HA5        0.0049
     16  HZ1       30.7170   29.1200   13.1850 H       5  4HA5       -0.0901
     17  HZ2       31.5560   29.4080   14.5760 H       5  4HA5       -0.0901
     18  HZ3       32.1200   29.9710   13.1270 H       5  4HA5       -0.0901
@<TRIPOS>BOND
     1    11     3    1
     2     1     7    1
     3     1     2    1
     4    12     4    1
     5     3     2    1
     6     3    10    1
     7     3     4    1
     8     9     2    1
     9    13     4    1
    10     2     8    1
    11     4     5    1
    12    18     6    1
    13    16     6    1
    14     5     6    1
    15     5    14    1
    16     5    15    1
    17     6    17    1
