@<TRIPOS>MOLECULE
1s84_EDO_A_1.pdb
 10 9 0 0 0
SMALL
GASTEIGER

@<TRIPOS>ATOM
      1  C1        31.1040   22.0470   -7.4190 C.3     8  EDO8        0.0673
      2  O1        32.3140   21.3360   -7.5830 O.3     8  EDO8       -0.3928
      3  C2        30.5640   21.9010   -6.0000 C.3     8  EDO8        0.0673
      4  O2        31.4830   22.3930   -5.0820 O.3     8  EDO8       -0.3928
      5  H11       31.2520   23.1030   -7.6590 H       8  EDO8        0.0580
      6  H12       30.3590   21.6130   -8.0780 H       8  EDO8        0.0580
      7  HO1       32.3910   21.0820   -8.5040 H       8  EDO8        0.2095
      8  H21       29.6720   22.5070   -5.8740 H       8  EDO8        0.0580
      9  H22       30.3800   20.8560   -5.7570 H       8  EDO8        0.0580
     10  HO2       31.1860   22.2270   -4.1830 H       8  EDO8        0.2095
@<TRIPOS>BOND
     1     7     2    1
     2     6     1    1
     3     5     1    1
     4     2     1    1
     5     1     3    1
     6     3     8    1
     7     3     9    1
     8     3     4    1
     9     4    10    1
