@<TRIPOS>MOLECULE
1s84_DYB_A_1.pdb
 26 26 0 0 0
SMALL
GASTEIGER

@<TRIPOS>ATOM
      1  BD        35.8600   27.1970    8.0060 B      11  DYB11       0.0000
      2  OE1       35.1080   27.1780    9.1810 O.3    11  DYB11       0.0000
      3  OE2       36.9660   26.3360    8.0710 O.3    11  DYB11       0.0000
      4  CZ2       37.1880   25.7100    6.8300 C.3    11  DYB11       0.0000
      5  OE3       35.1650   26.7610    6.8600 O.3    11  DYB11       0.0000
      6  CZ3       35.8620   25.7890    6.1010 C.3    11  DYB11       0.0000
      7  CZ1       34.1280   28.1680    9.4650 C.3    11  DYB11       0.0000
      8  CH        33.5070   28.0560   10.8560 C.3    11  DYB11       0.0000
      9  CQ        32.7650   29.3360   11.2760 C.3    11  DYB11       0.0000
     10  CI        32.1910   29.1940   12.6860 C.3    11  DYB11       0.0000
     11  NK        31.5030   30.4260   13.1050 N.4    11  DYB11       0.0000
     12 HZ22       37.5020   24.6720    6.9130 H      11  DYB11       0.0000
     13 HZ23       37.9350   26.2880    6.2900 H      11  DYB11       0.0000
     14 HZ32       35.3550   24.8300    6.1330 H      11  DYB11       0.0000
     15 HZ33       36.0040   26.0740    5.0650 H      11  DYB11       0.0000
     16 HZ12       34.5940   29.1460    9.3740 H      11  DYB11       0.0000
     17 HZ13       33.3550   28.1030    8.7080 H      11  DYB11       0.0000
     18  HH2       32.8310   27.2010   10.8860 H      11  DYB11       0.0000
     19  HH3       34.3160   27.8850   11.5650 H      11  DYB11       0.0000
     20  HQ2       31.9600   29.5540   10.5730 H      11  DYB11       0.0000
     21  HQ3       33.4660   30.1730   11.2740 H      11  DYB11       0.0000
     22  HI2       33.0050   28.9890   13.3820 H      11  DYB11       0.0000
     23  HI3       31.4820   28.3650   12.7060 H      11  DYB11       0.0000
     24  HK1       32.1380   31.2070   13.0720 H      11  DYB11       0.0000
     25  HK2       31.1750   30.3240   14.0500 H      11  DYB11       0.0000
     26  HK3       30.7100   30.6020   12.5030 H      11  DYB11       0.0000
@<TRIPOS>BOND
     1    15     6    1
     2     6    14    1
     3     6     4    1
     4     6     5    1
     5    13     4    1
     6     4    12    1
     7     4     3    1
     8     5     1    1
     9     1     3    1
    10     1     2    1
    11    17     7    1
    12     2     7    1
    13    16     7    1
    14     7     8    1
    15    20     9    1
    16     8    18    1
    17     8     9    1
    18     8    19    1
    19    21     9    1
    20     9    10    1
    21    26    11    1
    22    10    23    1
    23    10    11    1
    24    10    22    1
    25    24    11    1
    26    11    25    1
