@<TRIPOS>MOLECULE
1s85_SBZ_A_1.pdb
 30 31 0 0 0
SMALL
GASTEIGER

@<TRIPOS>ATOM
      1  BD        35.8080   26.3810    7.9970 B     800  SBZ800      0.0000
      2  OE1       35.1550   25.9530    9.1510 O.3   800  SBZ800      0.0000
      3  OE2       35.3110   25.6420    6.9130 O.3   800  SBZ800      0.0000
      4  OE3       37.2110   26.1660    8.0150 O.3   800  SBZ800      0.0000
      5  CZ2       36.2260   24.6050    6.6240 C.3   800  SBZ800      0.0000
      6  CZ3       37.5530   25.0620    7.2090 C.3   800  SBZ800      0.0000
      7  CZ1       35.4980   26.5350   10.3980 C.3   800  SBZ800      0.0000
      8  CH        34.3800   27.1560   11.1980 C.ar  800  SBZ800      0.0000
      9  CQ1       34.0780   26.7280   12.5020 C.ar  800  SBZ800      0.0000
     10  CQ2       33.6830   28.2340   10.6400 C.ar  800  SBZ800      0.0000
     11  CI1       33.0810   27.3900   13.2460 C.ar  800  SBZ800      0.0000
     12  CI2       32.7350   28.9290   11.4000 C.ar  800  SBZ800      0.0000
     13  CK        32.4170   28.5160   12.7120 C.ar  800  SBZ800      0.0000
     14  CL        31.4760   29.2440   13.4760 C.2   800  SBZ800      0.0000
     15  NM1       30.9200   28.7400   14.5800 N.pl3 800  SBZ800      0.5000
     16  NM2       31.1120   30.4930   13.1640 N.2   800  SBZ800      0.5000
     17 HZ22       36.3150   24.4360    5.5520 H     800  SBZ800      0.0000
     18 HZ23       35.8980   23.6980    7.1310 H     800  SBZ800      0.0000
     19 HZ32       38.2280   25.3710    6.4150 H     800  SBZ800      0.0000
     20 HZ33       37.9980   24.2730    7.8140 H     800  SBZ800      0.0000
     21 HZ12       36.0080   25.7930   11.0060 H     800  SBZ800      0.0000
     22 HZ13       36.2250   27.3120   10.1660 H     800  SBZ800      0.0000
     23  HQ1       34.6190   25.9060   12.9510 H     800  SBZ800      0.0000
     24  HQ2       33.9100   28.5600    9.6370 H     800  SBZ800      0.0000
     25  HI1       32.8980   27.0670   14.2580 H     800  SBZ800      0.0000
     26  HI2       32.2450   29.7780   10.9460 H     800  SBZ800      0.0000
     27 HM12       31.1020   27.7860   14.8570 H     800  SBZ800      0.0000
     28 HM13       30.2550   29.2950   15.0960 H     800  SBZ800      0.0000
     29 HM22       31.5660   30.9800   12.4060 H     800  SBZ800      0.0000
     30 HM23       30.4610   30.9850   13.7580 H     800  SBZ800      0.0000
@<TRIPOS>BOND
     1    17     5    1
     2    19     6    1
     3     5     3    1
     4     5    18    1
     5     5     6    1
     6     3     1    1
     7     6    20    1
     8     6     4    1
     9     1     4    1
    10     1     2    1
    11     2     7    1
    12    24    10    1
    13    22     7    1
    14     7    21    1
    15     7     8    1
    16    10     8   ar
    17    10    12   ar
    18    26    12    1
    19     8     9   ar
    20    12    13   ar
    21    29    16    1
    22     9    23    1
    23     9    11   ar
    24    13    11   ar
    25    13    14    1
    26    16    14    2
    27    16    30    1
    28    11    25    1
    29    14    15    1
    30    15    27    1
    31    15    28    1
