@<TRIPOS>MOLECULE
1s8c_BLA_A_1.pdb
 43 46 0 0 0
SMALL
GASTEIGER

@<TRIPOS>ATOM
      1  CHA       31.0060   -0.4050   43.7210 C.3   400  BLA400      0.0992
      2  NA        32.0020    0.3210   41.6250 N.2   400  BLA400     -0.4187
      3  C1A       32.0340    0.2520   42.9970 C.2   400  BLA400      0.0918
      4  C2A       33.2550    0.9370   43.5260 C.3   400  BLA400      0.0553
      5  C3A       33.9030    1.3960   42.3950 C.3   400  BLA400      0.0545
      6  C4A       33.1150    1.0030   41.2330 C.2   400  BLA400      0.0878
      7  CMA       35.2270    2.1740   42.4610 C.3   400  BLA400      0.0075
      8  CAA       33.8220    0.0340   44.6470 C.3   400  BLA400      0.0189
      9  CBA       33.3310   -1.4590   44.6060 C.3   400  BLA400      0.1145
     10  CGA       33.6880   -2.3150   45.8190 C.2   400  BLA400      0.3649
     11  O1A       34.0850   -2.2030   47.3680 O.co2 400  BLA400     -0.2457
     12  O2A       32.7850   -3.3020   46.0630 O.co2 400  BLA400     -0.2457
     13  CHB       33.4020    1.2540   39.8830 C.3   400  BLA400      0.0795
     14  NB        32.4640   -0.6520   38.9960 N.2   400  BLA400     -0.2076
     15  C1B       32.7030    0.7290   38.7880 C.3   400  BLA400      0.1225
     16  C2B       33.0490    0.9330   37.3450 C.3   400  BLA400      0.0433
     17  C3B       32.4300   -0.1650   36.7080 C.3   400  BLA400      0.1300
     18  C4B       32.3520   -1.1510   37.7930 C.1   400  BLA400      0.1291
     19  CMB       33.8880    2.0590   36.7510 C.3   400  BLA400      0.0035
     20  OB        31.8730   -2.2880   37.7130 O.2   400  BLA400     -0.2267
     21  CAB       31.9370   -0.4430   35.4140 C.2   400  BLA400     -0.0099
     22  CBB       32.4100   -0.0070   34.3120 C.2   400  BLA400     -0.0038
     23  NC        28.7350    2.0270   41.1500 N.2   400  BLA400     -0.2006
     24  C1C       28.7120    2.0090   39.7700 C.1   400  BLA400      0.1456
     25  C2C       27.4640    2.4670   39.2540 C.2   400  BLA400      0.0548
     26  C3C       26.7140    2.7720   40.3170 C.2   400  BLA400     -0.0146
     27  C4C       27.5270    2.4870   41.5680 C.3   400  BLA400      0.1357
     28  CMC       27.1970    2.5340   37.7530 C.3   400  BLA400      0.0430
     29  OC        29.6450    1.6440   39.0640 O.2   400  BLA400     -0.2226
     30  CAC       25.3840    3.2690   40.2520 C.3   400  BLA400      0.0243
     31  CBC       25.1880    4.6630   40.6480 C.3   400  BLA400      0.0047
     32  CHD       27.1240    1.5040   42.4940 C.3   400  BLA400      0.0578
     33  ND        29.0420    1.1430   43.4750 N.2   400  BLA400     -0.2724
     34  C1D       27.6400    1.0070   43.7080 C.3   400  BLA400      0.1232
     35  C2D       27.3470   -0.3740   44.0210 C.2   400  BLA400     -0.0248
     36  C3D       28.5230   -1.0660   43.9960 C.2   400  BLA400     -0.0141
     37  C4D       29.5820   -0.1210   43.7080 C.2   400  BLA400      0.0562
     38  CMD       25.9610   -0.9790   44.3150 C.3   400  BLA400      0.0280
     39  CAD       28.6540   -2.5500   44.2450 C.3   400  BLA400      0.0388
     40  CBD       28.4380   -3.2400   42.8710 C.3   400  BLA400      0.1187
     41  CGD       28.1490   -4.6980   43.0950 C.2   400  BLA400      0.3652
     42  O1D       28.9020   -5.4020   43.7740 O.co2 400  BLA400     -0.2456
     43  O2D       27.0630   -5.3300   42.5650 O.co2 400  BLA400     -0.2456
@<TRIPOS>BOND
     1    22    21    2
     2    21    17    1
     3    17    16    1
     4    17    18    1
     5    19    16    1
     6    16    15    1
     7    20    18    2
     8    28    25    1
     9    18    14    2
    10    15    14    1
    11    15    13    1
    12    29    24    2
    13    25    24    1
    14    25    26    2
    15    24    23    2
    16    13     6    1
    17    30    26    1
    18    30    31    1
    19    26    27    1
    20    23    27    1
    21     6     2    2
    22     6     5    1
    23    27    32    1
    24     2     3    2
    25     5     7    1
    26     5     4    1
    27    32    34    1
    28    43    41   ar
    29    40    41    1
    30    40    39    1
    31     3     4    1
    32     3     1    1
    33    41    42   ar
    34    33    34    1
    35    33    37    2
    36     4     8    1
    37    34    35    1
    38    37     1    1
    39    37    36    1
    40    36    35    2
    41    36    39    1
    42    35    38    1
    43     9     8    1
    44     9    10    1
    45    10    12   ar
    46    10    11   ar
