@<TRIPOS>MOLECULE
1s8f_GDP_A_1.pdb
 28 30 0 0 0
SMALL
GASTEIGER

@<TRIPOS>ATOM
      1  PB        10.1480   15.7510   -0.1730 P.3   3400  GDP3400     0.5373
      2  O1B        9.0400   16.2320   -0.9650 O.2   3400  GDP3400    -0.2221
      3  O2B       10.4070   14.2760   -0.3180 O.3   3400  GDP3400    -0.1143
      4  O3B       10.1310   15.9730    1.3400 O.3   3400  GDP3400    -0.1143
      5  O3A       11.4630   16.5490   -0.7980 O.3   3400  GDP3400    -0.2261
      6  PA        12.7730   16.8460    0.0980 P.3   3400  GDP3400     0.2231
      7  O1A       13.0100   15.7010    1.0170 O.3   3400  GDP3400    -0.4370
      8  O2A       12.6750   18.1410    0.9470 O.2   3400  GDP3400    -0.5169
      9  O5'       13.8490   17.0670   -1.0370 O.3   3400  GDP3400    -0.3111
     10  C5'       14.0840   16.1180   -2.0460 C.3   3400  GDP3400     0.1813
     11  C4'       15.3920   16.6110   -2.7080 C.3   3400  GDP3400     0.1799
     12  O4'       15.1170   17.8530   -3.3440 O.3   3400  GDP3400    -0.3326
     13  C3'       16.4530   16.8690   -1.6590 C.3   3400  GDP3400     0.2158
     14  O3'       17.7040   16.4460   -2.1810 O.3   3400  GDP3400    -0.2175
     15  C2'       16.4700   18.3750   -1.4940 C.3   3400  GDP3400     0.2310
     16  O2'       17.6480   18.9840   -1.0280 O.3   3400  GDP3400    -0.2158
     17  C1'       15.9930   18.8550   -2.8370 C.3   3400  GDP3400     0.2293
     18  N9        15.3090   20.1520   -2.7610 N.pl3 3400  GDP3400    -0.2354
     19  C8        14.2280   20.5050   -1.9910 C.3   3400  GDP3400     0.2246
     20  N7        13.7640   21.6820   -2.4110 N.2   3400  GDP3400    -0.2322
     21  C5        14.5230   22.1150   -3.4490 C.2   3400  GDP3400     0.2182
     22  C6        14.5180   23.2520   -4.2790 C.1   3400  GDP3400     0.2372
     23  O6        13.7310   24.1760   -4.2070 O.2   3400  GDP3400    -0.2069
     24  N1        15.4840   23.3560   -5.2730 N.2   3400  GDP3400    -0.2485
     25  C2        16.4440   22.3660   -5.4630 C.1   3400  GDP3400     0.2531
     26  N2        17.3600   22.4790   -6.4170 N.pl3 3400  GDP3400    -0.0226
     27  N3        16.4600   21.2530   -4.6630 N.2   3400  GDP3400    -0.3074
     28  C4        15.5040   21.1440   -3.6720 C.2   3400  GDP3400     0.2300
@<TRIPOS>BOND
     1    26    25    1
     2    25    24    2
     3    25    27    2
     4    24    22    2
     5    27    28    2
     6    22    23    2
     7    22    21    1
     8    28    21    1
     9    28    18    1
    10    21    20    2
    11    12    17    1
    12    12    11    1
    13    17    18    1
    14    17    15    1
    15    18    19    1
    16    11    10    1
    17    11    13    1
    18    20    19    1
    19    14    13    1
    20    10     9    1
    21    13    15    1
    22    15    16    1
    23     9     6    1
    24     2     1    2
    25     5     1    1
    26     5     6    1
    27     3     1    1
    28     1     4    1
    29     6     8    2
    30     6     7    1
