@<TRIPOS>MOLECULE
1s8g_DAO_A_1.pdb
 14 13 0 0 0
SMALL
GASTEIGER

@<TRIPOS>ATOM
      1  O1        21.0640   35.8240    4.6580 O.co2 135  DAO135     -0.2457
      2  O2        21.6680   33.7490    4.3580 O.co2 135  DAO135     -0.2457
      3  C1        21.5990   34.9320    3.9700 C.2   135  DAO135      0.3649
      4  C2        22.1560   35.3210    2.6180 C.3   135  DAO135      0.1141
      5  C3        23.5820   34.8240    2.4090 C.3   135  DAO135      0.0118
      6  C4        23.7380   33.9960    1.1340 C.3   135  DAO135      0.0006
      7  C5        24.0760   34.8680   -0.0710 C.3   135  DAO135      0.0000
      8  C6        22.9180   34.9430   -1.0610 C.3   135  DAO135      0.0000
      9  C7        22.9510   33.8020   -2.0710 C.3   135  DAO135      0.0000
     10  C8        22.5670   34.2950   -3.4610 C.3   135  DAO135      0.0000
     11  C9        23.7220   35.0030   -4.1600 C.3   135  DAO135      0.0000
     12  C10       23.6000   34.9570   -5.6820 C.3   135  DAO135      0.0000
     13  C11       24.0140   36.2650   -6.3580 C.3   135  DAO135      0.0000
     14  C12       22.8710   36.9050   -7.1250 C.3   135  DAO135      0.0000
@<TRIPOS>BOND
     1    14    13    1
     2    13    12    1
     3    12    11    1
     4    11    10    1
     5    10     9    1
     6     9     8    1
     7     8     7    1
     8     7     6    1
     9     6     5    1
    10     5     4    1
    11     4     3    1
    12     3     2   ar
    13     3     1   ar
