@<TRIPOS>MOLECULE
1s8j_RET_A_1.pdb
 20 20 0 0 0
SMALL
GASTEIGER

@<TRIPOS>ATOM
      1  C1         4.1400   35.2430   32.9220 C.3   301  RET301      0.0183
      2  C2         3.8150   36.4970   32.1100 C.3   301  RET301      0.0044
      3  C3         3.3700   36.3080   30.7270 C.3   301  RET301      0.0047
      4  C4         2.4070   35.1720   30.5210 C.3   301  RET301      0.0217
      5  C5         2.7950   33.8900   31.2340 C.2   301  RET301     -0.0479
      6  C6         3.5330   33.9390   32.3590 C.2   301  RET301     -0.0307
      7  C7         3.6940   32.6420   33.0100 C.2   301  RET301     -0.0052
      8  C8         4.3470   32.3580   34.1590 C.2   301  RET301     -0.0049
      9  C9         4.4520   31.0650   34.8070 C.2   301  RET301     -0.0258
     10  C10        5.1390   31.1200   35.9770 C.2   301  RET301     -0.0257
     11  C11        5.3180   29.9170   36.8120 C.3   301  RET301      0.0510
     12  C12        6.0150   30.2000   37.9670 C.2   301  RET301     -0.0299
     13  C13        6.2940   29.1720   38.9630 C.2   301  RET301     -0.0478
     14  C14        6.9820   29.6360   40.0440 C.3   301  RET301      0.0217
     15  C15        7.7570   28.7230   40.8670 C.3   301  RET301      0.0047
     16  C16        5.7010   35.0760   32.9460 C.3   301  RET301      0.0043
     17  C17        3.6390   35.6470   34.3790 C.3   301  RET301      0.0043
     18  C18        2.1590   32.7170   30.5640 C.3   301  RET301      0.0260
     19  C19        3.8200   29.8340   34.2450 C.3   301  RET301      0.0307
     20  C20        5.8360   27.7700   38.7790 C.3   301  RET301      0.0260
@<TRIPOS>BOND
     1     4     3    1
     2     4     5    1
     3    18     5    1
     4     3     2    1
     5     5     6    2
     6     2     1    1
     7     6     1    1
     8     6     7    1
     9     1    16    1
    10     1    17    1
    11     7     8    2
    12     8     9    1
    13    19     9    1
    14     9    10    2
    15    10    11    1
    16    11    12    1
    17    12    13    2
    18    20    13    1
    19    13    14    1
    20    14    15    1
