@<TRIPOS>MOLECULE
1s8l_RET_A_1.pdb
 20 20 0 0 0
SMALL
GASTEIGER

@<TRIPOS>ATOM
      1  C1         4.2580   35.3030   32.7940 C.3   301  RET301      0.0183
      2  C2         3.9980   36.5160   31.8970 C.3   301  RET301      0.0044
      3  C3         2.7800   36.4550   31.0850 C.3   301  RET301      0.0047
      4  C4         2.6440   35.1720   30.3150 C.3   301  RET301      0.0217
      5  C5         2.9020   33.9230   31.1420 C.2   301  RET301     -0.0479
      6  C6         3.6240   33.9940   32.2760 C.2   301  RET301     -0.0307
      7  C7         3.7470   32.7230   32.9760 C.2   301  RET301     -0.0052
      8  C8         4.3990   32.4530   34.1360 C.2   301  RET301     -0.0049
      9  C9         4.4690   31.1710   34.8030 C.2   301  RET301     -0.0261
     10  C10        5.1790   31.2060   35.9630 C.2   301  RET301     -0.0300
     11  C11        5.3390   29.9950   36.7940 C.3   301  RET301      0.0300
     12  C12        6.0670   30.2710   37.9290 C.3   301  RET301      0.0264
     13  C13        6.3740   29.2630   38.9390 C.2   301  RET301     -0.0478
     14  C14        7.0880   29.7700   39.9730 C.2   301  RET301     -0.0342
     15  C15        7.6480   28.9150   41.0060 C.3   301  RET301      0.0300
     16  C16        5.8090   35.1020   32.9290 C.3   301  RET301      0.0043
     17  C17        3.6640   35.7930   34.1850 C.3   301  RET301      0.0043
     18  C18        2.2380   32.7460   30.5190 C.3   301  RET301      0.0260
     19  C19        3.7990   29.9590   34.2630 C.3   301  RET301      0.0307
     20  C20        5.9220   27.8540   38.8110 C.3   301  RET301      0.0260
@<TRIPOS>BOND
     1     4     3    1
     2     4     5    1
     3    18     5    1
     4     3     2    1
     5     5     6    2
     6     2     1    1
     7     6     1    1
     8     6     7    1
     9     1    16    1
    10     1    17    1
    11     7     8    2
    12     8     9    1
    13    19     9    1
    14     9    10    2
    15    10    11    1
    16    11    12    1
    17    12    13    1
    18    20    13    1
    19    13    14    2
    20    14    15    1
