@<TRIPOS>MOLECULE
1s97_DCT_A_1.pdb
 27 28 0 0 0
SMALL
GASTEIGER

@<TRIPOS>ATOM
      1  N1        16.8380   16.2790   -4.9300 N.am  600  DCT600     -0.1803
      2  C2        16.3360   16.2970   -6.2090 C.1   600  DCT600      0.2756
      3  N3        16.7800   17.1680   -7.1190 N.2   600  DCT600     -0.3024
      4  C4        17.7330   18.0510   -6.8040 C.2   600  DCT600      0.2346
      5  C5        18.3050   18.0980   -5.5020 C.2   600  DCT600      0.0687
      6  C6        17.8270   17.2010   -4.6100 C.2   600  DCT600      0.0835
      7  O2        15.4460   15.4890   -6.5490 O.2   600  DCT600     -0.1925
      8  N4        18.1280   18.8860   -7.7530 N.pl3 600  DCT600     -0.0921
      9  C1'       16.3530   15.3520   -3.9800 C.3   600  DCT600      0.2063
     10  C2'       16.8510   13.9190   -4.2100 C.3   600  DCT600      0.0545
     11  C3'       18.0790   13.8440   -3.3620 C.3   600  DCT600      0.0366
     12  C4'       17.7150   14.7230   -2.1450 C.3   600  DCT600      0.1472
     13  O4'       16.6710   15.6220   -2.6760 O.3   600  DCT600     -0.3366
     14  C5'       18.9150   15.4740   -1.5280 C.3   600  DCT600      0.1785
     15  O5'       18.5110   16.0630   -0.2550 O.3   600  DCT600     -0.3113
     16  PA        18.9040   15.5430    1.2650 P.3   600  DCT600      0.2189
     17  O1A       17.6980   15.6590    2.2200 O.3   600  DCT600     -0.4371
     18  O2A       20.0980   16.2670    1.6040 O.2   600  DCT600     -0.5170
     19  O3A       19.3880   14.0090    1.1430 O.3   600  DCT600     -0.2700
     20  PB        20.7350   13.2390    0.8880 P.3   600  DCT600      0.2277
     21  O1B       20.9750   12.2110    2.0110 O.3   600  DCT600     -0.4368
     22  O2B       21.8180   14.2600    0.7100 O.2   600  DCT600     -0.5168
     23  O3B       20.3000   12.5010   -0.3990 O.3   600  DCT600     -0.2258
     24  PG        19.0290   11.5300   -0.6820 P.3   600  DCT600      0.5373
     25  O1G       17.8130   12.3340   -0.5670 O.3   600  DCT600     -0.1143
     26  O2G       19.2580   10.8980   -2.0090 O.2   600  DCT600     -0.2221
     27  O3G       19.2270   10.5830    0.5460 O.3   600  DCT600     -0.1143
@<TRIPOS>BOND
     1     8     4    1
     2     3     4    2
     3     3     2    2
     4     4     5    1
     5     7     2    2
     6     2     1   am
     7     5     6    2
     8     1     6    1
     9     1     9    1
    10    10     9    1
    11    10    11    1
    12     9    13    1
    13    11    12    1
    14    13    12    1
    15    12    14    1
    16    26    24    2
    17    14    15    1
    18    24    25    1
    19    24    23    1
    20    24    27    1
    21    23    20    1
    22    15    16    1
    23    22    20    2
    24    20    19    1
    25    20    21    1
    26    19    16    1
    27    16    18    2
    28    16    17    1
