@<TRIPOS>MOLECULE
1s9d_AFB_A_1.pdb
 20 21 0 0 0
SMALL
GASTEIGER

@<TRIPOS>ATOM
      1  OC7       28.6040    9.4920   25.9500 O.3   403  AFB403     -0.2231
      2  C7        28.3140   10.1080   27.3490 C.3   403  AFB403      0.1521
      3  C8        26.8220    9.8440   27.5380 C.3   403  AFB403      0.0330
      4  C6        28.9300    9.1740   28.2920 C.3   403  AFB403      0.0354
      5  C5        28.0640    9.4490   29.5860 C.3   403  AFB403      0.0331
      6  C9        26.8360   10.2210   29.0770 C.3   403  AFB403      0.0050
      7  C10       25.4980    9.7260   29.7630 C.3   403  AFB403      0.0002
      8  C11       24.5890   10.5920   30.3680 C.3   403  AFB403      0.0000
      9  C12       23.4900    9.9400   30.9870 C.3   403  AFB403      0.0001
     10  C13       23.6040   10.1210   32.5490 C.3   403  AFB403      0.0037
     11  C14       23.5580   11.6720   32.8890 C.3   403  AFB403      0.0436
     12  C15       24.7150   11.9680   33.8780 C.3   403  AFB403      0.1689
     13  C16       24.6590   13.4860   34.4880 C.3   403  AFB403      0.0473
     14  O16       26.0710   11.7200   33.2330 O.3   403  AFB403     -0.4523
     15  C1        27.1230   11.1940   33.8750 C.2   403  AFB403      0.3169
     16  OC1       27.0930   11.2200   35.1580 O.2   403  AFB403     -0.2501
     17  C2        28.2040   10.6830   33.0960 C.3   403  AFB403      0.1122
     18  C3        27.9230   10.8600   31.6990 C.3   403  AFB403      0.0445
     19  C4        28.8630   10.3980   30.4750 C.3   403  AFB403      0.1526
     20  OC4       30.0290    9.7530   31.0300 O.3   403  AFB403     -0.2231
@<TRIPOS>BOND
     1     1     2    1
     2     2     3    1
     3     2     4    1
     4     3     6    1
     5     4     5    1
     6     6     5    1
     7     6     7    1
     8     5    19    1
     9     7     8    1
    10     8     9    1
    11    19    20    1
    12    19    18    1
    13     9    10    1
    14    18    17    1
    15    10    11    1
    16    11    12    1
    17    17    15    1
    18    14    15    1
    19    14    12    1
    20    15    16    2
    21    12    13    1
