@<TRIPOS>MOLECULE
1s9d_GDP_A_1.pdb
 28 30 0 0 0
SMALL
GASTEIGER

@<TRIPOS>ATOM
      1  PB        40.9590    5.6470   34.2030 P.3   401  GDP401      0.5373
      2  O1B       39.8120    5.7450   35.2290 O.3   401  GDP401     -0.1143
      3  O2B       41.3240    7.0750   33.7700 O.3   401  GDP401     -0.1143
      4  O3B       40.6710    4.7760   33.0250 O.2   401  GDP401     -0.2221
      5  O3A       42.2730    5.1410   34.9910 O.3   401  GDP401     -0.2261
      6  PA        42.4490    4.4340   36.4200 P.3   401  GDP401      0.2231
      7  O1A       42.1950    5.3680   37.5310 O.3   401  GDP401     -0.4370
      8  O2A       41.6410    3.1670   36.3120 O.2   401  GDP401     -0.5169
      9  O5'       44.0320    4.1280   36.4220 O.3   401  GDP401     -0.3111
     10  C5'       44.5680    3.2440   35.4490 C.3   401  GDP401      0.1813
     11  C4'       45.7970    2.5710   36.0950 C.3   401  GDP401      0.1799
     12  O4'       46.8330    3.5010   36.4060 O.3   401  GDP401     -0.3326
     13  C3'       45.4780    1.8420   37.3830 C.3   401  GDP401      0.2158
     14  O3'       46.1670    0.6140   37.3630 O.3   401  GDP401     -0.2175
     15  C2'       45.9410    2.7880   38.4380 C.3   401  GDP401      0.2310
     16  O2'       46.2960    2.2800   39.7250 O.3   401  GDP401     -0.2158
     17  C1'       47.1490    3.4280   37.8020 C.3   401  GDP401      0.2293
     18  N9        47.4290    4.7540   38.2200 N.pl3 401  GDP401     -0.2354
     19  C8        46.5340    5.8390   38.3610 C.3   401  GDP401      0.2246
     20  N7        47.2320    6.9030   38.7060 N.2   401  GDP401     -0.2322
     21  C5        48.5470    6.5280   38.7680 C.2   401  GDP401      0.2182
     22  C6        49.7470    7.1990   39.0740 C.1   401  GDP401      0.2372
     23  O6        49.8250    8.3750   39.3650 O.2   401  GDP401     -0.2069
     24  N1        50.9240    6.4990   39.0790 N.2   401  GDP401     -0.2485
     25  C2        50.9490    5.1710   38.7510 C.1   401  GDP401      0.2531
     26  N2        52.1490    4.5510   38.5740 N.pl3 401  GDP401     -0.0226
     27  N3        49.7970    4.5220   38.4500 N.2   401  GDP401     -0.3074
     28  C4        48.6330    5.1950   38.4780 C.2   401  GDP401      0.2300
@<TRIPOS>BOND
     1     4     1    2
     2     3     1    1
     3     1     5    1
     4     1     2    1
     5     5     6    1
     6    10    11    1
     7    10     9    1
     8    11    12    1
     9    11    13    1
    10     8     6    2
    11    12    17    1
    12     6     9    1
    13     6     7    1
    14    14    13    1
    15    13    15    1
    16    17    18    1
    17    17    15    1
    18    18    19    1
    19    18    28    1
    20    19    20    1
    21    15    16    1
    22    27    28    2
    23    27    25    2
    24    28    21    1
    25    26    25    1
    26    20    21    2
    27    25    24    2
    28    21    22    1
    29    22    24    2
    30    22    23    2
