@<TRIPOS>MOLECULE
1s9e_ADB_A_1.pdb
 25 27 0 0 0
SMALL
GASTEIGER

@<TRIPOS>ATOM
      1  C1       145.3930  -22.3840   74.0050 C.ar  701  ADB701      0.1821
      2  O7       145.1150  -22.0570   72.7220 O.3   701  ADB701     -0.3723
      3  C2       144.7400  -21.6730   75.0880 C.ar  701  ADB701      0.0941
      4 CL2       143.5520  -20.4300   74.7920 Cl    701  ADB701     -0.0790
      5  C3       145.0380  -22.0140   76.4350 C.ar  701  ADB701      0.0146
      6  C4       146.0110  -23.0190   76.7030 C.ar  701  ADB701      0.0019
      7  C5       146.6650  -23.7120   75.6370 C.ar  701  ADB701      0.0146
      8  C6       146.3900  -23.3930   74.3040 C.ar  701  ADB701      0.0941
      9 CL6       147.2340  -24.2670   73.0480 Cl    701  ADB701     -0.0790
     10  C8       144.3640  -22.7900   71.9010 C.1   701  ADB701      0.3369
     11  N1       144.0610  -24.0510   72.2620 N.2   701  ADB701     -0.2271
     12  C9       143.2890  -24.8200   71.4730 C.1   701  ADB701      0.2478
     13  N5       142.9490  -26.1050   71.7760 N.pl3 701  ADB701     -0.1242
     14  N2       142.8800  -24.3180   70.2810 N.2   701  ADB701     -0.2422
     15  C10      143.1920  -23.0510   69.9090 C.1   701  ADB701      0.2644
     16  N4       142.7560  -22.5400   68.6710 N.pl3 701  ADB701     -0.0219
     17  N3       143.9610  -22.2820   70.7170 N.2   701  ADB701     -0.2259
     18  C11      143.2880  -26.8470   72.8920 C.ar  701  ADB701      0.0836
     19  C12      142.5820  -28.0610   73.0980 C.ar  701  ADB701      0.0181
     20  C13      142.8970  -28.9220   74.1950 C.ar  701  ADB701      0.0116
     21  C14      143.9360  -28.5780   75.1090 C.ar  701  ADB701      0.0685
     22  C15      144.6610  -27.3570   74.9380 C.ar  701  ADB701      0.0116
     23  C16      144.3440  -26.4960   73.8360 C.ar  701  ADB701      0.0181
     24  C17      144.2380  -29.4950   76.1860 C.1   701  ADB701      0.1004
     25  N6       144.4920  -30.2610   77.0370 N.1   701  ADB701     -0.1908
@<TRIPOS>BOND
     1    16    15    1
     2    15    14    2
     3    15    17    2
     4    14    12    2
     5    17    10    2
     6    12    13    1
     7    12    11    2
     8    13    18    1
     9    10    11    2
    10    10     2    1
    11     2     1    1
    12    18    19   ar
    13    18    23   ar
    14     9     8    1
    15    19    20   ar
    16    23    22   ar
    17     1     8   ar
    18     1     3   ar
    19    20    21   ar
    20     8     7   ar
    21     4     3    1
    22    22    21   ar
    23     3     5   ar
    24    21    24    1
    25     7     6   ar
    26    24    25    3
    27     5     6   ar
