@<TRIPOS>MOLECULE
1s9f_DDY_A_1.pdb
 23 24 0 0 0
SMALL
GASTEIGER

@<TRIPOS>ATOM
      1  C4        16.1650   17.8400   -5.4590 C.2   4010  DDY4010     0.2346
      2  PB        20.5140   15.6070    1.1860 P.3   4010  DDY4010     0.5373
      3  PA        19.1320   13.5360   -0.2900 P.3   4010  DDY4010     0.2231
      4  C2        15.0670   15.6630   -5.5210 C.1   4010  DDY4010     0.2756
      5  C5        16.5930   17.6020   -4.1460 C.2   4010  DDY4010     0.0687
      6  O2        14.4180   14.8160   -6.1360 O.2   4010  DDY4010    -0.1925
      7  O3B       21.8380   14.7710    0.8750 O.2   4010  DDY4010    -0.2221
      8  O1B       20.0750   15.2390    2.5460 O.3   4010  DDY4010    -0.1143
      9  O2B       20.7760   17.0310    0.9090 O.3   4010  DDY4010    -0.1143
     10  O3A       19.4410   15.0880    0.0720 O.3   4010  DDY4010    -0.2261
     11  O1A       19.0290   12.7080    0.9160 O.3   4010  DDY4010    -0.4370
     12  O2A       20.0910   13.1130   -1.3320 O.2   4010  DDY4010    -0.5169
     13  O5'       17.6850   13.6810   -0.9700 O.3   4010  DDY4010    -0.3112
     14  C5'       16.5310   12.9980   -0.4730 C.3   4010  DDY4010     0.1785
     15  C4'       15.4680   12.9550   -1.5780 C.3   4010  DDY4010     0.1472
     16  O4'       15.1120   14.2920   -2.0300 O.3   4010  DDY4010    -0.3366
     17  C3'       15.9960   12.3920   -2.6670 C.3   4010  DDY4010     0.0366
     18  C2'       15.7580   13.1020   -3.7530 C.3   4010  DDY4010     0.0545
     19  C1'       15.0380   14.1830   -3.4790 C.3   4010  DDY4010     0.2063
     20  N1        15.4880   15.4200   -4.1910 N.am  4010  DDY4010    -0.1803
     21  C6        16.2580   16.3960   -3.5130 C.2   4010  DDY4010     0.0835
     22  N4        16.4620   18.9910   -6.0610 N.pl3 4010  DDY4010    -0.0921
     23  N3        15.4070   16.8750   -6.1450 N.2   4010  DDY4010    -0.3024
@<TRIPOS>BOND
     1    23     4    2
     2    23     1    2
     3     6     4    2
     4    22     1    1
     5     4    20   am
     6     1     5    1
     7    20    21    1
     8    20    19    1
     9     5    21    2
    10    18    19    1
    11    18    17    1
    12    19    16    1
    13    17    15    1
    14    16    15    1
    15    15    14    1
    16    12     3    2
    17    13    14    1
    18    13     3    1
    19     3    10    1
    20     3    11    1
    21    10     2    1
    22     7     2    2
    23     9     2    1
    24     2     8    1
