@<TRIPOS>MOLECULE
1s9g_ABZ_A_1.pdb
 27 30 0 0 0
SMALL
GASTEIGER

@<TRIPOS>ATOM
      1  C1       142.8490  -23.5090   73.8520 C.2   701  ABZ701     -0.0071
      2  C7       143.6550  -24.4410   72.9740 C.3   701  ABZ701      0.1503
      3  C2       142.1500  -22.3420   73.4700 C.2   701  ABZ701      0.0138
      4  N10      140.7870  -20.5840   73.6840 N.2   701  ABZ701     -0.2439
      5  C3       141.2950  -21.6440   74.3190 C.2   701  ABZ701      0.0806
      6  C4       141.0860  -22.0420   75.6490 C.2   701  ABZ701      0.0160
      7  C5       141.8180  -23.1650   76.0770 C.2   701  ABZ701     -0.0046
      8  C6       142.6990  -23.8680   75.2060 C.3   701  ABZ701      0.1212
      9  C25      142.1010  -21.5510   72.1750 C.2   701  ABZ701      0.0216
     10  C8       142.8380  -24.8850   71.7910 C.1   701  ABZ701      0.1439
     11  N1       143.0450  -24.2270   70.6370 N.2   701  ABZ701     -0.2627
     12  C9       142.2310  -24.4070   69.6140 C.1   701  ABZ701      0.2451
     13  N5       142.4200  -23.6040   68.4820 N.pl3 701  ABZ701     -0.1243
     14  N2       141.1870  -25.3060   69.7140 N.2   701  ABZ701     -0.2423
     15  C10      140.9900  -26.0170   70.8940 C.1   701  ABZ701      0.2619
     16  N4       139.9680  -26.9990   71.0020 N.pl3 701  ABZ701     -0.0220
     17  N3       141.8170  -25.7960   71.9400 N.2   701  ABZ701     -0.2618
     18  C11      141.3020  -23.1640   67.7570 C.ar  701  ABZ701      0.0836
     19  C12      140.2730  -22.4280   68.4120 C.ar  701  ABZ701      0.0181
     20  C13      139.1240  -22.0220   67.6770 C.ar  701  ABZ701      0.0116
     21  C14      138.9910  -22.3300   66.2790 C.ar  701  ABZ701      0.0685
     22  C15      140.0130  -23.0710   65.6130 C.ar  701  ABZ701      0.0116
     23  C16      141.1710  -23.4880   66.3540 C.ar  701  ABZ701      0.0181
     24  C17      137.8370  -21.8570   65.5430 C.1   701  ABZ701      0.1004
     25  N6       136.8770  -21.4930   64.9500 N.1   701  ABZ701     -0.1908
     26  C26      141.2550  -20.5290   72.4430 C.2   701  ABZ701      0.0989
     27 CL        143.6790  -25.1710   75.8390 Cl    701  ABZ701     -0.1057
@<TRIPOS>BOND
     1    25    24    3
     2    24    21    1
     3    22    21   ar
     4    22    23   ar
     5    21    20   ar
     6    23    18   ar
     7    20    19   ar
     8    18    19   ar
     9    18    13    1
    10    13    12    1
    11    12    14    2
    12    12    11    2
    13    14    15    2
    14    11    10    2
    15    15    16    1
    16    15    17    2
    17    10    17    2
    18    10     2    1
    19     9    26    2
    20     9     3    1
    21    26     4    1
    22     2     1    1
    23     3     1    2
    24     3     5    1
    25     4     5    2
    26     1     8    1
    27     5     6    1
    28     8    27    1
    29     8     7    1
    30     6     7    2
