@<TRIPOS>MOLECULE
1s9i_5EA_A_1.pdb
 31 34 0 0 0
SMALL
GASTEIGER

@<TRIPOS>ATOM
      1  I1        44.7320   95.1820   52.2180 I     1001  5EA1001    -0.0424
      2  C23       42.9050   96.1520   52.5260 C.ar  1001  5EA1001     0.0324
      3  C21       41.8290   95.4480   53.0700 C.ar  1001  5EA1001     0.0073
      4  C16       40.5930   96.0620   53.2820 C.ar  1001  5EA1001     0.0192
      5  C19       42.7790   97.4970   52.1820 C.ar  1001  5EA1001     0.0368
      6  C15       41.5660   98.1500   52.3820 C.ar  1001  5EA1001     0.1556
      7  F20       41.4330   99.4460   52.0570 F     1001  5EA1001    -0.2028
      8  C10       40.4130   97.4100   52.9620 C.ar  1001  5EA1001     0.0979
      9  N5        39.2430   98.0840   53.1420 N.pl3 1001  5EA1001    -0.2077
     10  C2        38.1380   97.6580   53.8080 C.ar  1001  5EA1001     0.1047
     11  C6        38.2120   96.9490   55.1150 C.ar  1001  5EA1001     0.1826
     12  F1        39.3870   96.6730   55.6990 F     1001  5EA1001    -0.2004
     13  C11       36.9530   96.5290   55.7770 C.ar  1001  5EA1001     0.1687
     14  F17       36.9900   95.8800   56.9520 F     1001  5EA1001    -0.2018
     15  C9        35.7300   96.8090   55.1820 C.ar  1001  5EA1001     0.0322
     16  C4        35.6500   97.4820   53.9640 C.ar  1001  5EA1001     0.0085
     17  C1        36.7740   97.9150   53.2600 C.ar  1001  5EA1001     0.0727
     18  C3        36.5390   98.6350   51.9600 C.ar  1001  5EA1001     0.2526
     19  O7        35.2190   98.7530   51.3630 O.2   1001  5EA1001    -0.4037
     20  C13       35.5980   99.5200   50.1910 C.ar  1001  5EA1001     0.3285
     21  N14       36.9070   99.7760   50.1660 N.ar  1001  5EA1001    -0.0909
     22  N8        37.4680   99.2510   51.2230 N.ar  1001  5EA1001    -0.1057
     23  N18       34.7160   99.9120   49.2690 N.pl3 1001  5EA1001    -0.1848
     24  C22       33.6170   99.0620   48.8390 C.3   1001  5EA1001     0.1387
     25  C24       32.3400   99.2640   49.6600 C.3   1001  5EA1001     0.1192
     26  N26       31.4870   98.1000   49.4150 N.pl3 1001  5EA1001    -0.2780
     27  C27       30.7900   98.0430   48.1280 C.2   1001  5EA1001     0.1068
     28  C29       29.9140   96.8090   47.9160 C.2   1001  5EA1001     0.1958
     29  O31       29.8240   95.8140   48.9450 O.2   1001  5EA1001    -0.4446
     30  C30       30.5170   95.9040   50.1980 C.2   1001  5EA1001     0.1958
     31  C28       31.4130   97.1100   50.4890 C.2   1001  5EA1001     0.1068
@<TRIPOS>BOND
     1    28    27    2
     2    28    29    1
     3    27    26    1
     4    24    23    1
     5    24    25    1
     6    29    30    1
     7    23    20    1
     8    26    25    1
     9    26    31    1
    10    21    20   ar
    11    21    22   ar
    12    20    19   ar
    13    30    31    2
    14    22    18   ar
    15    19    18   ar
    16    18    17    1
    17     7     6    1
    18     5     6   ar
    19     5     2   ar
    20     1     2    1
    21     6     8   ar
    22     2     3   ar
    23     8     9    1
    24     8     4   ar
    25     3     4   ar
    26     9    10    1
    27    17    10   ar
    28    17    16   ar
    29    10    11   ar
    30    16    15   ar
    31    11    12    1
    32    11    13   ar
    33    15    13   ar
    34    13    14    1
