@<TRIPOS>MOLECULE
1s9i_ATP_A_1.pdb
 31 33 0 0 0
SMALL
GASTEIGER

@<TRIPOS>ATOM
      1  PG        35.0260  100.2660   45.2550 P.3   535  ATP535      0.5373
      2  O1G       34.2870   98.9870   45.5440 O.3   535  ATP535     -0.1143
      3  O2G       35.7260  100.8460   46.4580 O.3   535  ATP535     -0.1143
      4  O3G       34.2250  101.2550   44.4490 O.2   535  ATP535     -0.2221
      5  PB        36.9860  100.8420   43.3430 P.3   535  ATP535      0.2277
      6  O1B       38.3410  100.2310   43.0960 O.3   535  ATP535     -0.4368
      7  O2B       36.1000  101.2210   42.1830 O.2   535  ATP535     -0.5168
      8  O3B       36.1930   99.7920   44.2670 O.3   535  ATP535     -0.2258
      9  PA        38.3980  102.3000   45.2900 P.3   535  ATP535      0.2189
     10  O1A       38.1970  103.5810   46.0580 O.3   535  ATP535     -0.4371
     11  O2A       38.5470  100.9980   46.0360 O.2   535  ATP535     -0.5170
     12  O3A       37.1620  102.1450   44.2670 O.3   535  ATP535     -0.2700
     13  O5'       39.6890  102.4590   44.3440 O.3   535  ATP535     -0.3112
     14  C5'       39.6970  103.3120   43.2040 C.3   535  ATP535      0.1813
     15  C4'       40.9530  103.0580   42.3770 C.3   535  ATP535      0.1821
     16  O4'       42.1240  103.1630   43.1900 O.3   535  ATP535     -0.3135
     17  C3'       40.9860  101.6690   41.7560 C.3   535  ATP535      0.2184
     18  O3'       40.5120  101.7080   40.4190 O.3   535  ATP535     -0.2174
     19  C2'       42.4390  101.2440   41.8110 C.3   535  ATP535      0.2570
     20  O2'       43.0250  101.3530   40.5260 O.3   535  ATP535     -0.2130
     21  C1'       43.1190  102.2400   42.7380 C.3   535  ATP535      0.3186
     22  N9        43.7600  101.5400   43.8830 N.pl3 535  ATP535     -0.1439
     23  C8        43.1420  101.0560   44.9790 C.3   535  ATP535      0.3377
     24  N7        44.0260  100.4760   45.8280 N.2   535  ATP535     -0.2095
     25  C5        45.2370  100.5830   45.2740 C.2   535  ATP535      0.2526
     26  C6        46.6200  100.1810   45.6350 C.2   535  ATP535      0.4393
     27  N6        46.8720   99.5310   46.7950 N.pl3 535  ATP535      0.2180
     28  N1        47.6070  100.4780   44.7780 N.2   535  ATP535      0.0021
     29  C2        47.3690  101.1240   43.6180 C.3   535  ATP535      0.5254
     30  N3        46.1420  101.5170   43.2260 N.2   535  ATP535     -0.0055
     31  C4        45.0640  101.2840   43.9900 C.2   535  ATP535      0.3518
@<TRIPOS>BOND
     1    18    17    1
     2    20    19    1
     3    17    19    1
     4    17    15    1
     5    19    21    1
     6     7     5    2
     7    15    16    1
     8    15    14    1
     9    21    16    1
    10    21    22    1
    11     6     5    1
    12    14    13    1
    13    30    29    1
    14    30    31    2
    15     5    12    1
    16     5     8    1
    17    29    28    1
    18    22    31    1
    19    22    23    1
    20    31    25    1
    21    12     9    1
    22     8     1    1
    23    13     9    1
    24     4     1    2
    25    28    26    2
    26    23    24    1
    27     1     2    1
    28     1     3    1
    29    25    26    1
    30    25    24    2
    31     9    11    2
    32     9    10    1
    33    26    27    1
