@<TRIPOS>MOLECULE
1s9j_ATP_A_1.pdb
 31 33 0 0 0
SMALL
GASTEIGER

@<TRIPOS>ATOM
      1  PG        28.5990   36.0000   37.1080 P.3   535  ATP535      0.5373
      2  O1G       28.1270   36.7060   35.8680 O.2   535  ATP535     -0.2221
      3  O2G       29.4720   34.8090   36.8230 O.3   535  ATP535     -0.1143
      4  O3G       27.5020   35.7540   38.0850 O.3   535  ATP535     -0.1143
      5  PB        30.5860   36.8320   38.9730 P.3   535  ATP535      0.2277
      6  O1B       31.6000   35.8300   38.4930 O.2   535  ATP535     -0.5168
      7  O2B       31.0540   38.1810   39.4300 O.3   535  ATP535     -0.4368
      8  O3B       29.5360   37.1090   37.7890 O.3   535  ATP535     -0.2258
      9  PA        30.3070   35.3530   41.3850 P.3   535  ATP535      0.2189
     10  O1A       29.1950   35.0770   42.3500 O.3   535  ATP535     -0.4371
     11  O2A       31.1000   34.1980   40.8450 O.2   535  ATP535     -0.5170
     12  O3A       29.6950   36.1710   40.1400 O.3   535  ATP535     -0.2700
     13  O5'       31.3120   36.3800   42.0970 O.3   535  ATP535     -0.3112
     14  C5'       30.8500   37.6380   42.5730 C.3   535  ATP535      0.1813
     15  C4'       32.0060   38.5730   42.9150 C.3   535  ATP535      0.1821
     16  O4'       32.6160   38.1550   44.1370 O.3   535  ATP535     -0.3135
     17  C3'       33.1190   38.6510   41.8750 C.3   535  ATP535      0.2184
     18  O3'       32.9460   39.7540   40.9980 O.3   535  ATP535     -0.2174
     19  C2'       34.3910   38.7930   42.6870 C.3   535  ATP535      0.2570
     20  O2'       34.8400   40.1400   42.6980 O.3   535  ATP535     -0.2130
     21  C1'       34.0270   38.3580   44.0970 C.3   535  ATP535      0.3186
     22  N9        34.7180   37.0970   44.4560 N.pl3 535  ATP535     -0.1439
     23  C8        34.3070   35.8520   44.1530 C.3   535  ATP535      0.3377
     24  N7        35.1760   34.9330   44.6380 N.2   535  ATP535     -0.2095
     25  C5        36.1610   35.5860   45.2590 C.2   535  ATP535      0.2526
     26  C6        37.4020   35.2260   45.9880 C.2   535  ATP535      0.4393
     27  N6        37.7690   33.9350   46.1520 N.pl3 535  ATP535      0.2180
     28  N1        38.1480   36.2220   46.4790 N.2   535  ATP535      0.0021
     29  C2        37.8090   37.5160   46.3310 C.3   535  ATP535      0.5254
     30  N3        36.6990   37.9080   45.6810 N.2   535  ATP535     -0.0055
     31  C4        35.8580   37.0180   45.1380 C.2   535  ATP535      0.3518
@<TRIPOS>BOND
     1     2     1    2
     2     3     1    1
     3     1     8    1
     4     1     4    1
     5     8     5    1
     6     6     5    2
     7     5     7    1
     8     5    12    1
     9    12     9    1
    10    11     9    2
    11    18    17    1
    12     9    13    1
    13     9    10    1
    14    17    19    1
    15    17    15    1
    16    13    14    1
    17    14    15    1
    18    19    20    1
    19    19    21    1
    20    15    16    1
    21    21    16    1
    22    21    22    1
    23    23    22    1
    24    23    24    1
    25    22    31    1
    26    24    25    2
    27    31    25    1
    28    31    30    2
    29    25    26    1
    30    30    29    1
    31    26    27    1
    32    26    28    2
    33    29    28    1
