@<TRIPOS>MOLECULE
1s9j_BBM_A_1.pdb
 27 28 0 0 0
SMALL
GASTEIGER

@<TRIPOS>ATOM
      1  O1        30.5520   29.2310   41.1140 O.2   1001  BBM1001    -0.2661
      2  C7        30.6710   28.8580   39.9590 C.2   1001  BBM1001     0.2914
      3  N2        30.5990   29.7130   38.9400 N.am  1001  BBM1001    -0.0577
      4  O4        30.0090   31.0060   39.1500 O.3   1001  BBM1001    -0.2409
      5  C15       28.7110   31.3130   38.6420 C.3   1001  BBM1001     0.2088
      6  C16       27.6940   31.3760   39.7790 C.3   1001  BBM1001     0.2167
      7  C17       26.4280   32.0590   39.2780 C.3   1001  BBM1001     0.2175
      8  O3        26.6650   33.4660   39.1650 O.3   1001  BBM1001    -0.2175
      9  O2        28.2140   32.1040   40.9000 O.3   1001  BBM1001    -0.2175
     10  C8        30.8490   27.3870   39.7070 C.ar  1001  BBM1001     0.0752
     11  C9        30.2750   26.8430   38.5550 C.ar  1001  BBM1001     0.0150
     12  C10       30.3740   25.4870   38.2430 C.ar  1001  BBM1001     0.0645
     13 BR         29.5640   24.8390   36.6610 Br    1001  BBM1001    -0.0466
     14  C11       31.0940   24.5360   39.1320 C.ar  1001  BBM1001     0.1748
     15  F1        31.1740   23.2360   38.7450 F     1001  BBM1001    -0.2012
     16  C12       31.7170   25.0610   40.3880 C.ar  1001  BBM1001     0.1831
     17  F2        32.3610   24.2630   41.2770 F     1001  BBM1001    -0.2004
     18  C13       31.5990   26.5190   40.6780 C.ar  1001  BBM1001     0.1047
     19  N         32.1820   27.0300   41.8040 N.pl3 1001  BBM1001    -0.2077
     20  C3        33.5490   27.0540   42.0240 C.ar  1001  BBM1001     0.0979
     21  C26       34.0850   27.8970   43.1240 C.ar  1001  BBM1001     0.1556
     22  F3        33.2220   28.6210   43.8530 F     1001  BBM1001    -0.2028
     23  C4        34.4990   26.3190   41.3010 C.ar  1001  BBM1001     0.0192
     24  C5        35.8650   26.3930   41.6110 C.ar  1001  BBM1001     0.0073
     25  C6        36.3600   27.1900   42.6490 C.ar  1001  BBM1001     0.0324
     26  I         38.4310   27.2560   43.0530 I     1001  BBM1001    -0.0424
     27  C1        35.4560   27.9410   43.3970 C.ar  1001  BBM1001     0.0368
@<TRIPOS>BOND
     1    13    12    1
     2    12    11   ar
     3    12    14   ar
     4    11    10   ar
     5     5     4    1
     6     5     6    1
     7    15    14    1
     8     3     4    1
     9     3     2   am
    10    14    16   ar
    11     8     7    1
    12     7     6    1
    13    10     2    1
    14    10    18   ar
    15     6     9    1
    16     2     1    2
    17    16    18   ar
    18    16    17    1
    19    18    19    1
    20    23    24   ar
    21    23    20   ar
    22    24    25   ar
    23    19    20    1
    24    20    21   ar
    25    25    26    1
    26    25    27   ar
    27    21    27   ar
    28    21    22    1
