@<TRIPOS>MOLECULE
1s9p_DES_A_1.pdb
 20 21 0 0 0
SMALL
GASTEIGER

@<TRIPOS>ATOM
      1  CP9       59.6010   35.2420   55.6180 C.3   459  DES459      0.0050
      2  CP8       59.2280   35.7570   56.9700 C.3   459  DES459      0.0260
      3  CP7       58.7540   34.7110   58.0050 C.2   459  DES459     -0.0261
      4  CP6       59.8900   33.8160   58.5420 C.ar  459  DES459     -0.0041
      5  CP1       60.6160   34.1790   59.7180 C.ar  459  DES459      0.0030
      6  CP2       61.6620   33.3390   60.2210 C.ar  459  DES459      0.0420
      7  CP3       61.9790   32.1350   59.5410 C.ar  459  DES459      0.1957
      8  OP3       62.9760   31.2890   59.9850 O.3   459  DES459     -0.2866
      9  CP4       61.2740   31.7540   58.3700 C.ar  459  DES459      0.0420
     10  CP5       60.2410   32.5930   57.8860 C.ar  459  DES459      0.0030
     11  C7        57.4770   34.5750   58.4340 C.2   459  DES459     -0.0261
     12  C6        56.2940   35.4400   57.9420 C.ar  459  DES459     -0.0041
     13  C5        55.5750   35.0850   56.7570 C.ar  459  DES459      0.0030
     14  C4        54.4700   35.8690   56.3020 C.ar  459  DES459      0.0420
     15  C3        54.0740   37.0170   57.0320 C.ar  459  DES459      0.1957
     16  O3        53.0110   37.7960   56.6300 O.3   459  DES459     -0.2866
     17  C2        54.7690   37.4000   58.2150 C.ar  459  DES459      0.0420
     18  C1        55.8770   36.6030   58.6570 C.ar  459  DES459      0.0030
     19  C8        57.0110   33.5380   59.4830 C.3   459  DES459      0.0260
     20  C9        57.1150   34.0040   60.9190 C.3   459  DES459      0.0050
@<TRIPOS>BOND
     1     1     2    1
     2    14    13   ar
     3    14    15   ar
     4    16    15    1
     5    13    12   ar
     6     2     3    1
     7    15    17   ar
     8    10     9   ar
     9    10     4   ar
    10    12    11    1
    11    12    18   ar
    12     3    11    2
    13     3     4    1
    14    17    18   ar
    15     9     7   ar
    16    11    19    1
    17     4     5   ar
    18    19    20    1
    19     7     8    1
    20     7     6   ar
    21     5     6   ar
