@<TRIPOS>MOLECULE
1s9q_OHT_A_1.pdb
 29 31 0 0 0
SMALL
GASTEIGER

@<TRIPOS>ATOM
      1  C10       16.2500   39.2730   26.4460 C.3   200  OHT200      0.0004
      2  C9        17.5730   38.8900   27.0630 C.3   200  OHT200      0.0050
      3  C8        17.9290   39.8320   28.2030 C.3   200  OHT200      0.0304
      4  C11       17.0170   39.6990   29.3920 C.ar  200  OHT200     -0.0219
      5  C16       16.2690   40.8410   29.8360 C.ar  200  OHT200     -0.0043
      6  C15       15.3440   40.7590   31.0500 C.ar  200  OHT200     -0.0003
      7  C14       15.2340   39.4010   31.7930 C.ar  200  OHT200     -0.0000
      8  C13       16.0710   38.2590   31.2330 C.ar  200  OHT200     -0.0003
      9  C12       16.8970   38.4670   30.0920 C.ar  200  OHT200     -0.0043
     10  C7        19.0170   40.7070   28.1490 C.3   200  OHT200      0.0486
     11  C1        19.7120   41.1200   26.8510 C.ar  200  OHT200     -0.0179
     12  C2        21.1150   40.7520   26.7410 C.ar  200  OHT200     -0.0007
     13  C3        21.8420   41.1070   25.5910 C.ar  200  OHT200      0.0417
     14  C4        21.1020   41.8800   24.4850 C.ar  200  OHT200      0.1957
     15  O4        21.8010   42.2260   23.3740 O.3   200  OHT200     -0.2866
     16  C5        19.7200   42.2140   24.6390 C.ar  200  OHT200      0.0417
     17  C6        19.0550   41.8330   25.8110 C.ar  200  OHT200     -0.0007
     18  C17       19.6330   41.3400   29.3630 C.ar  200  OHT200     -0.0179
     19  C18       19.9590   40.4890   30.6490 C.ar  200  OHT200     -0.0008
     20  C19       20.5390   41.2270   31.6840 C.ar  200  OHT200      0.0366
     21  C20       20.8210   42.6050   31.6080 C.ar  200  OHT200      0.1386
     22  O20       21.4010   43.2800   32.6550 O.3   200  OHT200     -0.4740
     23  C23       21.7170   44.6720   32.5660 C.3   200  OHT200      0.2226
     24  C24       22.0740   45.1320   33.9930 C.3   200  OHT200      0.1201
     25  N24       23.3940   44.7630   34.4020 N.3   200  OHT200     -0.2672
     26  C25       24.1240   45.9170   34.9010 C.3   200  OHT200      0.0898
     27  C26       23.3270   43.7710   35.4770 C.3   200  OHT200      0.0898
     28  C21       20.5110   43.3440   30.4360 C.ar  200  OHT200      0.0366
     29  C22       19.9380   42.7270   29.3650 C.ar  200  OHT200     -0.0008
@<TRIPOS>BOND
     1    15    14    1
     2    14    16   ar
     3    14    13   ar
     4    16    17   ar
     5    13    12   ar
     6    17    11   ar
     7     1     2    1
     8    12    11   ar
     9    11    10    1
    10     2     3    1
    11    10     3    1
    12    10    18    1
    13     3     4    1
    14    18    29   ar
    15    18    19   ar
    16    29    28   ar
    17     4     5   ar
    18     4     9   ar
    19     5     6   ar
    20     9     8   ar
    21    28    21   ar
    22    19    20   ar
    23     6     7   ar
    24     8     7   ar
    25    21    20   ar
    26    21    22    1
    27    23    22    1
    28    23    24    1
    29    24    25    1
    30    25    26    1
    31    25    27    1
