@<TRIPOS>MOLECULE
1s9r_ARG_A_1.pdb
 11 10 0 0 0
SMALL
GASTEIGER

@<TRIPOS>ATOM
      1  N         45.8220   40.4200   -7.1620 N.3   950  ARG950     -0.1208
      2  CA        45.9950   40.6350   -5.6860 C.3   950  ARG950      0.1944
      3  C         46.1470   39.3110   -4.9600 C.2   950  ARG950      0.3819
      4  O         46.8950   39.2620   -3.9530 O.co2 950  ARG950     -0.2441
      5  CB        44.8050   41.4000   -5.0980 C.3   950  ARG950      0.0327
      6  CG        44.9510   41.6440   -3.5910 C.3   950  ARG950      0.0284
      7  CD        43.8050   42.4620   -3.0270 C.3   950  ARG950      0.1272
      8  NE        44.0570   42.7690   -1.6210 N.2   950  ARG950     -0.2512
      9  CZ        43.3470   43.7500   -0.8840 C.2   950  ARG950      0.2001
     10  NH1       43.8240   44.1160    0.3610 N.pl3 950  ARG950     -0.1044
     11  OXT       45.5320   38.3290   -5.4180 O.co2 950  ARG950     -0.2441
@<TRIPOS>BOND
     1     1     2    1
     2     2     5    1
     3     2     3    1
     4    11     3   ar
     5     5     6    1
     6     3     4   ar
     7     6     7    1
     8     7     8    1
     9     8     9    2
    10     9    10    1
