@<TRIPOS>MOLECULE
1s9t_QUS_A_1.pdb
 13 13 0 0 0
SMALL
GASTEIGER

@<TRIPOS>ATOM
      1  C01       32.8100   13.5360   39.4970 C.2   1001  QUS1001     0.3838
      2  C02       33.0680   14.4890   38.3090 C.3   1001  QUS1001     0.2184
      3  C03       34.5520   14.8980   38.3650 C.3   1001  QUS1001     0.1793
      4  C04       35.0340   14.2410   35.9650 C.1   1001  QUS1001     0.3141
      5  C05       34.4400   16.2330   35.1590 C.1   1001  QUS1001     0.4071
      6  NP3       32.0570   15.5950   38.4350 N.3   1001  QUS1001    -0.1188
      7  N14       35.0990   15.1350   37.0180 N.am  1001  QUS1001    -0.0527
      8  N15       34.6380   14.9360   34.8770 N.2   1001  QUS1001    -0.2120
      9  O16       31.8790   13.7860   40.2880 O.co2 1001  QUS1001    -0.2440
     10  O17       33.5670   12.5240   39.6130 O.co2 1001  QUS1001    -0.2440
     11  O18       35.2950   13.0690   36.0770 O.2   1001  QUS1001    -0.1893
     12  O19       34.0890   17.1520   34.4460 O.2   1001  QUS1001    -0.1667
     13  O20       34.7110   16.4180   36.4920 O.3   1001  QUS1001    -0.2752
@<TRIPOS>BOND
     1    12     5    2
     2     8     5    2
     3     8     4    2
     4     5    13    1
     5     4    11    2
     6     4     7   am
     7    13     7    1
     8     7     3    1
     9     2     3    1
    10     2     6    1
    11     2     1    1
    12     1    10   ar
    13     1     9   ar
