@<TRIPOS>MOLECULE
1sa0_GTP_A_1.pdb
 32 34 0 0 0
SMALL
GASTEIGER

@<TRIPOS>ATOM
      1  PG       123.1100   92.6060   17.8220 P.3   600  GTP600      0.5373
      2  O1G      123.7920   91.2820   17.6290 O.3   600  GTP600     -0.1143
      3  O2G      122.4620   92.7780   19.2180 O.3   600  GTP600     -0.1143
      4  O3G      121.8970   92.9250   16.8750 O.2   600  GTP600     -0.2221
      5  O3B      124.2750   93.7360   17.6700 O.3   600  GTP600     -0.2258
      6  PB       123.7900   95.2910   17.6760 P.3   600  GTP600      0.2277
      7  O1B      124.8040   96.0580   18.4620 O.3   600  GTP600     -0.4368
      8  O2B      122.2540   95.3880   18.0820 O.2   600  GTP600     -0.5168
      9  O3A      123.9990   95.7730   16.1260 O.3   600  GTP600     -0.2700
     10  PA       125.2220   95.3500   15.1480 P.3   600  GTP600      0.2189
     11  O1A      124.9770   94.0730   14.4160 O.2   600  GTP600     -0.5170
     12  O2A      126.4680   95.2620   16.0300 O.3   600  GTP600     -0.4371
     13  O5'      125.2300   96.6490   14.2010 O.3   600  GTP600     -0.3112
     14  C5'      124.8780   96.5680   12.8400 C.3   600  GTP600      0.1813
     15  C4'      125.8490   97.5000   12.1250 C.3   600  GTP600      0.1799
     16  O4'      127.1290   97.1350   12.5560 O.3   600  GTP600     -0.3326
     17  C3'      125.8700   97.4120   10.6070 C.3   600  GTP600      0.2158
     18  O3'      126.1560   98.7390   10.2130 O.3   600  GTP600     -0.2175
     19  C2'      127.0100   96.4680   10.2670 C.3   600  GTP600      0.2310
     20  O2'      127.6170   96.7430    9.0140 O.3   600  GTP600     -0.2158
     21  C1'      127.9280   96.7300   11.4570 C.3   600  GTP600      0.2293
     22  N9       128.7870   95.6390   11.9460 N.pl3 600  GTP600     -0.2354
     23  C8       128.4150   94.4970   12.6000 C.3   600  GTP600      0.2246
     24  N7       129.5270   93.7840   12.9030 N.2   600  GTP600     -0.2322
     25  C5       130.6020   94.4780   12.4740 C.2   600  GTP600      0.2182
     26  C6       131.9600   94.2230   12.5260 C.1   600  GTP600      0.2372
     27  O6       132.3470   93.1880   13.0400 O.2   600  GTP600     -0.2069
     28  N1       132.8490   95.1280   11.9970 N.2   600  GTP600     -0.2485
     29  C2       132.3570   96.2760   11.4200 C.1   600  GTP600      0.2531
     30  N2       133.1620   97.1750   10.9070 N.pl3 600  GTP600     -0.0226
     31  N3       131.0210   96.5310   11.3610 N.2   600  GTP600     -0.3074
     32  C4       130.1510   95.6460   11.8830 C.2   600  GTP600      0.2300
@<TRIPOS>BOND
     1    20    19    1
     2    18    17    1
     3    19    17    1
     4    19    21    1
     5    17    15    1
     6    30    29    1
     7    31    29    2
     8    31    32    2
     9    29    28    2
    10    21    22    1
    11    21    16    1
    12    32    22    1
    13    32    25    1
    14    22    23    1
    15    28    26    2
    16    15    16    1
    17    15    14    1
    18    25    26    1
    19    25    24    2
    20    26    27    2
    21    23    24    1
    22    14    13    1
    23    13    10    1
    24    11    10    2
    25    10    12    1
    26    10     9    1
    27     9     6    1
    28     4     1    2
    29     2     1    1
    30     5     6    1
    31     5     1    1
    32     6     8    2
    33     6     7    1
    34     1     3    1
