@<TRIPOS>MOLECULE
1sa0_GDP_B_1.pdb
 28 30 0 0 0
SMALL
GASTEIGER

@<TRIPOS>ATOM
      1  PB        90.2190   72.3930    5.7840 P.3   602  GDP602      0.5373
      2  O1B       90.1220   73.7150    6.4420 O.3   602  GDP602     -0.1143
      3  O2B       91.5760   71.7440    6.0680 O.2   602  GDP602     -0.2221
      4  O3B       89.1270   71.3790    6.1800 O.3   602  GDP602     -0.1143
      5  O3A       90.0630   72.7870    4.2380 O.3   602  GDP602     -0.2261
      6  PA        91.0130   72.2600    3.0500 P.3   602  GDP602      0.2231
      7  O1A       92.2250   71.6800    3.6670 O.3   602  GDP602     -0.4370
      8  O2A       90.2590   71.2470    2.1400 O.2   602  GDP602     -0.5169
      9  O5'       91.4280   73.6130    2.2600 O.3   602  GDP602     -0.3111
     10  C5'       90.5240   74.2250    1.3670 C.3   602  GDP602      0.1813
     11  C4'       91.2660   74.9010    0.2270 C.3   602  GDP602      0.1799
     12  O4'       92.6380   74.6650    0.3680 O.3   602  GDP602     -0.3326
     13  C3'       90.8630   74.3190   -1.1160 C.3   602  GDP602      0.2158
     14  O3'       90.1330   75.2770   -1.8340 O.3   602  GDP602     -0.2175
     15  C2'       92.1430   73.9680   -1.8460 C.3   602  GDP602      0.2310
     16  O2'       92.4100   74.7230   -3.0060 O.3   602  GDP602     -0.2158
     17  C1'       93.2240   74.2460   -0.8430 C.3   602  GDP602      0.2293
     18  N9        93.9040   72.9720   -0.6570 N.pl3 602  GDP602     -0.2354
     19  C8        93.3400   71.7980   -0.2480 C.3   602  GDP602      0.2246
     20  N7        94.3200   70.8710   -0.2160 N.2   602  GDP602     -0.2322
     21  C5        95.4850   71.4410   -0.5970 C.2   602  GDP602      0.2182
     22  C6        96.7720   70.9520   -0.7430 C.1   602  GDP602      0.2372
     23  O6        96.9530   69.7430   -0.7150 O.2   602  GDP602     -0.2069
     24  N1        97.7830   71.7870   -1.1640 N.2   602  GDP602     -0.2485
     25  C2        97.5080   73.1060   -1.4440 C.1   602  GDP602      0.2531
     26  N2        98.2450   73.7010   -2.3580 N.pl3 602  GDP602     -0.0226
     27  N3        96.2300   73.5830   -1.2920 N.2   602  GDP602     -0.3074
     28  C4        95.2330   72.7650   -0.8840 C.2   602  GDP602      0.2300
@<TRIPOS>BOND
     1    16    15    1
     2    26    25    1
     3    15    13    1
     4    15    17    1
     5    14    13    1
     6    25    27    2
     7    25    24    2
     8    27    28    2
     9    24    22    2
    10    13    11    1
    11    28    18    1
    12    28    21    1
    13    17    18    1
    14    17    12    1
    15    22    23    2
    16    22    21    1
    17    18    19    1
    18    21    20    2
    19    19    20    1
    20    11    12    1
    21    11    10    1
    22    10     9    1
    23     8     6    2
    24     9     6    1
    25     6     7    1
    26     6     5    1
    27     5     1    1
    28     1     3    2
    29     1     4    1
    30     1     2    1
