@<TRIPOS>MOLECULE
1sa0_CN2_B_1.pdb
 30 32 0 0 0
SMALL
GASTEIGER

@<TRIPOS>ATOM
      1  O4       120.7350   91.5520    5.9610 O.2   700  CN2700     -0.2723
      2  C12      120.6820   91.8840    7.1420 C.2   700  CN2700      0.2535
      3  C13      121.6960   92.7910    7.7370 C.3   700  CN2700      0.1551
      4  S1       123.1800   91.9610    7.1570 S.3   700  CN2700     -0.0718
      5  N1       119.8030   91.4880    8.0270 N.am  700  CN2700     -0.2019
      6  C11      118.7500   90.6100    7.6230 C.3   700  CN2700      0.1179
      7  C14      117.7910   91.3520    6.7180 C.ar  700  CN2700      0.0008
      8  C15      118.0260   92.6930    6.4030 C.ar  700  CN2700      0.0426
      9  C10      118.1960   90.2020    8.9770 C.3   700  CN2700      0.0309
     10  C9       116.7030   89.9150    8.9330 C.3   700  CN2700      0.0287
     11  C8       116.5090   88.8210    7.9340 C.ar  700  CN2700     -0.0160
     12  C7       116.3170   87.5020    8.2800 C.ar  700  CN2700      0.0360
     13  C5       116.1450   86.5400    7.2910 C.ar  700  CN2700      0.1751
     14  C3       116.1900   86.9050    5.9530 C.ar  700  CN2700      0.2060
     15  C1       116.4060   88.2260    5.5990 C.ar  700  CN2700      0.1750
     16  O1       116.4480   88.5720    4.2960 O.3   700  CN2700     -0.4683
     17  C2       115.1980   88.7050    3.6340 C.3   700  CN2700      0.2526
     18  O2       116.0140   85.9530    4.9700 O.3   700  CN2700     -0.4654
     19  C4       114.7010   85.4810    4.6200 C.3   700  CN2700      0.2528
     20  O3       115.9520   85.2210    7.6570 O.3   700  CN2700     -0.4683
     21  C6       114.6610   84.6030    7.6900 C.3   700  CN2700      0.2526
     22  C22      116.5560   89.1990    6.5410 C.ar  700  CN2700      0.0330
     23  C21      116.7630   90.6400    6.2480 C.ar  700  CN2700      0.0005
     24  C20      115.9780   91.3130    5.5880 C.ar  700  CN2700      0.0030
     25  C19      115.7510   92.3370    5.0000 C.ar  700  CN2700      0.0402
     26  C17      116.0860   93.5110    4.8510 C.ar  700  CN2700      0.1774
     27  C16      117.3430   93.7370    5.5260 C.ar  700  CN2700      0.2290
     28  O5       117.8360   94.8320    5.3160 O.2   700  CN2700     -0.2833
     29  O6       115.3920   94.5580    4.1350 O.3   700  CN2700     -0.4682
     30  C18      114.7530   94.2950    2.8860 C.3   700  CN2700      0.2526
@<TRIPOS>BOND
     1    30    29    1
     2    17    16    1
     3    29    26    1
     4    16    15    1
     5    19    18    1
     6    26    25   ar
     7    26    27   ar
     8    18    14    1
     9    25    24   ar
    10    28    27    2
    11    27     8   ar
    12    24    23   ar
    13    15    14   ar
    14    15    22   ar
    15    14    13   ar
    16     1     2    2
    17    23    22    1
    18    23     7   ar
    19     8     7   ar
    20    22    11   ar
    21     7     6    1
    22     2     3    1
    23     2     5   am
    24     4     3    1
    25    13    20    1
    26    13    12   ar
    27     6     5    1
    28     6     9    1
    29    20    21    1
    30    11    12   ar
    31    11    10    1
    32    10     9    1
