@<TRIPOS>MOLECULE
1sa1_POD_B_1.pdb
 30 34 0 0 0
SMALL
GASTEIGER

@<TRIPOS>ATOM
      1  O5       115.8170   88.0870    9.5210 O.2   700  POD700     -0.2501
      2  C13      116.7590   88.7760    9.2880 C.2   700  POD700      0.3173
      3  O4       117.8560   89.0970   10.1540 O.3   700  POD700     -0.4484
      4  C10      116.8600   89.6020    8.1320 C.3   700  POD700      0.1135
      5  C9       118.1620   90.3260    8.1850 C.3   700  POD700      0.0896
      6  C12      118.7580   90.0630    9.5740 C.3   700  POD700      0.2118
      7  C11      115.8340   89.5410    7.1110 C.3   700  POD700      0.0554
      8  C5       116.0340   90.7580    6.2810 C.ar  700  POD700     -0.0163
      9  C6       117.1200   91.5930    6.3780 C.ar  700  POD700      0.0074
     10  C8       118.3010   91.5950    7.3500 C.3   700  POD700      0.1781
     11  O3       119.6020   91.6540    6.7170 O.3   700  POD700     -0.2182
     12  C7       116.9360   92.4330    5.4950 C.ar  700  POD700      0.0380
     13  C2       116.2460   92.8600    4.5880 C.ar  700  POD700      0.1762
     14  C3       115.2130   92.0860    4.4790 C.ar  700  POD700      0.1761
     15  C4       115.0820   91.0220    5.3250 C.ar  700  POD700      0.0360
     16  O2       116.2490   93.9360    3.6420 O.3   700  POD700     -0.4346
     17  C1       115.0440   93.7610    2.8620 C.3   700  POD700      0.4294
     18  O1       114.3920   92.5890    3.3990 O.3   700  POD700     -0.4346
     19  C14      116.0330   88.2880    6.3640 C.ar  700  POD700     -0.0117
     20  C15      115.2670   87.2070    6.7290 C.ar  700  POD700      0.0363
     21  C16      115.3410   85.9830    6.0670 C.ar  700  POD700      0.1751
     22  O6       114.5720   84.9050    6.4100 O.3   700  POD700     -0.4683
     23  C20      114.6830   84.1330    7.6000 C.3   700  POD700      0.2526
     24  C17      116.1890   85.8210    5.0250 C.ar  700  POD700      0.2060
     25  O7       116.2390   84.6140    4.3940 O.3   700  POD700     -0.4654
     26  C21      115.2090   83.6380    4.2380 C.3   700  POD700      0.2528
     27  C18      116.9580   86.8840    4.6520 C.ar  700  POD700      0.1751
     28  C19      116.8980   88.1190    5.3020 C.ar  700  POD700      0.0363
     29  O8       117.7840   86.6800    3.6070 O.3   700  POD700     -0.4683
     30  C22      117.4220   87.2960    2.3700 C.3   700  POD700      0.2526
@<TRIPOS>BOND
     1    30    29    1
     2    17    18    1
     3    17    16    1
     4    18    14    1
     5    29    27    1
     6    16    13    1
     7    26    25    1
     8    25    24    1
     9    14    13   ar
    10    14    15   ar
    11    13    12   ar
    12    27    24   ar
    13    27    28   ar
    14    24    21   ar
    15    28    19   ar
    16    15     8   ar
    17    12     9   ar
    18    21    22    1
    19    21    20   ar
    20     8     9   ar
    21     8     7    1
    22    19    20   ar
    23    19     7    1
    24     9    10    1
    25    22    23    1
    26    11    10    1
    27     7     4    1
    28    10     5    1
    29     4     5    1
    30     4     2    1
    31     5     6    1
    32     2     1    2
    33     2     3    1
    34     6     3    1
