@<TRIPOS>MOLECULE
1sa1_GTP_A_1.pdb
 32 34 0 0 0
SMALL
GASTEIGER

@<TRIPOS>ATOM
      1  PG       122.5150   92.6190   17.6040 P.3   600  GTP600      0.5373
      2  O1G      123.2080   91.3560   17.4940 O.3   600  GTP600     -0.1143
      3  O2G      121.5320   92.7040   18.7370 O.3   600  GTP600     -0.1143
      4  O3G      121.6890   92.9750   16.3920 O.2   600  GTP600     -0.2221
      5  O3B      123.7060   93.6100   17.8710 O.3   600  GTP600     -0.2258
      6  PB       123.7210   95.0880   17.2370 P.3   600  GTP600      0.2277
      7  O1B      124.9190   95.8090   17.7300 O.3   600  GTP600     -0.4368
      8  O2B      122.4670   95.8820   17.6390 O.2   600  GTP600     -0.5168
      9  O3A      123.8890   94.9050   15.6200 O.3   600  GTP600     -0.2700
     10  PA       125.2430   95.0790   14.7000 P.3   600  GTP600      0.2189
     11  O1A      125.2500   94.1780   13.5230 O.2   600  GTP600     -0.5170
     12  O2A      126.4760   94.8580   15.6100 O.3   600  GTP600     -0.4371
     13  O5'      125.2800   96.5680   14.0680 O.3   600  GTP600     -0.3112
     14  C5'      124.7780   96.8420   12.7700 C.3   600  GTP600      0.1813
     15  C4'      125.8250   97.4930   11.8790 C.3   600  GTP600      0.1799
     16  O4'      127.0860   97.0900   12.3370 O.3   600  GTP600     -0.3326
     17  C3'      125.6940   97.0010   10.4440 C.3   600  GTP600      0.2158
     18  O3'      125.8130   98.1040    9.5740 O.3   600  GTP600     -0.2175
     19  C2'      126.8510   96.0830   10.1750 C.3   600  GTP600      0.2310
     20  O2'      127.4330   96.3950    8.9220 O.3   600  GTP600     -0.2158
     21  C1'      127.8020   96.4450   11.2980 C.3   600  GTP600      0.2293
     22  N9       128.6490   95.3300   11.7750 N.pl3 600  GTP600     -0.2354
     23  C8       128.3490   94.1450   12.3920 C.3   600  GTP600      0.2246
     24  N7       129.5040   93.4840   12.6260 N.2   600  GTP600     -0.2322
     25  C5       130.5180   94.2430   12.1710 C.2   600  GTP600      0.2182
     26  C6       131.8930   94.1080   12.1250 C.1   600  GTP600      0.2372
     27  O6       132.4190   93.1120   12.5610 O.2   600  GTP600     -0.2069
     28  N1       132.7080   95.0700   11.5810 N.2   600  GTP600     -0.2485
     29  C2       132.1340   96.2070   11.0690 C.1   600  GTP600      0.2531
     30  N2       132.8690   97.1810   10.5330 N.pl3 600  GTP600     -0.0226
     31  N3       130.7700   96.3330   11.1050 N.2   600  GTP600     -0.3074
     32  C4       129.9890   95.3830   11.6440 C.2   600  GTP600      0.2300
@<TRIPOS>BOND
     1    20    19    1
     2    18    17    1
     3    19    17    1
     4    19    21    1
     5    17    15    1
     6    30    29    1
     7    29    31    2
     8    29    28    2
     9    31    32    2
    10    21    22    1
    11    21    16    1
    12    28    26    2
    13    32    22    1
    14    32    25    1
    15    22    23    1
    16    15    16    1
    17    15    14    1
    18    26    25    1
    19    26    27    2
    20    25    24    2
    21    23    24    1
    22    14    13    1
    23    11    10    2
    24    13    10    1
    25    10    12    1
    26    10     9    1
    27     9     6    1
    28     4     1    2
    29     6     8    2
    30     6     7    1
    31     6     5    1
    32     2     1    1
    33     1     5    1
    34     1     3    1
