@<TRIPOS>MOLECULE
1sa1_GDP_B_1.pdb
 28 30 0 0 0
SMALL
GASTEIGER

@<TRIPOS>ATOM
      1  PB        90.3460   71.9810    5.6870 P.3   602  GDP602      0.5373
      2  O1B       90.8100   73.2230    6.3820 O.3   602  GDP602     -0.1143
      3  O2B       91.4560   70.9270    5.8140 O.2   602  GDP602     -0.2221
      4  O3B       89.0160   71.3470    6.2200 O.3   602  GDP602     -0.1143
      5  O3A       90.1580   72.3970    4.1480 O.3   602  GDP602     -0.2261
      6  PA        91.2670   72.0590    3.0430 P.3   602  GDP602      0.2231
      7  O1A       92.5460   71.7030    3.7230 O.3   602  GDP602     -0.4370
      8  O2A       90.6560   70.9910    2.0930 O.2   602  GDP602     -0.5169
      9  O5'       91.4780   73.4420    2.2410 O.3   602  GDP602     -0.3111
     10  C5'       90.6460   73.6920    1.1360 C.3   602  GDP602      0.1813
     11  C4'       91.3340   74.6080    0.1340 C.3   602  GDP602      0.1799
     12  O4'       92.7280   74.5570    0.2720 O.3   602  GDP602     -0.3326
     13  C3'       90.9680   74.1670   -1.2810 C.3   602  GDP602      0.2158
     14  O3'       90.4630   75.2330   -2.0620 O.3   602  GDP602     -0.2175
     15  C2'       92.2320   73.7240   -1.9580 C.3   602  GDP602      0.2310
     16  O2'       92.4270   74.4100   -3.1990 O.3   602  GDP602     -0.2158
     17  C1'       93.2950   73.9870   -0.8970 C.3   602  GDP602      0.2293
     18  N9        93.9530   72.6890   -0.6290 N.pl3 602  GDP602     -0.2354
     19  C8        93.4140   71.4820   -0.2180 C.3   602  GDP602      0.2246
     20  N7        94.4210   70.5640   -0.1300 N.2   602  GDP602     -0.2322
     21  C5        95.5870   71.1720   -0.4880 C.2   602  GDP602      0.2182
     22  C6        96.9050   70.7330   -0.5930 C.1   602  GDP602      0.2372
     23  O6        97.0850   69.5340   -0.8000 O.2   602  GDP602     -0.2069
     24  N1        97.8770   71.6430   -0.9980 N.2   602  GDP602     -0.2485
     25  C2        97.5670   72.9620   -1.3250 C.1   602  GDP602      0.2531
     26  N2        98.1900   73.5450   -2.3370 N.pl3 602  GDP602     -0.0226
     27  N3        96.2720   73.3720   -1.2050 N.2   602  GDP602     -0.3074
     28  C4        95.3010   72.5000   -0.8110 C.2   602  GDP602      0.2300
@<TRIPOS>BOND
     1    16    15    1
     2    26    25    1
     3    14    13    1
     4    15    13    1
     5    15    17    1
     6    25    27    2
     7    25    24    2
     8    13    11    1
     9    27    28    2
    10    24    22    2
    11    17    18    1
    12    17    12    1
    13    28    18    1
    14    28    21    1
    15    23    22    2
    16    18    19    1
    17    22    21    1
    18    21    20    2
    19    19    20    1
    20    11    12    1
    21    11    10    1
    22    10     9    1
    23     8     6    2
    24     9     6    1
    25     6     7    1
    26     6     5    1
    27     5     1    1
    28     1     3    2
    29     1     4    1
    30     1     2    1
