@<TRIPOS>MOLECULE
1sa4_FPP_B_1.pdb
 24 23 0 0 0
SMALL
GASTEIGER

@<TRIPOS>ATOM
      1  C1        24.5930  131.3310   -1.0440 C.3   440  FPP440      0.1747
      2  O1        24.2270  132.3570   -0.1320 O.3   440  FPP440     -0.3089
      3  C2        23.4200  130.4360   -1.4050 C.2   440  FPP440     -0.0024
      4  C3        22.9360  130.3360   -2.6760 C.2   440  FPP440     -0.0454
      5  C4        23.5170  131.1050   -3.8440 C.3   440  FPP440      0.0261
      6  C5        21.7800  129.4610   -3.0730 C.3   440  FPP440      0.0264
      7  C6        20.5940  129.4980   -2.1240 C.3   440  FPP440      0.0297
      8  C7        19.4150  128.7410   -2.6570 C.2   440  FPP440     -0.0342
      9  C8        18.3200  128.4520   -1.9180 C.2   440  FPP440     -0.0478
     10  C10       18.1530  128.8520   -0.4680 C.3   440  FPP440      0.0260
     11  C9        17.1460  127.6910   -2.4640 C.3   440  FPP440      0.0263
     12  C11       16.4440  128.3330   -3.6400 C.3   440  FPP440      0.0297
     13  C12       15.2330  127.5360   -4.0410 C.2   440  FPP440     -0.0342
     14  C13       14.3750  127.8960   -5.0150 C.2   440  FPP440     -0.0478
     15  C14       14.5200  129.1560   -5.8310 C.3   440  FPP440      0.0260
     16  C15       13.1770  127.0670   -5.3770 C.3   440  FPP440      0.0260
     17  PA        25.0850  132.3720    1.1660 P.3   440  FPP440      0.2233
     18  O1A       26.5720  132.3940    0.9430 O.2   440  FPP440     -0.5169
     19  O2A       24.5720  133.6610    1.8600 O.3   440  FPP440     -0.4370
     20  O3A       24.5790  131.0840    1.9420 O.3   440  FPP440     -0.2261
     21  PB        25.0470  130.2500    3.1930 P.3   440  FPP440      0.5373
     22  O1B       26.1050  130.9020    4.0640 O.3   440  FPP440     -0.1143
     23  O2B       25.5170  128.9970    2.4640 O.2   440  FPP440     -0.2221
     24  O3B       23.7710  129.8660    3.9690 O.3   440  FPP440     -0.1143
@<TRIPOS>BOND
     1    15    14    1
     2    16    14    1
     3    14    13    2
     4    13    12    1
     5     5     4    1
     6    12    11    1
     7     6     4    1
     8     6     7    1
     9     4     3    2
    10     8     7    1
    11     8     9    2
    12    11     9    1
    13     9    10    1
    14     3     1    1
    15     1     2    1
    16     2    17    1
    17    18    17    2
    18    17    19    1
    19    17    20    1
    20    20    21    1
    21    23    21    2
    22    21    24    1
    23    21    22    1
