@<TRIPOS>MOLECULE
1sa4_JAN_B_1.pdb
 34 38 0 0 0
SMALL
GASTEIGER

@<TRIPOS>ATOM
      1  C1        21.2970  132.3720    0.7050 C.3   441  JAN441      0.1318
      2  N1        20.2440  132.7260    1.6920 N.ar  441  JAN441     -0.3087
      3  C2        20.0190  132.0840    2.8370 C.ar  441  JAN441      0.1784
      4  N2        18.9690  132.6980    3.4440 N.ar  441  JAN441     -0.2226
      5  C3        18.5490  133.7200    2.6690 C.ar  441  JAN441      0.1154
      6  C4        19.3550  133.6980    1.6150 C.ar  441  JAN441      0.0813
      7  C5        19.2100  134.5770    0.4720 C.3   441  JAN441      0.1489
      8  C6        18.9200  133.8620   -0.7350 C.ar  441  JAN441      0.0025
      9  C7        17.9220  132.8550   -0.7400 C.ar  441  JAN441     -0.0014
     10  C8        17.5860  132.1860   -1.9250 C.ar  441  JAN441      0.0111
     11  C9        18.2360  132.5070   -3.1240 C.ar  441  JAN441      0.0577
     12 CL1        17.7610  131.6770   -4.6250 Cl    441  JAN441     -0.0822
     13  C10       19.2360  133.5020   -3.1420 C.ar  441  JAN441      0.0111
     14  C11       19.5790  134.1790   -1.9500 C.ar  441  JAN441     -0.0014
     15  N3        20.5480  135.1750    0.2860 N.3   441  JAN441     -0.1193
     16  C12       18.3570  135.7210    0.6980 C.ar  441  JAN441      0.0026
     17  C13       17.1790  135.9350   -0.0750 C.ar  441  JAN441     -0.0008
     18  C14       16.2350  136.9360    0.2850 C.ar  441  JAN441      0.0158
     19  C15       18.5910  136.5560    1.8200 C.ar  441  JAN441     -0.0008
     20  C16       17.6640  137.5450    2.1840 C.ar  441  JAN441      0.0170
     21  C17       16.4820  137.7360    1.4360 C.ar  441  JAN441      0.0625
     22  N4        15.5000  138.6870    1.8620 N.ar  441  JAN441     -0.2935
     23  C18       15.7360  139.5470    3.0580 C.3   441  JAN441      0.1335
     24  C19       14.2910  138.8270    1.1450 C.ar  441  JAN441      0.2610
     25  O1        13.4250  139.6090    1.5380 O.2   441  JAN441     -0.2670
     26  C20       14.0600  138.0510    0.0050 C.ar  441  JAN441      0.0608
     27  C21       15.0150  137.1140   -0.4470 C.ar  441  JAN441      0.0061
     28  C22       14.7640  136.4520   -1.6770 C.ar  441  JAN441      0.0010
     29  C23       14.6850  135.0420   -1.7550 C.ar  441  JAN441      0.0114
     30  C24       14.3780  134.4230   -2.9870 C.ar  441  JAN441      0.0577
     31 CL2        14.2520  132.6610   -3.0900 Cl    441  JAN441     -0.0822
     32  C25       14.1520  135.1980   -4.1400 C.ar  441  JAN441      0.0114
     33  C26       14.2300  136.5970   -4.0680 C.ar  441  JAN441      0.0009
     34  C27       14.5340  137.2210   -2.8450 C.ar  441  JAN441      0.0001
@<TRIPOS>BOND
     1    12    11    1
     2    32    33   ar
     3    32    30   ar
     4    33    34   ar
     5    13    11   ar
     6    13    14   ar
     7    11    10   ar
     8    31    30    1
     9    30    29   ar
    10    34    28   ar
    11    14     8   ar
    12    10     9   ar
    13    29    28   ar
    14    28    27    1
    15     9     8   ar
    16     8     7    1
    17    27    26   ar
    18    27    18   ar
    19    17    18   ar
    20    17    16   ar
    21    26    24   ar
    22    18    21   ar
    23    15     7    1
    24     7    16    1
    25     7     6    1
    26    16    19   ar
    27     1     2    1
    28    24    25    2
    29    24    22   ar
    30    21    22   ar
    31    21    20   ar
    32     6     2   ar
    33     6     5   ar
    34     2     3   ar
    35    19    20   ar
    36    22    23    1
    37     5     4   ar
    38     3     4   ar
