@<TRIPOS>MOLECULE
1sa5_FPP_B_1.pdb
 24 23 0 0 0
SMALL
GASTEIGER

@<TRIPOS>ATOM
      1  C1       108.2390   23.2620   33.5210 C.3   439  FPP439      0.1747
      2  O1       108.3330   22.2230   32.5390 O.3   439  FPP439     -0.3089
      3  C2       107.2000   24.2890   33.1430 C.2   439  FPP439     -0.0024
      4  C3       106.4770   25.0120   34.0530 C.2   439  FPP439     -0.0454
      5  C4       106.6290   24.8740   35.5490 C.3   439  FPP439      0.0261
      6  C5       105.4410   26.0350   33.6540 C.3   439  FPP439      0.0264
      7  C6       104.0760   25.4010   33.3520 C.3   439  FPP439      0.0297
      8  C7       102.8900   26.3580   33.3760 C.2   439  FPP439     -0.0342
      9  C8       102.1070   26.6210   32.2950 C.2   439  FPP439     -0.0478
     10  C10      102.3270   25.9890   30.9450 C.3   439  FPP439      0.0260
     11  C9       100.9330   27.5700   32.3290 C.3   439  FPP439      0.0263
     12  C11       99.7880   27.1510   33.2570 C.3   439  FPP439      0.0297
     13  C12       98.4760   27.7870   32.8790 C.2   439  FPP439     -0.0342
     14  C13       97.2890   27.6050   33.5270 C.2   439  FPP439     -0.0478
     15  C14       97.0920   26.7280   34.7370 C.3   439  FPP439      0.0260
     16  C15       96.0280   28.2820   33.0790 C.3   439  FPP439      0.0260
     17  PA       109.5330   22.3490   31.5260 P.3   439  FPP439      0.2233
     18  O1A      110.8630   22.4810   32.1890 O.3   439  FPP439     -0.4370
     19  O2A      109.4750   21.0960   30.6250 O.2   439  FPP439     -0.5169
     20  O3A      109.1570   23.5840   30.6300 O.3   439  FPP439     -0.2261
     21  PB       109.9370   24.2740   29.4720 P.3   439  FPP439      0.5373
     22  O1B      111.2180   23.5660   29.1500 O.3   439  FPP439     -0.1143
     23  O2B      110.1540   25.7170   29.9860 O.3   439  FPP439     -0.1143
     24  O3B      108.9430   24.3100   28.2830 O.2   439  FPP439     -0.2221
@<TRIPOS>BOND
     1    24    21    2
     2    22    21    1
     3    21    23    1
     4    21    20    1
     5    19    17    2
     6    20    17    1
     7    10     9    1
     8    17    18    1
     9    17     2    1
    10     9    11    1
    11     9     8    2
    12    11    12    1
    13     2     1    1
    14    13    12    1
    15    13    14    2
    16    16    14    1
    17     3     1    1
    18     3     4    2
    19     7     8    1
    20     7     6    1
    21    14    15    1
    22     6     4    1
    23     4     5    1
