@<TRIPOS>MOLECULE
1sa5_BMV_B_1.pdb
 34 38 0 0 0
SMALL
GASTEIGER

@<TRIPOS>ATOM
      1  CAJ       98.5830   21.9780   34.0100 C.ar  440  BMV440     -0.0042
      2  CAF       97.3330   22.4520   33.6230 C.ar  440  BMV440     -0.0003
      3  CAE       97.2280   23.3660   32.5780 C.ar  440  BMV440     -0.0000
      4  CAG       98.3770   23.8020   31.9240 C.ar  440  BMV440     -0.0003
      5  CAK       99.6280   23.3260   32.3100 C.ar  440  BMV440     -0.0042
      6  CAZ       99.7330   22.4110   33.3540 C.ar  440  BMV440     -0.0207
      7  CAR      101.0970   21.8490   33.7650 C.3   440  BMV440      0.0458
      8  CBE      101.3660   20.5070   33.0800 C.3   440  BMV440      0.1040
      9  CAU      101.7770   20.7570   31.6270 C.3   440  BMV440      0.1091
     10  NBF      102.1180   19.5220   30.9060 N.pl3 440  BMV440     -0.3013
     11  CAS      103.5560   19.2600   30.7340 C.3   440  BMV440      0.1348
     12  CBA      104.0990   19.9130   29.4610 C.2   440  BMV440      0.0830
     13  CAP      103.3750   20.4400   28.4780 C.3   440  BMV440      0.1699
     14  NAV      104.2100   20.8740   27.5390 N.2   440  BMV440     -0.2439
     15  CAO      105.4510   20.6210   27.9420 C.2   440  BMV440      0.1940
     16  NAW      105.3820   20.0290   29.1310 N.2   440  BMV440     -0.2293
     17  CBD      101.2190   18.5910   30.5930 C.ar  440  BMV440      0.0455
     18  CAN      101.6100   17.7250   29.5750 C.ar  440  BMV440      0.0149
     19  CAM      100.6680   16.9190   28.9400 C.ar  440  BMV440      0.0115
     20  CAY       99.3300   16.9730   29.3200 C.ar  440  BMV440      0.0683
     21  CAD       98.3490   16.2060   28.6150 C.1   440  BMV440      0.1004
     22  NAA       97.5660   15.6100   28.0430 N.1   440  BMV440     -0.1908
     23  CAQ       98.9370   17.8200   30.3520 C.ar  440  BMV440      0.0086
     24  CBB       99.8840   18.6200   30.9820 C.ar  440  BMV440      0.0095
     25  CAT       99.2740   19.4490   32.1110 C.3   440  BMV440      0.1234
     26  NBG      100.1560   19.6880   33.2680 N.3   440  BMV440     -0.1499
     27  SBH      100.3970   18.4110   34.2490 S.O2  440  BMV440      0.0693
     28  OAB      101.0900   18.8780   35.4940 O.2   440  BMV440     -0.1523
     29  OAC       99.0640   17.8520   34.6510 O.2   440  BMV440     -0.1523
     30  CBC      101.3790   17.1600   33.5220 C.ar  440  BMV440      0.1517
     31  CAL      102.7090   17.1310   33.4870 C.ar  440  BMV440      0.0271
     32  CAH      103.2270   16.0060   32.9850 C.ar  440  BMV440      0.0089
     33  CAI      102.3610   15.0690   32.5920 C.ar  440  BMV440      0.0368
     34  SAX      100.7970   15.6840   32.8820 S.2   440  BMV440     -0.0668
@<TRIPOS>BOND
     1    14    15    2
     2    14    13    1
     3    15    16    1
     4    22    21    3
     5    13    12    1
     6    21    20    1
     7    19    20   ar
     8    19    18   ar
     9    16    12    2
    10    20    23   ar
    11    12    11    1
    12    18    17   ar
    13    23    24   ar
    14    17    10    1
    15    17    24   ar
    16    11    10    1
    17    10     9    1
    18    24    25    1
    19     9     8    1
    20     4     5   ar
    21     4     3   ar
    22    25    26    1
    23     5     6   ar
    24     3     2   ar
    25    33    34   ar
    26    33    32   ar
    27    34    30   ar
    28    32    31   ar
    29     8    26    1
    30     8     7    1
    31    26    27    1
    32     6     7    1
    33     6     1   ar
    34    31    30   ar
    35    30    27    1
    36     2     1   ar
    37    27    29    2
    38    27    28    2
