@<TRIPOS>MOLECULE
1saz_ACP_A_1.pdb
 31 33 0 0 0
SMALL
GASTEIGER

@<TRIPOS>ATOM
      1  PG        44.2530   19.9620   27.1370 P.3   399  ACP399      0.1295
      2  O1G       45.0470   18.7390   27.5740 O.3   399  ACP399     -0.3567
      3  O2G       42.8360   19.5780   26.8710 O.2   399  ACP399     -0.4595
      4  O3G       44.3980   21.1260   28.1230 O.3   399  ACP399     -0.3567
      5  PB        44.1380   22.0160   25.1030 P.3   399  ACP399      0.3815
      6  O1B       45.0300   22.4650   23.9860 O.2   399  ACP399     -0.2547
      7  O2B       43.7890   23.1620   25.9500 O.3   399  ACP399     -0.1391
      8  C3B       44.9830   20.7710   25.7740 C.3   399  ACP399      0.1768
      9  PA        41.1990   22.1620   24.1510 P.3   399  ACP399      0.2209
     10  O1A       41.1070   23.6610   24.3020 O.2   399  ACP399     -0.5170
     11  O2A       40.3450   21.4010   25.1130 O.3   399  ACP399     -0.4371
     12  O3A       42.7220   21.6840   24.3020 O.3   399  ACP399     -0.2483
     13  O5'       41.0190   21.9840   22.5600 O.3   399  ACP399     -0.3111
     14  C5'       41.0650   20.6060   22.1340 C.3   399  ACP399      0.1813
     15  C4'       40.9360   19.9840   20.7020 C.3   399  ACP399      0.1821
     16  O4'       39.6970   20.2130   20.1020 O.3   399  ACP399     -0.3135
     17  C3'       41.9810   20.7080   19.9390 C.3   399  ACP399      0.2184
     18  O3'       43.1740   19.9640   19.9870 O.3   399  ACP399     -0.2174
     19  C2'       41.3520   20.9320   18.5370 C.3   399  ACP399      0.2570
     20  O2'       41.9120   20.0330   17.6020 O.3   399  ACP399     -0.2130
     21  C1'       39.9190   20.7390   18.8060 C.3   399  ACP399      0.3186
     22  N9        38.9920   21.9350   18.6340 N.pl3 399  ACP399     -0.1439
     23  C8        38.9090   23.1360   19.2520 C.3   399  ACP399      0.3377
     24  N7        37.9370   23.9440   18.8150 N.2   399  ACP399     -0.2095
     25  C5        37.3700   23.2040   17.8580 C.2   399  ACP399      0.2526
     26  C6        36.2610   23.3820   16.9280 C.2   399  ACP399      0.4393
     27  N6        35.5240   24.5280   16.9010 N.pl3 399  ACP399      0.2180
     28  N1        35.9090   22.3810   16.0250 N.2   399  ACP399      0.0021
     29  C2        36.6090   21.2080   16.0020 C.3   399  ACP399      0.5254
     30  N3        37.6590   20.9550   16.8290 N.2   399  ACP399     -0.0055
     31  C4        37.9940   21.9530   17.7170 C.2   399  ACP399      0.3518
@<TRIPOS>BOND
     1    29    28    1
     2    29    30    1
     3    28    26    2
     4    30    31    2
     5    27    26    1
     6    26    25    1
     7    20    19    1
     8    31    25    1
     9    31    22    1
    10    25    24    2
    11    19    21    1
    12    19    17    1
    13    22    21    1
    14    22    23    1
    15    21    16    1
    16    24    23    1
    17    17    18    1
    18    17    15    1
    19    16    15    1
    20    15    14    1
    21    14    13    1
    22    13     9    1
    23     6     5    2
    24     9    12    1
    25     9    10    2
    26     9    11    1
    27    12     5    1
    28     5     8    1
    29     5     7    1
    30     8     1    1
    31     3     1    2
    32     1     2    1
    33     1     4    1
