@<TRIPOS>MOLECULE
1sb1_165_H_1.pdb
 39 43 0 0 0
SMALL
GASTEIGER

@<TRIPOS>ATOM
      1  C7        12.2270  -18.2760   13.0680 C.3   1001  1651001     0.1969
      2  S8        13.0050  -16.7040   13.7760 S.O2  1001  1651001     0.0620
      3  C5        13.1590  -19.2610   12.3180 C.ar  1001  1651001     0.0030
      4  C4        14.2450  -20.0120   12.9740 C.ar  1001  1651001    -0.0025
      5  C3        15.1210  -20.9160   12.1410 C.ar  1001  1651001    -0.0003
      6  C2        14.8920  -21.0430   10.6850 C.ar  1001  1651001    -0.0000
      7  C1        13.7790  -20.2810   10.0350 C.ar  1001  1651001    -0.0003
      8  C6        12.9240  -19.3990   10.8450 C.ar  1001  1651001    -0.0025
      9  O36       13.7590  -16.6480   12.5800 O.2   1001  1651001    -0.1558
     10  O37       13.5390  -17.4550   14.8680 O.2   1001  1651001    -0.1558
     11  N9        11.3260  -16.4730   13.9990 N.3   1001  1651001    -0.0739
     12  C10       10.3460  -15.5480   13.1120 C.3   1001  1651001     0.1733
     13  C18       10.7970  -14.1300   13.6970 C.2   1001  1651001     0.2437
     14  O38       11.5270  -13.3320   13.0290 O.2   1001  1651001    -0.2733
     15  C11       10.6100  -15.6370   11.5500 C.3   1001  1651001     0.0287
     16  C12        9.1870  -14.7650   11.1570 C.3   1001  1651001     0.0019
     17  C13        7.7460  -15.5260   11.5660 C.3   1001  1651001     0.0001
     18  C17        9.0690  -14.3320    9.6570 C.3   1001  1651001     0.0001
     19  C14        6.4220  -14.6620   11.2240 C.3   1001  1651001     0.0000
     20  C16        7.8460  -13.3470    9.3730 C.3   1001  1651001     0.0000
     21  C15        6.4480  -14.0050    9.7640 C.3   1001  1651001     0.0000
     22  N19       10.2600  -13.7020   15.0490 N.am  1001  1651001    -0.2718
     23  C23       10.5710  -12.3900   15.6190 C.3   1001  1651001     0.1535
     24  C24       11.9710  -12.1810   16.1990 C.2   1001  1651001     0.2597
     25  O39       12.0720  -11.4380   17.1950 O.2   1001  1651001    -0.2715
     26  C22        9.5900  -12.6210   16.8250 C.3   1001  1651001     0.0310
     27  C21        8.4750  -13.4070   16.2010 C.3   1001  1651001     0.0237
     28  C20        9.3230  -14.5840   15.7800 C.3   1001  1651001     0.0939
     29  N25       13.0980  -12.8640   15.5190 N.am  1001  1651001    -0.2013
     30  C26       14.4890  -12.6600   16.0300 C.3   1001  1651001     0.1182
     31  C31       14.9880  -11.3300   15.3740 C.2   1001  1651001     0.0039
     32  C30       15.8590  -11.4800   14.1330 C.2   1001  1651001     0.0559
     33  S34       16.2950  -10.0690   13.2480 S.3   1001  1651001    -0.0351
     34  C33       17.1920  -11.1080   12.0590 C.2   1001  1651001     0.2498
     35  N35       17.8310  -10.5530   10.9810 N.pl3 1001  1651001    -0.0864
     36  N32       17.1310  -12.3740   12.3690 N.2   1001  1651001    -0.3814
     37  C29       16.3400  -12.6680   13.5960 C.2   1001  1651001     0.1171
     38  C28       16.0970  -14.0550   14.1900 C.3   1001  1651001     0.0617
     39  C27       15.3730  -14.0020   15.6670 C.3   1001  1651001     0.0336
@<TRIPOS>BOND
     1    20    18    1
     2    20    21    1
     3    18    16    1
     4    21    19    1
     5     7     6   ar
     6     7     8   ar
     7     6     5   ar
     8     8     3   ar
     9    35    34    1
    10    16    15    1
    11    16    17    1
    12    19    17    1
    13    15    12    1
    14    34    36    2
    15    34    33    1
    16     5     4   ar
    17     3     4   ar
    18     3     1    1
    19    36    37    2
    20     9     2    2
    21    14    13    2
    22     1     2    1
    23    12    13    1
    24    12    11    1
    25    33    32    1
    26    37    32    1
    27    37    38    1
    28    13    22   am
    29     2    11    1
    30     2    10    2
    31    32    31    2
    32    38    39    1
    33    22    23    1
    34    22    28    1
    35    31    30    1
    36    29    30    1
    37    29    24   am
    38    23    24    1
    39    23    26    1
    40    39    30    1
    41    28    27    1
    42    24    25    2
    43    27    26    1
