@<TRIPOS>MOLECULE
1sb3_PCD_A_1.pdb
 48 53 0 0 0
SMALL
GASTEIGER

@<TRIPOS>ATOM
      1  N1        28.8270   51.1500   75.1070 N.am  1920  PCD1920     0.0000
      2  C2        30.0130   51.2370   75.8260 C.1   1920  PCD1920     0.0000
      3  N3        29.9390   51.7200   77.1110 N.2   1920  PCD1920     0.0000
      4  C4        28.7990   52.1020   77.7360 C.2   1920  PCD1920     0.0000
      5  C5        27.5340   51.9150   76.9160 C.2   1920  PCD1920     0.0000
      6  C6        27.5950   51.4550   75.6330 C.2   1920  PCD1920     0.0000
      7  O2        31.1610   50.9540   75.4110 O.2   1920  PCD1920     0.0000
      8  N4        28.7760   52.5900   78.9420 N.pl3 1920  PCD1920     0.0000
      9  C1'       28.9490   50.7690   73.6910 C.3   1920  PCD1920     0.0000
     10  C2D       29.1300   49.3510   73.1270 C.3   1920  PCD1920     0.0000
     11  O2'       29.8540   49.3360   71.9040 O.3   1920  PCD1920     0.0000
     12  C3'       27.6250   49.1370   73.0810 C.3   1920  PCD1920     0.0000
     13  C4D       27.0750   50.4200   72.3280 C.3   1920  PCD1920     0.0000
     14  O4D       27.9380   51.4310   72.8780 O.3   1920  PCD1920     0.0000
     15  O3'       27.3580   47.9990   72.3060 O.3   1920  PCD1920     0.0000
     16  C5'       25.5310   50.5820   72.4900 C.3   1920  PCD1920     0.0000
     17  O5'       25.2340   50.3670   73.8890 O.3   1920  PCD1920     0.0000
     18  PA        23.7090   50.4830   74.3520 P.3   1920  PCD1920     0.0000
     19  O1A       23.5580   49.6360   75.6620 O.3   1920  PCD1920    -0.5000
     20  O2A       23.4860   51.9960   74.3270 O.2   1920  PCD1920    -0.5000
     21  O3A       22.7150   49.7840   73.2720 O.3   1920  PCD1920     0.0000
     22  PB        22.2760   48.2940   73.0250 P.3   1920  PCD1920     0.0000
     23  O1B       21.0400   48.2300   73.9650 O.3   1920  PCD1920    -0.5000
     24  O2B       23.6330   47.5280   72.9840 O.2   1920  PCD1920    -0.5000
     25  O3B       21.8510   48.5540   71.5500 O.3   1920  PCD1920     0.0000
     26  C10       20.5880   48.8920   71.1050 C.3   1920  PCD1920     0.0000
     27  C9'       20.5790   50.3640   70.7170 C.3   1920  PCD1920     0.0000
     28  C8'       19.2690   50.9680   70.1780 C.2   1920  PCD1920     0.0000
     29  S8'       17.8240   50.6190   71.0930 S.3   1920  PCD1920     0.0000
     30  C7'       19.2290   51.8070   69.0560 C.2   1920  PCD1920     0.0000
     31  S7'       17.6540   52.4250   68.5090 S.3   1920  PCD1920     0.0000
     32  C6'       20.5190   52.1670   68.3730 C.3   1920  PCD1920     0.0000
     33  C7        21.7840   51.9570   69.2510 C.3   1920  PCD1920     0.0000
     34  O9'       21.6530   50.5980   69.7620 O.3   1920  PCD1920     0.0000
     35  N5'       20.3690   51.3370   67.0980 N.2   1920  PCD1920     0.0000
     36  C4A       21.6640   51.2730   66.5120 C.2   1920  PCD1920     0.0000
     37  N8'       22.8170   52.1400   68.2180 N.2   1920  PCD1920     0.0000
     38  C4B       23.0370   51.6670   66.8700 C.1   1920  PCD1920     0.0000
     39  N1'       24.1790   51.5840   66.1550 N.2   1920  PCD1920     0.0000
     40  C2'       24.0640   51.0130   64.8770 C.1   1920  PCD1920     0.0000
     41  N2'       25.3330   51.1030   64.4510 N.pl3 1920  PCD1920     0.0000
     42  N3'       22.8580   50.5410   64.4120 N.2   1920  PCD1920     0.0000
     43  C4'       21.7760   50.7010   65.2390 C.1   1920  PCD1920     0.0000
     44  O4'       20.8000   50.1450   64.4260 O.2   1920  PCD1920     0.0000
     45 MO         15.9880   51.1530   69.5860 Mo    1920  PCD1920     0.0000
     46  OR1       14.5740   52.7580   68.9480 O.3   1920  PCD1920     0.0000
     47  OM2       14.8590   50.7540   70.9910 O.3   1920  PCD1920     0.0000
     48  OM1       16.0680   49.8460   68.5670 O.3   1920  PCD1920     0.0000
@<TRIPOS>BOND
     1    42    40    2
     2    42    43    2
     3    44    43    2
     4    41    40    1
     5    40    39    2
     6    43    36    1
     7    39    38    2
     8    36    38    1
     9    36    35    2
    10    38    37    2
    11    35    32    1
    12    37    33    1
    13    32    30    1
    14    32    33    1
    15    31    30    1
    16    31    45    1
    17    48    45    1
    18    46    45    1
    19    30    28    2
    20    33    34    1
    21    45    47    1
    22    45    29    1
    23    34    27    1
    24    28    27    1
    25    28    29    1
    26    27    26    1
    27    26    25    1
    28    25    22    1
    29    11    10    1
    30    15    12    1
    31    13    16    1
    32    13    14    1
    33    13    12    1
    34    16    17    1
    35    14     9    1
    36    24    22    2
    37    22    21    1
    38    22    23    1
    39    12    10    1
    40    10     9    1
    41    21    18    1
    42     9     1    1
    43    17    18    1
    44    20    18    2
    45    18    19    1
    46     1     6    1
    47     1     2   am
    48     7     2    2
    49     6     5    2
    50     2     3    2
    51     5     4    1
    52     3     4    2
    53     4     8    1
