@<TRIPOS>MOLECULE
1sb8_UD2_A_1.pdb
 39 41 0 0 0
SMALL
GASTEIGER

@<TRIPOS>ATOM
      1  C1'       39.6140    3.9770   86.5930 C.3   343  UD2343      0.2633
      2  C2'       38.5700    2.8810   86.3960 C.3   343  UD2343      0.1845
      3  C3'       39.0690    1.5900   87.0310 C.3   343  UD2343      0.2094
      4  C4'       40.4900    1.2700   86.5680 C.3   343  UD2343      0.2136
      5  C5'       41.3980    2.4580   86.8180 C.3   343  UD2343      0.1834
      6  C6'       42.8080    2.1740   86.3780 C.3   343  UD2343      0.2142
      7  C7'       36.3010    3.8160   86.1970 C.2   343  UD2343      0.2420
      8  C8'       34.9100    3.6670   86.7580 C.3   343  UD2343      0.0964
      9  N2'       37.2920    3.2840   86.9980 N.am  343  UD2343     -0.1992
     10  O1'       39.8850    4.1060   87.9790 O.3   343  UD2343     -0.2864
     11  O3'       38.2050    0.5190   86.6530 O.3   343  UD2343     -0.2183
     12  O4'       40.4710    0.9720   85.1690 O.3   343  UD2343     -0.2176
     13  O5'       40.8960    3.5850   86.0870 O.3   343  UD2343     -0.3260
     14  O6'       43.6530    3.0650   87.0900 O.3   343  UD2343     -0.2176
     15  O7'       36.5190    4.3640   85.1380 O.2   343  UD2343     -0.2733
     16  N1        40.0690   11.0170   93.5580 N.am  343  UD2343     -0.1766
     17  C2        39.9120   12.0810   94.4460 C.1   343  UD2343      0.2845
     18  N3        41.0310   12.4920   95.1370 N.2   343  UD2343     -0.2452
     19  C4        42.3010   11.9430   95.0340 C.1   343  UD2343      0.2182
     20  C5        42.4160   10.8010   94.0630 C.2   343  UD2343      0.1242
     21  C6        41.2940   10.4170   93.3930 C.2   343  UD2343      0.0929
     22  O2        38.8410   12.6330   94.6130 O.2   343  UD2343     -0.1918
     23  O4        43.2460   12.3630   95.6870 O.2   343  UD2343     -0.2085
     24  C1B       38.8870   10.5510   92.8210 C.3   343  UD2343      0.2401
     25  C2B       39.0630   10.4560   91.3340 C.3   343  UD2343      0.2319
     26  O2'       38.8590   11.7210   90.7160 O.3   343  UD2343     -0.2157
     27  C3B       38.0400    9.4620   90.9140 C.3   343  UD2343      0.2158
     28  C4B       37.8830    8.5640   92.1300 C.3   343  UD2343      0.1799
     29  O4B       38.4780    9.2500   93.2450 O.3   343  UD2343     -0.3320
     30  O3B       36.8030   10.1250   90.6980 O.3   343  UD2343     -0.2175
     31  C5B       38.6040    7.2320   91.9240 C.3   343  UD2343      0.1813
     32  O5B       39.8430    7.5160   91.3190 O.3   343  UD2343     -0.3112
     33  PA        40.9220    6.3360   91.0730 P.3   343  UD2343      0.2189
     34  O1A       42.3140    6.8720   90.4870 O.2   343  UD2343     -0.5170
     35  O2A       41.0460    5.5850   92.4960 O.3   343  UD2343     -0.4371
     36  O3A       40.1600    5.2760   90.1450 O.3   343  UD2343     -0.2703
     37  PB        39.4270    5.4450   88.7240 P.3   343  UD2343      0.2208
     38  O1B       37.8380    5.6720   88.8250 O.3   343  UD2343     -0.4371
     39  O2B       40.2380    6.6350   88.0050 O.2   343  UD2343     -0.5170
@<TRIPOS>BOND
     1    15     7    2
     2    12     4    1
     3    13     1    1
     4    13     5    1
     5     7     8    1
     6     7     9   am
     7     6     5    1
     8     6    14    1
     9     2     1    1
    10     2     9    1
    11     2     3    1
    12     4     5    1
    13     4     3    1
    14     1    10    1
    15    11     3    1
    16    10    37    1
    17    39    37    2
    18    37    38    1
    19    37    36    1
    20    36    33    1
    21    34    33    2
    22    30    27    1
    23    26    25    1
    24    27    25    1
    25    27    28    1
    26    33    32    1
    27    33    35    1
    28    32    31    1
    29    25    24    1
    30    31    28    1
    31    28    29    1
    32    24    29    1
    33    24    16    1
    34    21    16    1
    35    21    20    2
    36    16    17   am
    37    20    19    1
    38    17    22    2
    39    17    18    2
    40    19    18    2
    41    19    23    2
