@<TRIPOS>MOLECULE
1sb8_NAD_A_1.pdb
 44 48 0 0 0
SMALL
GASTEIGER

@<TRIPOS>ATOM
      1  PA        49.9030   -2.0440   89.3990 P.3   342  NAD342      0.2189
      2  O1A       50.2340   -2.1410   90.9680 O.3   342  NAD342     -0.4371
      3  O2A       50.6270   -0.8170   88.6440 O.2   342  NAD342     -0.5170
      4  O5B       50.2930   -3.3840   88.5700 O.3   342  NAD342     -0.3112
      5  C5B       50.7200   -3.2670   87.2360 C.3   342  NAD342      0.1813
      6  C4B       51.9670   -4.1160   87.1180 C.3   342  NAD342      0.1821
      7  O4B       52.2620   -4.3440   85.7290 O.3   342  NAD342     -0.3135
      8  C3B       53.1350   -3.3970   87.7200 C.3   342  NAD342      0.2184
      9  O3B       53.7930   -4.3340   88.5810 O.3   342  NAD342     -0.2174
     10  C2B       53.9880   -3.0350   86.5640 C.3   342  NAD342      0.2570
     11  O2B       55.3600   -3.0660   86.9390 O.3   342  NAD342     -0.2130
     12  C1B       53.6470   -4.0690   85.5310 C.3   342  NAD342      0.3186
     13  N9A       53.9060   -3.6020   84.1370 N.pl3 342  NAD342     -0.1439
     14  C8A       53.4680   -2.4290   83.6220 C.3   342  NAD342      0.3377
     15  N7A       53.8850   -2.3330   82.3490 N.2   342  NAD342     -0.2095
     16  C5A       54.6050   -3.5400   82.1470 C.2   342  NAD342      0.2526
     17  C6A       55.2790   -3.9780   80.9610 C.2   342  NAD342      0.4393
     18  N6A       55.2540   -3.1630   79.8610 N.pl3 342  NAD342      0.2180
     19  N1A       55.9190   -5.2060   81.0060 N.2   342  NAD342      0.0021
     20  C2A       55.8600   -5.9240   82.2000 C.3   342  NAD342      0.5254
     21  N3A       55.2380   -5.5520   83.3460 N.2   342  NAD342     -0.0055
     22  C4A       54.6050   -4.3200   83.2780 C.2   342  NAD342      0.3518
     23  O3        48.3430   -1.8750   89.0900 O.3   342  NAD342     -0.2703
     24  PN        47.1700   -2.9630   89.3150 P.3   342  NAD342      0.2189
     25  O1N       47.6540   -4.2940   90.0840 O.3   342  NAD342     -0.4371
     26  O2N       46.0100   -2.1560   90.0510 O.2   342  NAD342     -0.5170
     27  O5D       46.6020   -3.2030   87.8280 O.3   342  NAD342     -0.3112
     28  C5D       46.9130   -4.4290   87.2150 C.3   342  NAD342      0.1813
     29  C4D       46.0040   -4.5980   86.0060 C.3   342  NAD342      0.1799
     30  O4D       44.6450   -4.4810   86.4240 O.3   342  NAD342     -0.3327
     31  C3D       46.2280   -3.5260   84.9720 C.3   342  NAD342      0.2158
     32  O3D       46.1260   -4.2000   83.7060 O.3   342  NAD342     -0.2175
     33  C2D       45.0870   -2.6020   85.1480 C.3   342  NAD342      0.2309
     34  O2D       44.7990   -1.9390   83.9150 O.3   342  NAD342     -0.2158
     35  C1D       44.0130   -3.5320   85.5650 C.3   342  NAD342      0.2263
     36  N1N       42.8870   -2.8940   86.2620 N.pl3 342  NAD342     -0.2787
     37  C2N       43.0980   -2.4700   87.5550 C.3   342  NAD342      0.1244
     38  C3N       41.9850   -1.8950   88.1860 C.2   342  NAD342      0.0544
     39  C7N       42.0780   -1.3880   89.5890 C.2   342  NAD342      0.2818
     40  O7N       41.1100   -1.0110   90.2310 O.2   342  NAD342     -0.2670
     41  N7N       43.3560   -1.3790   90.0950 N.am  342  NAD342     -0.0839
     42  C4N       40.7430   -1.7920   87.4780 C.2   342  NAD342      0.0033
     43  C5N       40.6230   -2.2590   86.1290 C.2   342  NAD342      0.0157
     44  C6N       41.7380   -2.8270   85.5120 C.2   342  NAD342      0.0633
@<TRIPOS>BOND
     1    18    17    1
     2    17    19    2
     3    17    16    1
     4    19    20    1
     5    16    15    2
     6    16    22    1
     7    20    21    1
     8    15    14    1
     9    22    21    2
    10    22    13    1
    11    14    13    1
    12    32    31    1
    13    34    33    1
    14    13    12    1
    15    31    33    1
    16    31    29    1
    17    33    35    1
    18    44    43    2
    19    44    36    1
    20    12     7    1
    21    12    10    1
    22    35    36    1
    23    35    30    1
    24     7     6    1
    25    29    30    1
    26    29    28    1
    27    43    42    1
    28    36    37    1
    29    10    11    1
    30    10     8    1
    31     6     5    1
    32     6     8    1
    33    28    27    1
    34     5     4    1
    35    42    38    2
    36    37    38    1
    37     8     9    1
    38    27    24    1
    39    38    39    1
    40     4     1    1
    41     3     1    2
    42    23    24    1
    43    23     1    1
    44    24    26    2
    45    24    25    1
    46     1     2    1
    47    39    41   am
    48    39    40    2
