@<TRIPOS>MOLECULE
1sb9_UPG_A_1.pdb
 36 38 0 0 0
SMALL
GASTEIGER

@<TRIPOS>ATOM
      1  N1        40.1190   11.5350   94.4840 N.am  343  UPG343     -0.1766
      2  C2        40.0400   12.6060   95.3790 C.1   343  UPG343      0.2845
      3  N3        41.1970   12.9550   96.0400 N.2   343  UPG343     -0.2452
      4  C4        42.4320   12.3380   95.8990 C.1   343  UPG343      0.2182
      5  C5        42.4590   11.1970   94.9260 C.2   343  UPG343      0.1242
      6  C6        41.3040   10.8750   94.2860 C.2   343  UPG343      0.0929
      7  O2        39.0100   13.2130   95.5790 O.2   343  UPG343     -0.1918
      8  O4        43.4170   12.7010   96.5240 O.2   343  UPG343     -0.2085
      9  C1C       38.9060   11.1250   93.7710 C.3   343  UPG343      0.2401
     10  C2C       39.0550   11.0520   92.2730 C.3   343  UPG343      0.2319
     11  O2C       38.7890   12.3230   91.6850 O.3   343  UPG343     -0.2157
     12  C3C       38.0610   10.0350   91.8490 C.3   343  UPG343      0.2158
     13  C4C       37.8880    9.1600   93.0710 C.3   343  UPG343      0.1799
     14  O4C       38.4750    9.8360   94.1910 O.3   343  UPG343     -0.3320
     15  O3C       36.8130   10.6730   91.5920 O.3   343  UPG343     -0.2175
     16  C5C       38.5880    7.8270   92.8860 C.3   343  UPG343      0.1813
     17  O5C       39.9630    8.0740   92.6550 O.3   343  UPG343     -0.3112
     18  PA        40.8200    6.8990   91.9480 P.3   343  UPG343      0.2189
     19  O1A       42.0940    7.4140   91.1040 O.2   343  UPG343     -0.5170
     20  O2A       41.1750    5.8770   93.1400 O.3   343  UPG343     -0.4371
     21  O3A       39.7270    6.1100   91.0840 O.3   343  UPG343     -0.2703
     22  PB        39.5110    6.0880   89.5070 P.3   343  UPG343      0.2208
     23  O1B       39.5960    7.5330   88.7950 O.2   343  UPG343     -0.5170
     24  O2B       38.1030    5.3230   89.3220 O.3   343  UPG343     -0.4371
     25  O3B       40.6390    5.0400   89.0170 O.3   343  UPG343     -0.2857
     26  C1'       40.5360    3.7070   89.4940 C.3   343  UPG343      0.2742
     27  C2'       41.9130    3.1750   89.8700 C.3   343  UPG343      0.2409
     28  C3'       42.8440    3.1350   88.6610 C.3   343  UPG343      0.2198
     29  C4'       42.1630    2.5150   87.4480 C.3   343  UPG343      0.2144
     30  C5'       40.8180    3.1990   87.2060 C.3   343  UPG343      0.1835
     31  C6'       40.1060    2.6060   86.0100 C.3   343  UPG343      0.2142
     32  O2'       42.4800    4.0420   90.8440 O.3   343  UPG343     -0.2149
     33  O3'       43.9710    2.3380   88.9950 O.3   343  UPG343     -0.2174
     34  O4'       42.9990    2.7800   86.3300 O.3   343  UPG343     -0.2176
     35  O5'       39.9880    3.0300   88.3640 O.3   343  UPG343     -0.3254
     36  O6'       39.2280    1.5790   86.4620 O.3   343  UPG343     -0.2176
@<TRIPOS>BOND
     1    31    36    1
     2    31    30    1
     3    34    29    1
     4    30    29    1
     5    30    35    1
     6    29    28    1
     7    35    26    1
     8    28    33    1
     9    28    27    1
    10    23    22    2
    11    25    26    1
    12    25    22    1
    13    24    22    1
    14    26    27    1
    15    22    21    1
    16    27    32    1
    17    21    18    1
    18    19    18    2
    19    15    12    1
    20    11    10    1
    21    12    10    1
    22    12    13    1
    23    18    17    1
    24    18    20    1
    25    10     9    1
    26    17    16    1
    27    16    13    1
    28    13    14    1
    29     9    14    1
    30     9     1    1
    31     6     1    1
    32     6     5    2
    33     1     2   am
    34     5     4    1
    35     2     7    2
    36     2     3    2
    37     4     3    2
    38     4     8    2
