@<TRIPOS>MOLECULE
1sb9_NAD_A_1.pdb
 44 48 0 0 0
SMALL
GASTEIGER

@<TRIPOS>ATOM
      1  PA        50.1820   -1.7880   90.1890 P.3   342  NAD342      0.2189
      2  O1A       50.4210   -1.8810   91.7780 O.3   342  NAD342     -0.4371
      3  O2A       50.9350   -0.5630   89.4660 O.2   342  NAD342     -0.5170
      4  O5B       50.6110   -3.1310   89.3750 O.3   342  NAD342     -0.3112
      5  C5B       51.0380   -3.0030   88.0410 C.3   342  NAD342      0.1813
      6  C4B       52.3450   -3.7550   87.9310 C.3   342  NAD342      0.1821
      7  O4B       52.6440   -3.9650   86.5470 O.3   342  NAD342     -0.3135
      8  C3B       53.4730   -2.9570   88.5210 C.3   342  NAD342      0.2184
      9  O3B       54.1040   -3.7820   89.5030 O.3   342  NAD342     -0.2174
     10  C2B       54.3840   -2.6770   87.3830 C.3   342  NAD342      0.2570
     11  O2B       55.7390   -2.7920   87.7960 O.3   342  NAD342     -0.2130
     12  C1B       54.0330   -3.7050   86.3620 C.3   342  NAD342      0.3186
     13  N9A       54.2970   -3.2520   84.9680 N.pl3 342  NAD342     -0.1439
     14  C8A       53.8210   -2.1100   84.4290 C.3   342  NAD342      0.3377
     15  N7A       54.2490   -2.0250   83.1610 N.2   342  NAD342     -0.2095
     16  C5A       55.0150   -3.2010   82.9850 C.2   342  NAD342      0.2526
     17  C6A       55.7190   -3.6380   81.8090 C.2   342  NAD342      0.4393
     18  N6A       55.6760   -2.8530   80.6880 N.pl3 342  NAD342      0.2180
     19  N1A       56.4030   -4.8340   81.8870 N.2   342  NAD342      0.0021
     20  C2A       56.3590   -5.5260   83.0930 C.3   342  NAD342      0.5254
     21  N3A       55.7150   -5.1610   84.2230 N.2   342  NAD342     -0.0055
     22  C4A       55.0340   -3.9570   84.1280 C.2   342  NAD342      0.3518
     23  O3        48.6500   -1.6010   89.7910 O.3   342  NAD342     -0.2703
     24  PN        47.4110   -2.5320   90.1830 P.3   342  NAD342      0.2189
     25  O1N       47.8110   -3.8440   91.0230 O.3   342  NAD342     -0.4371
     26  O2N       46.4130   -1.5170   90.9460 O.2   342  NAD342     -0.5170
     27  O5D       46.6780   -2.8120   88.7840 O.3   342  NAD342     -0.3112
     28  C5D       46.9250   -4.0430   88.1600 C.3   342  NAD342      0.1813
     29  C4D       46.0470   -4.1090   86.9310 C.3   342  NAD342      0.1799
     30  O4D       44.6830   -3.9350   87.3310 O.3   342  NAD342     -0.3327
     31  C3D       46.3770   -3.0010   85.9640 C.3   342  NAD342      0.2158
     32  O3D       46.4310   -3.6060   84.6690 O.3   342  NAD342     -0.2175
     33  C2D       45.2330   -2.0640   86.0580 C.3   342  NAD342      0.2309
     34  O2D       44.9930   -1.4470   84.7950 O.3   342  NAD342     -0.2158
     35  C1D       44.1020   -2.9400   86.4800 C.3   342  NAD342      0.2263
     36  N1N       43.0280   -2.1930   87.1800 N.pl3 342  NAD342     -0.2787
     37  C2N       43.2520   -1.8420   88.4970 C.3   342  NAD342      0.1244
     38  C3N       42.1980   -1.1450   89.1270 C.2   342  NAD342      0.0544
     39  C7N       42.3190   -0.7100   90.5560 C.2   342  NAD342      0.2818
     40  O7N       41.3880   -0.2460   91.1920 O.2   342  NAD342     -0.2670
     41  N7N       43.5700   -0.8850   91.0960 N.am  342  NAD342     -0.0839
     42  C4N       40.9950   -0.8500   88.3960 C.2   342  NAD342      0.0033
     43  C5N       40.8550   -1.2550   87.0290 C.2   342  NAD342      0.0157
     44  C6N       41.9110   -1.9490   86.4120 C.2   342  NAD342      0.0633
@<TRIPOS>BOND
     1    18    17    1
     2    17    19    2
     3    17    16    1
     4    19    20    1
     5    16    15    2
     6    16    22    1
     7    20    21    1
     8    15    14    1
     9    22    21    2
    10    22    13    1
    11    14    13    1
    12    32    31    1
    13    34    33    1
    14    13    12    1
    15    31    33    1
    16    31    29    1
    17    33    35    1
    18    12     7    1
    19    12    10    1
    20    44    43    2
    21    44    36    1
    22    35    36    1
    23    35    30    1
    24     7     6    1
    25    29    30    1
    26    29    28    1
    27    43    42    1
    28    36    37    1
    29    10    11    1
    30    10     8    1
    31     6     5    1
    32     6     8    1
    33     5     4    1
    34    28    27    1
    35    42    38    2
    36    37    38    1
    37     8     9    1
    38    27    24    1
    39    38    39    1
    40     4     1    1
    41     3     1    2
    42    23    24    1
    43    23     1    1
    44    24    26    2
    45    24    25    1
    46     1     2    1
    47    39    41   am
    48    39    40    2
