@<TRIPOS>MOLECULE
1sbd_GAL_A_1.pdb
 11 11 0 0 0
SMALL
GASTEIGER

@<TRIPOS>ATOM
      1  C1         5.0540   90.1370   81.7690 C.3   847  GAL847      0.1777
      2  C2         4.3250   91.3270   81.2170 C.3   847  GAL847      0.2141
      3  C3         4.5530   91.5560   79.7200 C.3   847  GAL847      0.2173
      4  C4         6.0580   91.7040   79.5140 C.3   847  GAL847      0.2142
      5  C5         6.6740   90.4620   80.1140 C.3   847  GAL847      0.1810
      6  C6         8.1530   90.4570   80.0230 C.3   847  GAL847      0.2141
      7  O2         2.9890   91.2870   81.5230 O.3   847  GAL847     -0.2176
      8  O3         3.8390   92.7310   79.2530 O.3   847  GAL847     -0.2175
      9  O4         6.5460   92.8950   80.1850 O.3   847  GAL847     -0.2176
     10  O5         6.4100   90.3270   81.5040 O.3   847  GAL847     -0.3481
     11  O6         8.6900   89.1470   80.2010 O.3   847  GAL847     -0.2176
@<TRIPOS>BOND
     1     8     3    1
     2     4     3    1
     3     4     5    1
     4     4     9    1
     5     3     2    1
     6     6     5    1
     7     6    11    1
     8     5    10    1
     9     2     7    1
    10     2     1    1
    11    10     1    1
