@<TRIPOS>MOLECULE
1sbe_GAL_A_1.pdb
 11 11 0 0 0
SMALL
GASTEIGER

@<TRIPOS>ATOM
      1  C1         4.9440   89.2430   81.8030 C.3   847  GAL847      0.1777
      2  C2         4.2400   90.4880   81.3020 C.3   847  GAL847      0.2141
      3  C3         4.5880   90.7430   79.8460 C.3   847  GAL847      0.2173
      4  C4         6.1200   90.7760   79.6990 C.3   847  GAL847      0.2142
      5  C5         6.7370   89.4780   80.1860 C.3   847  GAL847      0.1810
      6  C6         8.2760   89.5620   80.1500 C.3   847  GAL847      0.2141
      7  O2         2.8300   90.4640   81.3780 O.3   847  GAL847     -0.2176
      8  O3         3.8600   91.8570   79.2740 O.3   847  GAL847     -0.2175
      9  O4         6.7050   91.8310   80.4270 O.3   847  GAL847     -0.2176
     10  O5         6.3560   89.2800   81.5440 O.3   847  GAL847     -0.3481
     11  O6         9.0290   88.3700   80.2960 O.3   847  GAL847     -0.2176
@<TRIPOS>BOND
     1     8     3    1
     2     4     3    1
     3     4     5    1
     4     4     9    1
     5     3     2    1
     6     6     5    1
     7     6    11    1
     8     5    10    1
     9     2     7    1
    10     2     1    1
    11    10     1    1
