@<TRIPOS>MOLECULE
1sbf_GAL_A_1.pdb
 11 11 0 0 0
SMALL
GASTEIGER

@<TRIPOS>ATOM
      1  C1       101.1700   27.8330   17.2500 C.3   745  GAL745      0.1777
      2  C2       101.6180   26.5150   17.8330 C.3   745  GAL745      0.2141
      3  C3       101.9230   26.7100   19.3310 C.3   745  GAL745      0.2173
      4  C4       102.9350   27.8070   19.5800 C.3   745  GAL745      0.2142
      5  C5       102.5770   29.0360   18.7630 C.3   745  GAL745      0.1810
      6  C6       103.7630   29.9920   18.7820 C.3   745  GAL745      0.2141
      7  O2       100.5960   25.5700   17.6690 O.3   745  GAL745     -0.2176
      8  O3       102.4630   25.5340   19.8430 O.3   745  GAL745     -0.2175
      9  O4       104.2270   27.3820   19.1810 O.3   745  GAL745     -0.2176
     10  O5       102.3040   28.6920   17.3960 O.3   745  GAL745     -0.3481
     11  O6       103.4860   31.3490   18.4190 O.3   745  GAL745     -0.2176
@<TRIPOS>BOND
     1     1    10    1
     2     1     2    1
     3    10     5    1
     4     7     2    1
     5     2     3    1
     6    11     6    1
     7     5     6    1
     8     5     4    1
     9     9     4    1
    10     3     4    1
    11     3     8    1
