@<TRIPOS>MOLECULE
1sbg_IM1_A_1.pdb
 39 41 0 0 0
SMALL
GASTEIGER

@<TRIPOS>ATOM
      1  C1        -9.3770   16.1320   32.9290 C.3   400  IM1400      0.1379
      2  C2        -8.1940   15.2270   33.2470 C.3   400  IM1400      0.0437
      3  C3        -8.8030   17.3840   32.3150 C.3   400  IM1400      0.0437
      4  C4        -9.9550   16.4170   34.3030 C.3   400  IM1400      0.0437
      5  O5       -10.3690   15.5620   32.1090 O.3   400  IM1400     -0.4408
      6  C6       -10.3410   15.5740   30.6980 C.2   400  IM1400      0.4209
      7  O7        -9.4330   14.9910   30.0760 O.2   400  IM1400     -0.2246
      8  N8       -11.2880   16.2180   29.9740 N.am  400  IM1400     -0.1675
      9  C9       -11.2530   16.2170   28.4840 C.3   400  IM1400      0.1333
     10  C10      -12.6630   15.8180   27.9700 C.3   400  IM1400      0.0507
     11  C11      -13.1940   14.6250   28.7790 C.ar  400  IM1400     -0.0204
     12  C12      -12.5660   13.3720   28.6980 C.ar  400  IM1400     -0.0042
     13  C13      -12.9720   12.3190   29.5260 C.ar  400  IM1400     -0.0003
     14  C14      -14.0090   12.5140   30.4280 C.ar  400  IM1400     -0.0000
     15  C15      -14.6490   13.7610   30.5080 C.ar  400  IM1400     -0.0003
     16  C16      -14.2500   14.8170   29.6910 C.ar  400  IM1400     -0.0042
     17  C17      -10.7480   17.4760   27.7290 C.3   400  IM1400      0.1727
     18  O18      -11.1280   18.6940   28.3500 O.3   400  IM1400     -0.2213
     19  C19       -9.2750   17.4280   27.8840 C.3   400  IM1400      0.0442
     20  C20       -8.3950   18.0100   26.8520 C.3   400  IM1400      0.0851
     21  C21       -7.0860   18.3190   27.6090 C.3   400  IM1400      0.0356
     22  C22       -5.8530   18.5510   26.7390 C.ar  400  IM1400     -0.0217
     23  C23       -5.6750   19.7570   26.0430 C.ar  400  IM1400     -0.0043
     24  C24       -4.5370   19.9130   25.2450 C.ar  400  IM1400     -0.0003
     25  C25       -3.5820   18.8760   25.1420 C.ar  400  IM1400     -0.0000
     26  C26       -3.7630   17.6880   25.8340 C.ar  400  IM1400     -0.0003
     27  C27       -4.8960   17.5280   26.6290 C.ar  400  IM1400     -0.0043
     28  C28       -8.2370   17.0300   25.6550 C.2   400  IM1400      0.2422
     29  O29       -8.2100   15.7820   25.7390 O.2   400  IM1400     -0.2733
     30  N30       -8.1120   17.6080   24.4690 N.am  400  IM1400     -0.1919
     31  C31       -7.9260   16.8390   23.2670 C.3   400  IM1400      0.1794
     32  C32       -9.2330   16.6760   22.5340 C.3   400  IM1400      0.0343
     33  C33       -9.0190   16.6450   21.0380 C.3   400  IM1400      0.0029
     34  C34       -9.8750   15.3700   23.0100 C.3   400  IM1400      0.0029
     35  C35       -6.9600   17.7470   22.5340 C.1   400  IM1400      0.0316
     36  N36       -7.1040   19.0700   22.4050 N.2   400  IM1400     -0.1932
     37  C37       -5.9450   19.3470   21.8490 C.2   400  IM1400      0.1307
     38  C38       -5.1310   18.2030   21.6420 C.2   400  IM1400      0.1307
     39  N39       -5.8300   17.1880   22.1020 N.2   400  IM1400     -0.1932
@<TRIPOS>BOND
     1    33    32    1
     2    38    37    2
     3    38    39    1
     4    37    36    1
     5    39    35    2
     6    36    35    2
     7    35    31    1
     8    32    34    1
     9    32    31    1
    10    31    30    1
    11    30    28   am
    12    25    24   ar
    13    25    26   ar
    14    24    23   ar
    15    28    29    2
    16    28    20    1
    17    26    27   ar
    18    23    22   ar
    19    27    22   ar
    20    22    21    1
    21    20    21    1
    22    20    19    1
    23    17    19    1
    24    17    18    1
    25    17     9    1
    26    10     9    1
    27    10    11    1
    28     9     8    1
    29    12    11   ar
    30    12    13   ar
    31    11    16   ar
    32    13    14   ar
    33    16    15   ar
    34     8     6   am
    35     7     6    2
    36    14    15   ar
    37     6     5    1
    38     5     1    1
    39     3     1    1
    40     1     2    1
    41     1     4    1
