@<TRIPOS>MOLECULE
1sbm_FMI_A_1.pdb
 44 51 0 0 0
SMALL
GASTEIGER

@<TRIPOS>ATOM
      1 FE         28.1350   91.8460   52.0860 Fe    296  FMI296      0.0000
      2  NA        29.0360   93.5760   51.4600 N.2   296  FMI296      0.0000
      3  NB        29.1660   91.9350   53.8330 N.pl3 296  FMI296      0.0000
      4  NC        27.0090   90.2660   52.7390 N.2   296  FMI296      0.0000
      5  ND        26.9380   91.9150   50.3950 N.ar  296  FMI296      0.0000
      6  C1A       28.8100   94.2620   50.2930 C.2   296  FMI296      0.0000
      7  CHA       27.8980   93.8960   49.3120 C.2   296  FMI296      0.0000
      8  C4D       27.0390   92.8060   49.3440 C.ar  296  FMI296      0.0000
      9  C1B       30.1430   92.8650   54.1880 C.2   296  FMI296      0.0000
     10  CHB       30.5390   93.9470   53.3780 C.2   296  FMI296      0.0000
     11  C4A       30.0190   94.2760   52.1310 C.2   296  FMI296      0.0000
     12  C1C       27.1740   89.6310   53.9490 C.2   296  FMI296      0.0000
     13  CHC       28.1070   89.9880   54.9180 C.2   296  FMI296      0.0000
     14  C4B       29.0100   91.0340   54.8820 C.2   296  FMI296      0.0000
     15  C1D       25.9470   91.0150   50.0350 C.ar  296  FMI296      0.0000
     16  CHD       25.4970   89.9590   50.8260 C.2   296  FMI296      0.0000
     17  C4C       25.9750   89.6150   52.0960 C.2   296  FMI296      0.0000
     18  C2A       29.6630   95.4280   50.2360 C.2   296  FMI296      0.0000
     19  CAA       29.6800   96.4420   49.1190 C.3   296  FMI296      0.0000
     20  C3A       30.4160   95.4330   51.3670 C.2   296  FMI296      0.0000
     21  CMA       31.4780   96.4650   51.7910 C.3   296  FMI296      0.0000
     22  CBA       28.5850   97.4940   49.3380 C.3   296  FMI296      0.0000
     23  CGA       28.5280   98.5410   48.2630 C.2   296  FMI296      0.0000
     24  O1A       29.5500   99.2270   48.0660 O.co2 296  FMI296      0.0000
     25  O2A       27.4630   98.6840   47.6200 O.co2 296  FMI296      0.0000
     26  C2B       30.6500   92.4890   55.6060 C.2   296  FMI296      0.0000
     27  CLB       32.0570   91.8370   55.3370 C.3   296  FMI296      0.0000
     28  CMB       30.7820   93.8450   56.3890 C.3   296  FMI296      0.0000
     29  CNB       29.3160   94.3260   56.6740 C.3   296  FMI296      0.0000
     30  C3B       29.8950   91.3300   55.9680 C.2   296  FMI296      0.0000
     31  OAB       30.2110   90.8700   57.2080 O.2   296  FMI296      0.0000
     32  C2C       26.2220   88.5470   54.0860 C.2   296  FMI296      0.0000
     33  CMC       26.1370   87.6410   55.3310 C.3   296  FMI296      0.0000
     34  C3C       25.4650   88.5300   52.9270 C.2   296  FMI296      0.0000
     35  CAC       24.3850   87.6700   52.5410 C.3   296  FMI296      0.0000
     36  CBC       23.6470   86.6640   53.3130 C.3   296  FMI296      0.0000
     37  C2D       25.4410   91.3400   48.7130 C.ar  296  FMI296      0.0000
     38  CMD       24.3390   90.5640   47.9620 C.3   296  FMI296      0.0000
     39  C3D       26.1170   92.4440   48.2860 C.ar  296  FMI296      0.0000
     40  CAD       25.9450   93.1890   46.9290 C.3   296  FMI296      0.0000
     41  CBD       25.1000   94.4640   46.9950 C.3   296  FMI296      0.0000
     42  CGD       24.9700   95.1740   45.6440 C.2   296  FMI296      0.0000
     43  O1D       24.2970   96.2250   45.6000 O.co2 296  FMI296      0.0000
     44  O2D       25.5350   94.6950   44.6290 O.co2 296  FMI296      0.0000
@<TRIPOS>BOND
     1    44    42   ar
     2    43    42   ar
     3    42    41    1
     4    40    41    1
     5    40    39    1
     6    25    23   ar
     7    38    37    1
     8    24    23   ar
     9    23    22    1
    10    39    37   ar
    11    39     8   ar
    12    37    15   ar
    13    19    22    1
    14    19    18    1
    15     7     8    2
    16     7     6    1
    17     8     5   ar
    18    15     5   ar
    19    15    16    2
    20    18     6    1
    21    18    20    2
    22     6     2    2
    23     5     1    1
    24    16    17    1
    25    20    21    1
    26    20    11    1
    27     2     1    1
    28     2    11    1
    29     1     4    1
    30     1     3    1
    31    17     4    2
    32    17    34    1
    33    11    10    2
    34    35    34    1
    35    35    36    1
    36     4    12    1
    37    34    32    2
    38    10     9    1
    39     3     9    1
    40     3    14    1
    41    12    32    1
    42    12    13    2
    43    32    33    1
    44     9    26    2
    45    14    13    1
    46    14    30    2
    47    27    26    1
    48    26    30    1
    49    26    28    1
    50    30    31    1
    51    28    29    1
