@<TRIPOS>MOLECULE
1sbr_VIB_A_1.pdb
 18 19 0 0 0
SMALL
GASTEIGER

@<TRIPOS>ATOM
      1  CM2       11.6510   41.9440    4.2410 C.3   501  VIB501      0.1291
      2  N4A       14.7650   43.9370    7.2660 N.pl3 501  VIB501     -0.0925
      3  CM4       16.0560   46.2700    3.0440 C.3   501  VIB501      0.0473
      4  O1        19.4780   44.7750    1.5790 O.3   501  VIB501     -0.2200
      5  C7        19.2880   44.6420    2.9730 C.3   501  VIB501      0.1873
      6  C6        19.1850   46.0630    3.4720 C.3   501  VIB501      0.0691
      7  C2        17.0440   46.2030    6.5290 C.3   501  VIB501      0.1543
      8  S1        18.6850   46.0750    6.1150 S.3   501  VIB501     -0.0951
      9  C5        18.1240   46.1150    4.5530 C.2   501  VIB501      0.0165
     10  C4        16.7810   46.2280    4.3750 C.2   501  VIB501      0.0279
     11  N3        16.1740   46.2730    5.5450 N.pl3 501  VIB501     -0.2970
     12  C7A       14.8560   46.3420    5.7470 C.3   501  VIB501      0.1237
     13  C4A       14.0620   44.1140    6.1350 C.2   501  VIB501      0.2292
     14  N3A       13.2820   43.0950    5.7960 N.2   501  VIB501     -0.3368
     15  C2A       12.5960   43.0930    4.5470 C.1   501  VIB501      0.0663
     16  N1A       12.5430   44.3720    3.8580 N.2   501  VIB501     -0.1861
     17  C6A       13.3400   45.3600    4.2730 C.2   501  VIB501      0.1115
     18  C5A       14.0730   45.2640    5.4100 C.2   501  VIB501      0.0654
@<TRIPOS>BOND
     1     4     5    1
     2     5     6    1
     3     3    10    1
     4     6     9    1
     5    16    17    1
     6    16    15    2
     7     1    15    1
     8    17    18    2
     9    10     9    2
    10    10    11    1
    11    15    14    2
    12     9     8    1
    13    18    12    1
    14    18    13    1
    15    11    12    1
    16    11     7    1
    17    14    13    2
    18     8     7    1
    19    13     2    1
