@<TRIPOS>MOLECULE
1sbz_FMN_A_1.pdb
 31 33 0 0 0
SMALL
GASTEIGER

@<TRIPOS>ATOM
      1  N1        54.1230   -1.0270   20.3950 N.2   1401  FMN1401    -0.2887
      2  C2        53.0270   -1.8570   20.5220 C.1   1401  FMN1401     0.3669
      3  O2        53.1080   -3.0080   20.1090 O.2   1401  FMN1401    -0.1744
      4  N3        51.8600   -1.3980   21.1200 N.2   1401  FMN1401    -0.2300
      5  C4        51.7890   -0.0990   21.5840 C.1   1401  FMN1401     0.2513
      6  O4        50.7170    0.3470   21.9970 O.2   1401  FMN1401    -0.2057
      7  C4A       52.9000    0.7440   21.4510 C.2   1401  FMN1401     0.2703
      8  N5        52.8420    2.0400   21.9140 N.2   1401  FMN1401    -0.3885
      9  C5A       53.9350    2.8840   21.7920 C.2   1401  FMN1401     0.1233
     10  C6        53.8420    4.1920   22.2700 C.3   1401  FMN1401     0.0606
     11  C7        54.9230    5.0650   22.1780 C.3   1401  FMN1401     0.0111
     12  C7M       55.0170    6.0750   23.2910 C.3   1401  FMN1401     0.0008
     13  C8        56.1050    4.6150   21.5710 C.3   1401  FMN1401     0.0238
     14  C8M       57.3650    5.4340   21.6560 C.3   1401  FMN1401     0.0047
     15  C9        56.1970    3.3100   21.0890 C.2   1401  FMN1401    -0.0093
     16  C9A       55.1110    2.4340   21.1970 C.2   1401  FMN1401     0.0750
     17  N10       55.1830    1.1260   20.7230 N.pl3 1401  FMN1401    -0.2548
     18  C10       54.0780    0.2810   20.8510 C.2   1401  FMN1401     0.2449
     19  C1'       56.3650    0.7110   19.8930 C.3   1401  FMN1401     0.1336
     20  C2'       57.3090   -0.1480   20.7270 C.3   1401  FMN1401     0.2048
     21  O2'       57.7570    0.5940   21.8410 O.3   1401  FMN1401    -0.2185
     22  C3'       58.4880   -0.6580   19.8960 C.3   1401  FMN1401     0.2165
     23  O3'       58.0210   -1.6500   19.0080 O.3   1401  FMN1401    -0.2175
     24  C4'       59.6380   -1.2280   20.7350 C.3   1401  FMN1401     0.2147
     25  O4'       60.6090   -1.7750   19.8690 O.3   1401  FMN1401    -0.2176
     26  C5'       59.1820   -2.3120   21.7050 C.3   1401  FMN1401     0.1892
     27  O5'       60.3050   -2.9060   22.3030 O.3   1401  FMN1401    -0.2674
     28  P         60.1610   -3.7120   23.6760 P.3   1401  FMN1401     0.5327
     29  O1P       61.4660   -4.3990   23.9650 O.3   1401  FMN1401    -0.1145
     30  O2P       59.0560   -4.7540   23.5850 O.2   1401  FMN1401    -0.2224
     31  O3P       59.8080   -2.7210   24.7630 O.3   1401  FMN1401    -0.1145
@<TRIPOS>BOND
     1    23    22    1
     2    25    24    1
     3    19    17    1
     4    19    20    1
     5    22    20    1
     6    22    24    1
     7     3     2    2
     8     1     2    2
     9     1    18    2
    10     2     4    2
    11    17    18    1
    12    17    16    1
    13    20    21    1
    14    24    26    1
    15    18     7    1
    16    15    16    2
    17    15    13    1
    18     4     5    2
    19    16     9    1
    20     7     5    1
    21     7     8    2
    22    13    14    1
    23    13    11    1
    24     5     6    2
    25    26    27    1
    26     9     8    2
    27     9    10    1
    28    11    10    1
    29    11    12    1
    30    27    28    1
    31    30    28    2
    32    28    29    1
    33    28    31    1
