@<TRIPOS>MOLECULE
1sc6_NAD_A_1.pdb
 44 48 0 0 0
SMALL
GASTEIGER

@<TRIPOS>ATOM
      1  PA        13.5610   66.6100   49.5340 P.3   2101  NAD2101     0.2189
      2  O1A       12.6290   65.8870   50.4220 O.3   2101  NAD2101    -0.4371
      3  O2A       14.8490   65.8980   49.3120 O.2   2101  NAD2101    -0.5170
      4  O5B       13.9530   67.9960   50.1910 O.3   2101  NAD2101    -0.3112
      5  C5B       12.9560   68.9700   50.5570 C.3   2101  NAD2101     0.1813
      6  C4B       13.7070   69.8060   51.5650 C.3   2101  NAD2101     0.1821
      7  O4B       12.8370   70.8680   52.0630 O.3   2101  NAD2101    -0.3135
      8  C3B       14.1620   69.0330   52.8170 C.3   2101  NAD2101     0.2184
      9  O3B       15.5850   69.2170   53.0590 O.3   2101  NAD2101    -0.2174
     10  C2B       13.2570   69.6170   53.8840 C.3   2101  NAD2101     0.2570
     11  O2B       13.9040   69.5590   55.1610 O.3   2101  NAD2101    -0.2130
     12  C1B       13.0520   71.0640   53.3980 C.3   2101  NAD2101     0.3186
     13  N9A       11.8420   71.6640   53.9220 N.pl3 2101  NAD2101    -0.1439
     14  C8A       10.6570   71.0300   54.2160 C.3   2101  NAD2101     0.3377
     15  N7A        9.7190   71.8520   54.6870 N.2   2101  NAD2101    -0.2095
     16  C5A       10.3610   73.0810   54.6850 C.2   2101  NAD2101     0.2526
     17  C6A        9.9210   74.3820   55.0690 C.2   2101  NAD2101     0.4393
     18  N6A        8.7090   74.6570   55.5400 N.pl3 2101  NAD2101     0.2180
     19  N1A       10.8150   75.4240   54.9450 N.2   2101  NAD2101     0.0021
     20  C2A       12.0770   75.1550   54.4600 C.3   2101  NAD2101     0.5254
     21  N3A       12.5610   73.9770   54.0830 N.2   2101  NAD2101    -0.0055
     22  C4A       11.6640   72.9800   54.2160 C.2   2101  NAD2101     0.3518
     23  O3        12.7810   66.9010   48.1730 O.3   2101  NAD2101    -0.2703
     24  PN        13.4260   67.0760   46.6900 P.3   2101  NAD2101     0.2189
     25  O1N       13.6950   65.8120   45.9840 O.2   2101  NAD2101    -0.5170
     26  O2N       14.6530   67.9500   46.8110 O.3   2101  NAD2101    -0.4371
     27  O5D       12.1340   67.7330   46.0200 O.3   2101  NAD2101    -0.3112
     28  C5D       11.6470   69.0380   46.4520 C.3   2101  NAD2101     0.1813
     29  C4D       10.3860   69.3270   45.6610 C.3   2101  NAD2101     0.1799
     30  O4D       10.5420   68.8990   44.2760 O.3   2101  NAD2101    -0.3327
     31  C3D        9.1230   68.6190   46.1820 C.3   2101  NAD2101     0.2158
     32  O3D        7.9700   69.4880   46.0810 O.3   2101  NAD2101    -0.2175
     33  C2D        8.9840   67.4390   45.2390 C.3   2101  NAD2101     0.2309
     34  O2D        7.6310   66.9560   45.1740 O.3   2101  NAD2101    -0.2158
     35  C1D        9.4650   68.0240   43.9370 C.3   2101  NAD2101     0.2263
     36  N1N        9.8920   67.0030   42.9690 N.pl3 2101  NAD2101    -0.2787
     37  C2N       11.1530   66.3580   43.0810 C.3   2101  NAD2101     0.1244
     38  C3N       11.5890   65.3400   42.1090 C.2   2101  NAD2101     0.0544
     39  C7N       12.9410   64.7350   42.3240 C.2   2101  NAD2101     0.2818
     40  O7N       13.2440   63.8910   41.4580 O.2   2101  NAD2101    -0.2670
     41  N7N       13.7780   65.0610   43.3540 N.am  2101  NAD2101    -0.0839
     42  C4N       10.6800   64.9840   40.9890 C.2   2101  NAD2101     0.0033
     43  C5N        9.3480   65.7180   40.9420 C.2   2101  NAD2101     0.0157
     44  C6N        9.0390   66.6320   41.8700 C.2   2101  NAD2101     0.0633
@<TRIPOS>BOND
     1    43    42    1
     2    43    44    2
     3    42    38    2
     4    40    39    2
     5    44    36    1
     6    38    39    1
     7    38    37    1
     8    39    41   am
     9    36    37    1
    10    36    35    1
    11    35    30    1
    12    35    33    1
    13    30    29    1
    14    34    33    1
    15    33    31    1
    16    29    31    1
    17    29    28    1
    18    25    24    2
    19    27    28    1
    20    27    24    1
    21    32    31    1
    22    24    26    1
    23    24    23    1
    24    23     1    1
    25     3     1    2
    26     1     4    1
    27     1     2    1
    28     4     5    1
    29     5     6    1
    30     6     7    1
    31     6     8    1
    32     7    12    1
    33     8     9    1
    34     8    10    1
    35    12    10    1
    36    12    13    1
    37    10    11    1
    38    13    14    1
    39    13    22    1
    40    21    22    2
    41    21    20    1
    42    14    15    1
    43    22    16    1
    44    20    19    1
    45    16    15    2
    46    16    17    1
    47    19    17    2
    48    17    18    1
