@<TRIPOS>MOLECULE
1sc7_M38_C_1.pdb
 25 28 0 0 0
SMALL
GASTEIGER

@<TRIPOS>ATOM
      1  C1        95.7770    2.0310    9.9950 C.ar  990  M38990      0.0003
      2  C2        94.4890    1.9450   10.5960 C.ar  990  M38990      0.0000
      3  C3        94.3680    1.9600   12.0070 C.ar  990  M38990      0.0002
      4  C4        95.5290    2.0620   12.8240 C.ar  990  M38990      0.0047
      5  C5        96.8370    2.1530   12.2390 C.ar  990  M38990      0.0563
      6  C6        96.9560    2.1360   10.8000 C.ar  990  M38990      0.0091
      7  C7        98.3550    2.2360   10.1650 C.ar  990  M38990      0.0549
      8  C8        99.4680    2.3470   10.9570 C.ar  990  M38990      0.0656
      9  C9        98.1200    2.2730   13.1120 C.ar  990  M38990      0.2608
     10  N10       99.3880    2.3680   12.4750 N.ar  990  M38990     -0.2954
     11  C11       98.6980    2.2360    8.6910 C.2   990  M38990      0.1970
     12  C12      100.1700    2.3670    8.6670 C.ar  990  M38990      0.0404
     13  C13      100.6630    2.4350   10.0140 C.ar  990  M38990      0.0191
     14  C14      101.0690    2.4300    7.5450 C.ar  990  M38990      0.0032
     15  C15      102.4690    2.5640    7.7820 C.ar  990  M38990      0.0001
     16  C16      102.9810    2.6340    9.1080 C.ar  990  M38990      0.0001
     17  C17      102.1000    2.5710   10.2310 C.ar  990  M38990      0.0015
     18  O18       97.9430    2.1510    7.7140 O.2   990  M38990     -0.2865
     19  O19      103.6780   -0.4600   15.4190 O.co2 990  M38990     -0.2457
     20  O20      102.8940   -1.4650   13.6130 O.co2 990  M38990     -0.2457
     21  O21       98.0090    2.2890   14.3540 O.2   990  M38990     -0.2670
     22  C22      100.6340    2.4980   13.3410 C.3   990  M38990      0.1096
     23  C23      101.0990    1.1780   13.9870 C.3   990  M38990      0.0364
     24  C24      103.0980   -0.4280   14.3110 C.2   990  M38990      0.3649
     25  C25      102.6220    0.9340   13.7980 C.3   990  M38990      0.1161
@<TRIPOS>BOND
     1    14    15   ar
     2    14    12   ar
     3    18    11    2
     4    15    16   ar
     5    12    11    1
     6    12    13   ar
     7    11     7    1
     8    16    17   ar
     9     1     2   ar
    10     1     6   ar
    11    13    17   ar
    12    13     8    1
    13     7     6   ar
    14     7     8   ar
    15     2     3   ar
    16     6     5   ar
    17     8    10   ar
    18     3     4   ar
    19     5     4   ar
    20     5     9   ar
    21    10     9   ar
    22    10    22    1
    23     9    21    2
    24    22    23    1
    25    20    24   ar
    26    25    23    1
    27    25    24    1
    28    24    19   ar
