@<TRIPOS>MOLECULE
1sc8_2IN_U_1.pdb
 31 32 0 0 0
SMALL
GASTEIGER

@<TRIPOS>ATOM
      1  N4        33.2550    2.9670   27.9080 N.pl3 300  2IN300      0.2047
      2  N5        34.3090    4.7250   27.0940 N.pl3 300  2IN300      0.2047
      3  C18       33.1790    4.2800   27.6500 C.2   300  2IN300      0.4766
      4  C14       32.0720    5.1030   27.9120 C.ar  300  2IN300      0.0975
      5  C13       31.9610    6.4910   27.4340 C.ar  300  2IN300      0.0077
      6  C12       30.7700    7.2710   27.6590 C.ar  300  2IN300     -0.0023
      7  C17       29.6970    6.6860   28.4560 C.ar  300  2IN300     -0.0006
      8  C16       29.7750    5.3320   28.9560 C.ar  300  2IN300     -0.0023
      9  C15       30.9500    4.5650   28.6920 C.ar  300  2IN300      0.0077
     10  C11       28.4260    7.3650   28.8680 C.3   300  2IN300      0.1415
     11  N3        28.4480    8.2740   29.9300 N.am  300  2IN300     -0.1991
     12  C10       28.7680    9.6030   29.7830 C.2   300  2IN300      0.2638
     13  O5        29.0050   10.2130   28.7450 O.2   300  2IN300     -0.2714
     14  C8        28.8340   10.3830   31.0940 C.3   300  2IN300      0.2014
     15  N2        30.0400   11.1740   31.0280 N.am  300  2IN300     -0.1941
     16  C7        31.3660   10.8020   31.0110 C.2   300  2IN300      0.2622
     17  O4        31.7890    9.6780   31.1160 O.2   300  2IN300     -0.2717
     18  C5        32.3620   11.9350   30.8300 C.3   300  2IN300      0.2075
     19  C6        33.1230   12.3240   32.1200 C.3   300  2IN300      0.2106
     20  O3        32.4870   12.3930   33.3690 O.3   300  2IN300     -0.2182
     21  N1        33.5000   11.6710   29.9870 N.3   300  2IN300     -0.0711
     22  S1        33.3130   12.0270   28.4080 S.O2  300  2IN300      0.0621
     23  O2        32.9000   13.3830   28.2150 O.2   300  2IN300     -0.1558
     24  O1        34.6390   11.6510   27.9190 O.2   300  2IN300     -0.1558
     25  C1        32.1970   10.9650   27.4930 C.3   300  2IN300      0.1969
     26  C4        31.8210   11.1810   26.0660 C.ar  300  2IN300      0.0030
     27  C3        30.8310   12.2150   25.7540 C.ar  300  2IN300     -0.0025
     28  C2        30.4570   12.4660   24.3570 C.ar  300  2IN300     -0.0003
     29  C21       31.0400   11.6620   23.2750 C.ar  300  2IN300     -0.0000
     30  C20       32.0480   10.6280   23.5870 C.ar  300  2IN300     -0.0003
     31  C19       32.4160   10.3850   24.9880 C.ar  300  2IN300     -0.0025
@<TRIPOS>BOND
     1    29    30   ar
     2    29    28   ar
     3    30    31   ar
     4    28    27   ar
     5    31    26   ar
     6    27    26   ar
     7    26    25    1
     8     2     3    2
     9     5     6   ar
    10     5     4   ar
    11    25    22    1
    12     3     1    1
    13     3     4    1
    14     6     7   ar
    15     4     9   ar
    16    24    22    2
    17    23    22    2
    18    22    21    1
    19     7    10    1
    20     7     8   ar
    21     9     8   ar
    22    13    12    2
    23    10    11    1
    24    12    11   am
    25    12    14    1
    26    21    18    1
    27    18    16    1
    28    18    19    1
    29    16    15   am
    30    16    17    2
    31    15    14    1
    32    19    20    1
