@<TRIPOS>MOLECULE
1sch_HEM_A_1.pdb
 43 50 0 0 0
SMALL
GASTEIGER

@<TRIPOS>ATOM
      1  CHA       19.4580   31.9790   61.7810 C.2   300  HEM300      0.0000
      2  CHB       18.7000   29.1670   57.9340 C.2   300  HEM300      0.0000
      3  CHC       21.7230   31.8700   55.4320 C.2   300  HEM300      0.0000
      4  CHD       21.8300   35.0650   58.9670 C.2   300  HEM300      0.0000
      5  C1A       18.9450   30.9850   60.9620 C.ar  300  HEM300      0.0000
      6  C2A       18.0470   29.8970   61.3830 C.ar  300  HEM300      0.0000
      7  C3A       17.8080   29.1490   60.2680 C.ar  300  HEM300      0.0000
      8  C4A       18.6000   29.7220   59.2030 C.ar  300  HEM300      0.0000
      9  CMA       16.8930   27.9380   60.1350 C.3   300  HEM300      0.0000
     10  CAA       17.5020   29.5690   62.7700 C.3   300  HEM300      0.0000
     11  CBA       16.1360   30.2060   62.9790 C.3   300  HEM300      0.0000
     12  CGA       15.4080   29.6780   64.1980 C.2   300  HEM300      0.0000
     13  O1A       15.5510   28.4820   64.5270 O.co2 300  HEM300      0.0000
     14  O2A       14.6610   30.4550   64.8210 O.co2 300  HEM300      0.0000
     15  C1B       19.4880   29.6440   56.9150 C.2   300  HEM300      0.0000
     16  C2B       19.6950   28.9620   55.6580 C.2   300  HEM300      0.0000
     17  C3B       20.5610   29.7100   54.9590 C.2   300  HEM300      0.0000
     18  C4B       20.8960   30.8380   55.8070 C.2   300  HEM300      0.0000
     19  CMB       19.0550   27.6740   55.1780 C.3   300  HEM300      0.0000
     20  CAB       20.9080   29.5250   53.6320 C.3   300  HEM300      0.0000
     21  CBB       22.0050   28.7240   53.1640 C.3   300  HEM300      0.0000
     22  C1C       21.9480   33.0180   56.1560 C.ar  300  HEM300      0.0000
     23  C2C       22.4390   34.2430   55.5540 C.ar  300  HEM300      0.0000
     24  C3C       22.3590   35.2090   56.5160 C.ar  300  HEM300      0.0000
     25  C4C       21.8320   34.5280   57.7090 C.ar  300  HEM300      0.0000
     26  CMC       22.8400   34.3830   54.0860 C.3   300  HEM300      0.0000
     27  CAC       22.6070   36.5790   56.4150 C.3   300  HEM300      0.0000
     28  CBC       23.6250   37.2090   55.6110 C.3   300  HEM300      0.0000
     29  C1D       21.4510   34.3620   60.1040 C.2   300  HEM300      0.0000
     30  C2D       21.6220   34.8450   61.4450 C.2   300  HEM300      0.0000
     31  C3D       20.9480   33.9860   62.2350 C.2   300  HEM300      0.0000
     32  C4D       20.3930   32.9450   61.3930 C.2   300  HEM300      0.0000
     33  CMD       22.4880   36.0300   61.8580 C.3   300  HEM300      0.0000
     34  CAD       20.7610   34.1360   63.7260 C.3   300  HEM300      0.0000
     35  CBD       19.4460   34.8400   63.9790 C.3   300  HEM300      0.0000
     36  CGD       19.1940   35.1340   65.4440 C.2   300  HEM300      0.0000
     37  O1D       18.2980   35.9510   65.7250 O.co2 300  HEM300      0.0000
     38  O2D       19.8830   34.5610   66.3170 O.co2 300  HEM300      0.0000
     39  NA        19.3000   30.8460   59.6310 N.ar  300  HEM300      0.0000
     40  NB        20.2510   30.7810   57.0140 N.2   300  HEM300      0.0000
     41  NC        21.5230   33.2060   57.4540 N.ar  300  HEM300      0.0000
     42  ND        20.7920   33.1330   60.0930 N.2   300  HEM300      0.0000
     43 FE         20.5320   31.9360   58.5870 Fe    300  HEM300      0.0000
@<TRIPOS>BOND
     1    21    20    1
     2    20    17    1
     3    26    23    1
     4    17    16    2
     5    17    18    1
     6    19    16    1
     7     3    18    2
     8     3    22    1
     9    23    22   ar
    10    23    24   ar
    11    28    27    1
    12    16    15    1
    13    18    40    1
    14    22    41   ar
    15    27    24    1
    16    24    25   ar
    17    15    40    2
    18    15     2    1
    19    40    43    1
    20    41    25   ar
    21    41    43    1
    22    25     4    1
    23     2     8    2
    24    43    39    1
    25    43    42    1
    26     4    29    2
    27     8    39   ar
    28     8     7   ar
    29    39     5   ar
    30    42    29    1
    31    42    32    2
    32    29    30    1
    33     9     7    1
    34     7     6   ar
    35     5     6   ar
    36     5     1    2
    37     6    10    1
    38    32     1    1
    39    32    31    1
    40    30    33    1
    41    30    31    2
    42    31    34    1
    43    10    11    1
    44    11    12    1
    45    34    35    1
    46    35    36    1
    47    12    13   ar
    48    12    14   ar
    49    36    37   ar
    50    36    38   ar
