@<TRIPOS>MOLECULE
1scn_0EF_E_1.pdb
 31 32 0 0 0
SMALL
GASTEIGER

@<TRIPOS>ATOM
      1  O1        69.9610   64.8880   53.3510 O.2   447  0EF447     -0.2246
      2  C         70.7270   64.0730   52.9430 C.2   447  0EF447      0.4213
      3  O2        70.5050   63.5880   51.6810 O.3   447  0EF447     -0.4408
      4  CT        69.1910   62.9850   51.6390 C.3   447  0EF447      0.1379
      5  C1        68.6370   62.4480   52.9930 C.3   447  0EF447      0.0437
      6  C2        68.1340   63.9350   51.1840 C.3   447  0EF447      0.0437
      7  C3        69.1590   61.9100   50.6110 C.3   447  0EF447      0.0437
      8  N         72.1380   64.1380   53.0360 N.am  447  0EF447     -0.1611
      9  CA        72.8970   64.1270   54.2900 C.3   447  0EF447      0.1747
     10  C4        73.8660   65.3070   54.4720 C.2   447  0EF447      0.2459
     11  O         74.4840   65.7380   53.4780 O.2   447  0EF447     -0.2730
     12  CB        73.6890   62.8200   54.4460 C.3   447  0EF447      0.0334
     13  N1        74.0160   65.7650   55.7050 N.am  447  0EF447     -0.2716
     14  CA1       75.1470   66.5510   56.1440 C.3   447  0EF447      0.1536
     15  C5        76.4470   65.7810   55.9260 C.2   447  0EF447      0.2610
     16  O3        76.8650   64.7300   56.4170 O.2   447  0EF447     -0.2715
     17  CB1       74.8850   66.9640   57.5910 C.3   447  0EF447      0.0310
     18  CG        73.3460   67.0850   57.6410 C.3   447  0EF447      0.0237
     19  CD        72.7830   66.4090   56.3950 C.3   447  0EF447      0.0939
     20  N2        77.1750   66.5360   55.1540 N.am  447  0EF447     -0.1833
     21  CA2       78.9240   66.0790   54.8070 C.3   447  0EF447      0.1940
     22  CB2       78.6190   66.5260   53.3410 C.3   447  0EF447      0.0704
     23  CG1       79.5450   67.3260   52.5870 C.ar  447  0EF447     -0.0187
     24  CD1       80.7340   67.7860   53.1310 C.ar  447  0EF447     -0.0042
     25  CD2       79.2000   67.6370   51.2740 C.ar  447  0EF447     -0.0042
     26  CE1       81.5470   68.5920   52.3310 C.ar  447  0EF447     -0.0003
     27  CE2       80.0170   68.4160   50.4700 C.ar  447  0EF447     -0.0003
     28  CZ        81.2150   68.8880   51.0100 C.ar  447  0EF447     -0.0000
     29  NHO       79.6540   66.8630   55.8120 N.am  447  0EF447     -0.1770
     30  C6        80.5980   66.1920   56.5630 C.2   447  0EF447      0.3217
     31  O4        81.0070   65.0290   56.2720 O.2   447  0EF447     -0.2633
@<TRIPOS>BOND
     1    27    28   ar
     2    27    25   ar
     3     7     4    1
     4    28    26   ar
     5     6     4    1
     6    25    23   ar
     7     4     3    1
     8     4     5    1
     9     3     2    1
    10    26    24   ar
    11    23    24   ar
    12    23    22    1
    13     2     8   am
    14     2     1    2
    15     8     9    1
    16    22    21    1
    17    11    10    2
    18     9    12    1
    19     9    10    1
    20    10    13   am
    21    21    20    1
    22    21    29    1
    23    20    15   am
    24    13    14    1
    25    13    19    1
    26    29    30   am
    27    15    14    1
    28    15    16    2
    29    14    17    1
    30    31    30    2
    31    19    18    1
    32    17    18    1
