@<TRIPOS>MOLECULE
1sct_HEM_A_1.pdb
 43 50 0 0 0
SMALL
GASTEIGER

@<TRIPOS>ATOM
      1 FE         62.7140   20.5020   67.6100 Fe    153  HEM153      0.0000
      2  CHA       61.1190   17.5190   66.9350 C.2   153  HEM153      0.0000
      3  CHB       60.2260   22.1570   66.0960 C.2   153  HEM153      0.0000
      4  CHC       64.4750   23.4350   68.0220 C.2   153  HEM153      0.0000
      5  CHD       65.1580   18.7940   69.2330 C.2   153  HEM153      0.0000
      6  NA        61.0530   19.9390   66.6920 N.ar  153  HEM153      0.0000
      7  C1A       60.5290   18.6810   66.5240 C.ar  153  HEM153      0.0000
      8  C2A       59.2690   18.7240   65.8600 C.ar  153  HEM153      0.0000
      9  C3A       59.0010   20.0270   65.6080 C.ar  153  HEM153      0.0000
     10  C4A       60.1230   20.7700   66.1200 C.ar  153  HEM153      0.0000
     11  CMA       57.7740   20.6190   64.9250 C.3   153  HEM153      0.0000
     12  CAA       58.4160   17.5120   65.5660 C.3   153  HEM153      0.0000
     13  CBA       57.4840   17.2780   66.7210 C.3   153  HEM153      0.0000
     14  CGA       56.9550   15.8670   66.7320 C.2   153  HEM153      0.0000
     15  O1A       56.3100   15.4910   65.7630 O.co2 153  HEM153      0.0000
     16  O2A       57.1730   15.1330   67.7040 O.co2 153  HEM153      0.0000
     17  NB        62.3870   22.4050   67.2080 N.2   153  HEM153      0.0000
     18  C1B       61.2640   22.9370   66.6180 C.2   153  HEM153      0.0000
     19  C2B       61.3750   24.3620   66.4900 C.2   153  HEM153      0.0000
     20  C3B       62.6030   24.7250   66.9580 C.2   153  HEM153      0.0000
     21  C4B       63.2270   23.5040   67.4100 C.2   153  HEM153      0.0000
     22  CMB       60.2760   25.2740   65.9410 C.3   153  HEM153      0.0000
     23  CAB       63.1490   26.0010   67.0600 C.3   153  HEM153      0.0000
     24  CBB       63.5160   26.8240   65.9270 C.3   153  HEM153      0.0000
     25  NC        64.4140   21.0280   68.5200 N.ar  153  HEM153      0.0000
     26  C1C       65.0290   22.2870   68.5690 C.ar  153  HEM153      0.0000
     27  C2C       66.3190   22.2250   69.2380 C.ar  153  HEM153      0.0000
     28  C3C       66.5040   20.9150   69.6060 C.ar  153  HEM153      0.0000
     29  C4C       65.3170   20.1920   69.1620 C.ar  153  HEM153      0.0000
     30  CMC       67.2610   23.4230   69.4260 C.3   153  HEM153      0.0000
     31  CAC       67.6320   20.2980   70.1500 C.3   153  HEM153      0.0000
     32  CBC       68.3370   20.7310   71.3230 C.3   153  HEM153      0.0000
     33  ND        63.0520   18.5760   67.9760 N.2   153  HEM153      0.0000
     34  C1D       64.1190   18.0380   68.6940 C.2   153  HEM153      0.0000
     35  C2D       64.0270   16.6040   68.7930 C.2   153  HEM153      0.0000
     36  C3D       62.9320   16.2600   68.0720 C.2   153  HEM153      0.0000
     37  C4D       62.3130   17.4700   67.6110 C.2   153  HEM153      0.0000
     38  CMD       64.9480   15.7060   69.6010 C.3   153  HEM153      0.0000
     39  CAD       62.4700   14.8660   67.6870 C.3   153  HEM153      0.0000
     40  CBD       63.1180   14.3720   66.4060 C.3   153  HEM153      0.0000
     41  CGD       62.4700   13.0800   65.9530 C.2   153  HEM153      0.0000
     42  O1D       62.9920   12.0040   66.2360 O.co2 153  HEM153      0.0000
     43  O2D       61.4300   13.1420   65.3140 O.co2 153  HEM153      0.0000
@<TRIPOS>BOND
     1    11     9    1
     2    43    41   ar
     3    12     8    1
     4    12    13    1
     5     9     8   ar
     6     9    10   ar
     7    15    14   ar
     8     8     7   ar
     9    24    23    1
    10    22    19    1
    11    41    42   ar
    12    41    40    1
    13     3    10    2
    14     3    18    1
    15    10     6   ar
    16    40    39    1
    17    19    18    1
    18    19    20    2
    19     7     6   ar
    20     7     2    2
    21    18    17    2
    22     6     1    1
    23    13    14    1
    24    14    16   ar
    25     2    37    1
    26    20    23    1
    27    20    21    1
    28    17    21    1
    29    17     1    1
    30    21     4    2
    31     1    33    1
    32     1    25    1
    33    37    33    2
    34    37    36    1
    35    39    36    1
    36    33    34    1
    37     4    26    1
    38    36    35    2
    39    25    26   ar
    40    25    29   ar
    41    26    27   ar
    42    34    35    1
    43    34     5    2
    44    35    38    1
    45    29     5    1
    46    29    28   ar
    47    27    30    1
    48    27    28   ar
    49    28    31    1
    50    31    32    1
