@<TRIPOS>MOLECULE
1scu_COA_A_1.pdb
 48 50 0 0 0
SMALL
GASTEIGER

@<TRIPOS>ATOM
      1  N1A       30.8910   62.3190   49.1410 N.2   289  COA289      0.0021
      2  C2A       30.0780   63.3640   49.3720 C.3   289  COA289      0.5254
      3  N3A       28.8990   63.4050   49.9950 N.2   289  COA289     -0.0055
      4  C4A       28.4910   62.1920   50.3220 C.2   289  COA289      0.3518
      5  C5A       29.1950   61.0070   50.1590 C.2   289  COA289      0.2526
      6  C6A       30.4870   61.0870   49.5390 C.2   289  COA289      0.4393
      7  N6A       31.3130   60.0480   49.3030 N.pl3 289  COA289      0.2180
      8  N7A       28.4520   59.9550   50.6700 N.2   289  COA289     -0.2095
      9  C8A       27.3540   60.5110   51.1170 C.3   289  COA289      0.3377
     10  N9A       27.2980   61.8600   50.8920 N.pl3 289  COA289     -0.1439
     11  C1B       26.3070   62.7900   51.3970 C.3   289  COA289      0.3185
     12  C2B       24.8810   62.2870   51.4390 C.3   289  COA289      0.2543
     13  O2B       24.3000   62.2040   50.1130 O.3   289  COA289     -0.2131
     14  C3B       24.3010   63.3370   52.4340 C.3   289  COA289      0.1928
     15  O3B       23.8160   64.4890   51.7440 O.3   289  COA289     -0.2673
     16  P3B       22.3370   64.4980   51.1140 P.3   289  COA289      0.5327
     17  O7A       22.5080   65.3230   49.8960 O.2   289  COA289     -0.2224
     18  O8A       22.2930   63.5120   49.9950 O.3   289  COA289     -0.1145
     19  O9A       21.4720   64.0370   52.2380 O.3   289  COA289     -0.1145
     20  C4B       25.5210   63.7830   53.2530 C.3   289  COA289      0.1795
     21  O4B       26.5800   62.9820   52.7790 O.3   289  COA289     -0.3136
     22  C5B       25.4300   63.7320   54.7530 C.3   289  COA289      0.1812
     23  O5B       24.0940   64.1680   55.0530 O.3   289  COA289     -0.3112
     24  P1A       23.3250   63.3390   56.1580 P.3   289  COA289      0.2189
     25  O1A       22.4510   64.2210   56.9410 O.3   289  COA289     -0.4371
     26  O2A       22.8170   62.0680   55.5750 O.2   289  COA289     -0.5170
     27  O3A       24.2650   63.4390   57.4430 O.3   289  COA289     -0.2703
     28  P2A       24.4200   64.4830   58.6240 P.3   289  COA289      0.2188
     29  O4A       24.9600   65.7850   58.1080 O.2   289  COA289     -0.5170
     30  O5A       23.1510   64.5110   59.4220 O.3   289  COA289     -0.4371
     31  O6A       25.5510   63.7300   59.4980 O.3   289  COA289     -0.3138
     32  CBP       27.8570   63.0100   59.8440 C.3   289  COA289      0.0645
     33  CCP       26.6980   63.1010   58.8520 C.3   289  COA289      0.1519
     34  CDP       27.8530   64.3500   60.5600 C.3   289  COA289      0.0056
     35  CEP       29.2010   62.8270   59.1450 C.3   289  COA289      0.0056
     36  CAP       27.6270   61.8790   60.8820 C.3   289  COA289      0.2312
     37  OAP       28.1890   60.5800   60.6070 O.3   289  COA289     -0.2131
     38  C9P       28.2210   62.3540   62.1780 C.2   289  COA289      0.2719
     39  O9P       27.6840   63.2380   62.8490 O.2   289  COA289     -0.2706
     40  N8P       29.3470   61.8190   62.5500 N.am  289  COA289     -0.2028
     41  C7P       29.8620   62.3220   63.8040 C.3   289  COA289      0.1248
     42  C6P       28.9680   63.4340   64.3650 C.3   289  COA289      0.1102
     43  C5P       29.6200   64.0900   65.5730 C.2   289  COA289      0.2432
     44  O5P       29.2720   63.7790   66.7190 O.2   289  COA289     -0.2733
     45  N4P       30.5830   64.9920   65.3000 N.am  289  COA289     -0.2044
     46  C3P       31.3340   65.6870   66.3320 C.3   289  COA289      0.1276
     47  C2P       32.7440   65.1240   66.4640 C.3   289  COA289      0.0920
     48  S1P       33.9150   66.0710   65.4850 S.3   289  COA289     -0.0802
@<TRIPOS>BOND
     1     1     2    1
     2     1     6    2
     3     7     6    1
     4     2     3    1
     5     6     5    1
     6    17    16    2
     7     3     4    2
     8    18    16    1
     9    13    12    1
    10     5     4    1
    11     5     8    2
    12     4    10    1
    13     8     9    1
    14    10     9    1
    15    10    11    1
    16    16    15    1
    17    16    19    1
    18    11    12    1
    19    11    21    1
    20    12    14    1
    21    15    14    1
    22    14    20    1
    23    21    20    1
    24    20    22    1
    25    22    23    1
    26    23    24    1
    27    26    24    2
    28    24    25    1
    29    24    27    1
    30    27    28    1
    31    29    28    2
    32    28    30    1
    33    28    31    1
    34    33    31    1
    35    33    32    1
    36    35    32    1
    37    32    34    1
    38    32    36    1
    39    37    36    1
    40    36    38    1
    41    38    40   am
    42    38    39    2
    43    40    41    1
    44    41    42    1
    45    42    43    1
    46    45    43   am
    47    45    46    1
    48    48    47    1
    49    43    44    2
    50    46    47    1
