@<TRIPOS>MOLECULE
1scw_CP5_A_1.pdb
 15 15 0 0 0
SMALL
GASTEIGER

@<TRIPOS>ATOM
      1  C1        18.9170  -11.4730   45.0830 C.ar  400  CP5400      0.0000
      2  C2        18.4830  -10.2000   44.8320 C.ar  400  CP5400      0.0000
      3  C3        18.2540   -9.8440   43.5290 C.ar  400  CP5400      0.0003
      4  C4        18.4240  -10.6830   42.4140 C.ar  400  CP5400      0.0095
      5  C5        18.8750  -11.9840   42.7190 C.ar  400  CP5400      0.0003
      6  C6        19.0950  -12.3030   44.0310 C.ar  400  CP5400      0.0000
      7  C7        18.1370  -10.1430   41.0960 C.2   400  CP5400      0.1171
      8  C8        18.0150  -11.0230   40.0510 C.2   400  CP5400      0.1869
      9  C9        17.7010   -8.7460   40.8920 C.2   400  CP5400      0.3908
     10  O1        17.6930  -10.4640   38.8650 O.2   400  CP5400     -0.4190
     11  P1        16.8310  -11.2920   37.7720 P.3   400  CP5400      0.4585
     12  O2        16.9580  -12.7880   37.9250 O.3   400  CP5400     -0.1317
     13  O3        17.2920  -10.6770   36.4910 O.3   400  CP5400     -0.1317
     14  O4        18.6350   -7.8900   40.7050 O.co2 400  CP5400     -0.2404
     15  O5        16.5290   -8.4310   40.8950 O.co2 400  CP5400     -0.2404
@<TRIPOS>BOND
     1    13    11    1
     2    11    12    1
     3    11    10    1
     4    10     8    1
     5     8     7    2
     6    14     9   ar
     7     9    15   ar
     8     9     7    1
     9     7     4    1
    10     4     5   ar
    11     4     3   ar
    12     5     6   ar
    13     3     2   ar
    14     6     1   ar
    15     2     1   ar
