@<TRIPOS>MOLECULE
1sd0_ARG_A_1.pdb
 12 11 0 0 0
SMALL
GASTEIGER

@<TRIPOS>ATOM
      1  N         33.3350   40.8320   39.7970 N.3   403  ARG403     -0.1208
      2  CA        32.8940   41.8090   40.8330 C.3   403  ARG403      0.1944
      3  C         33.3470   41.3720   42.2210 C.2   403  ARG403      0.3819
      4  O         33.5100   40.1540   42.4390 O.co2 403  ARG403     -0.2441
      5  CB        31.3660   41.9540   40.8300 C.3   403  ARG403      0.0343
      6  CG        30.6010   40.6820   41.2220 C.3   403  ARG403      0.0490
      7  CD        29.1460   40.9890   41.5880 C.3   403  ARG403      0.2205
      8  NE        28.5020   41.8630   40.6090 N.pl3 403  ARG403     -0.0865
      9  CZ        28.2430   41.5220   39.3500 C.cat 403  ARG403      0.5346
     10  NH1       28.5650   40.3110   38.9000 N.pl3 403  ARG403      0.1354
     11  NH2       27.6840   42.4040   38.5310 N.pl3 403  ARG403      0.1354
     12  OXT       33.5280   42.2590   43.0800 O.co2 403  ARG403     -0.2441
@<TRIPOS>BOND
     1    11     9    1
     2    10     9    1
     3     9     8    2
     4     1     2    1
     5     8     7    1
     6     5     2    1
     7     5     6    1
     8     2     3    1
     9     6     7    1
    10     3     4   ar
    11     3    12   ar
