@<TRIPOS>MOLECULE
1sd0_ADP_A_1.pdb
 27 29 0 0 0
SMALL
GASTEIGER

@<TRIPOS>ATOM
      1  PB        22.6700   45.9580   38.1960 P.3   400  ADP400      0.5373
      2  O1B       23.8250   45.5990   37.3130 O.2   400  ADP400     -0.2221
      3  O2B       21.5470   46.5010   37.3830 O.3   400  ADP400     -0.1143
      4  O3B       22.1750   44.8370   39.0540 O.3   400  ADP400     -0.1143
      5  PA        24.4600   48.0280   39.3840 P.3   400  ADP400      0.2231
      6  O1A       25.4040   47.6580   38.2940 O.2   400  ADP400     -0.5169
      7  O2A       24.9760   48.0610   40.7750 O.3   400  ADP400     -0.4370
      8  O3A       23.1580   47.0560   39.2970 O.3   400  ADP400     -0.2261
      9  O5'       23.7480   49.4500   39.0500 O.3   400  ADP400     -0.3111
     10  C5'       23.3880   49.7940   37.6880 C.3   400  ADP400      0.1813
     11  C4'       22.6280   51.1210   37.7020 C.3   400  ADP400      0.1821
     12  O4'       21.3880   50.8810   38.3920 O.3   400  ADP400     -0.3135
     13  C3'       23.2620   52.2620   38.4960 C.3   400  ADP400      0.2184
     14  O3'       22.9260   53.5010   37.8370 O.3   400  ADP400     -0.2174
     15  C2'       22.4470   52.3250   39.7900 C.3   400  ADP400      0.2570
     16  O2'       22.4650   53.6610   40.3170 O.3   400  ADP400     -0.2130
     17  C1'       21.0770   51.9870   39.2560 C.3   400  ADP400      0.3186
     18  N9        20.0440   51.6080   40.2710 N.pl3 400  ADP400     -0.1439
     19  C8        20.0030   50.5100   41.0480 C.3   400  ADP400      0.3377
     20  N7        18.8840   50.4920   41.8050 N.2   400  ADP400     -0.2095
     21  C5        18.2420   51.6060   41.4820 C.2   400  ADP400      0.2526
     22  C6        17.1340   52.1030   42.1610 C.2   400  ADP400      0.4393
     23  N6        16.4800   51.4570   43.1460 N.pl3 400  ADP400      0.2180
     24  N1        16.7610   53.3460   41.7810 N.2   400  ADP400      0.0021
     25  C2        17.4200   54.0120   40.8310 C.3   400  ADP400      0.5254
     26  N3        18.4840   53.5250   40.2000 N.2   400  ADP400     -0.0055
     27  C4        18.9350   52.3080   40.5280 C.2   400  ADP400      0.3518
@<TRIPOS>BOND
     1     2     1    2
     2     3     1    1
     3    10    11    1
     4    10     9    1
     5    11    12    1
     6    11    13    1
     7    14    13    1
     8     1     4    1
     9     1     8    1
    10     6     5    2
    11    12    17    1
    12    13    15    1
    13     9     5    1
    14    17    15    1
    15    17    18    1
    16     8     5    1
    17     5     7    1
    18    15    16    1
    19    26    27    2
    20    26    25    1
    21    18    27    1
    22    18    19    1
    23    27    21    1
    24    25    24    1
    25    19    20    1
    26    21    20    2
    27    21    22    1
    28    24    22    2
    29    22    23    1
