@<TRIPOS>MOLECULE
1sd1_FMC_A_1.pdb
 19 21 0 0 0
SMALL
GASTEIGER

@<TRIPOS>ATOM
      1  N1        58.8340   19.2580   25.3170 N.2   1330  FMC1330    -0.0278
      2  C2        59.4890   19.6340   26.4600 C.3   1330  FMC1330     0.3922
      3  N3        60.2200   18.8200   27.2670 N.2   1330  FMC1330    -0.2155
      4  C4        60.2690   17.4610   26.8260 C.2   1330  FMC1330     0.1251
      5  C5        59.6110   17.0000   25.6440 C.2   1330  FMC1330     0.2111
      6  C6        58.8530   17.9580   24.8510 C.2   1330  FMC1330     0.4334
      7  N6        58.2050   17.6160   23.7320 N.pl3 1330  FMC1330     0.2178
      8  N7        59.8610   15.6700   25.5190 N.2   1330  FMC1330    -0.1387
      9  N8        60.6370   15.2380   26.5470 N.2   1330  FMC1330    -0.1480
     10  C9        60.9160   16.2700   27.3680 C.2   1330  FMC1330     0.1291
     11  C1'       61.7290   16.2070   28.6090 C.3   1330  FMC1330     0.1910
     12  C2'       61.7410   17.3350   29.7160 C.3   1330  FMC1330     0.2173
     13  O2'       63.0580   17.9880   29.8030 O.3   1330  FMC1330    -0.2173
     14  C3'       61.3520   16.6430   31.1000 C.3   1330  FMC1330     0.2144
     15  O3'       62.5310   16.4150   31.9780 O.3   1330  FMC1330    -0.2176
     16  C4'       60.6990   15.3660   30.6130 C.3   1330  FMC1330     0.1814
     17  O4'       61.3530   15.0130   29.3600 O.3   1330  FMC1330    -0.3446
     18  C5'       59.1680   15.4230   30.3290 C.3   1330  FMC1330     0.2141
     19  O5'       58.5040   14.3180   29.8690 O.3   1330  FMC1330    -0.2176
@<TRIPOS>BOND
     1     7     6    1
     2     6     1    2
     3     6     5    1
     4     1     2    1
     5     8     5    2
     6     8     9    1
     7     5     4    1
     8     2     3    1
     9     9    10    2
    10     4     3    2
    11     4    10    1
    12    10    11    1
    13    11    17    1
    14    11    12    1
    15    17    16    1
    16    12    13    1
    17    12    14    1
    18    19    18    1
    19    18    16    1
    20    16    14    1
    21    14    15    1
