@<TRIPOS>MOLECULE
1sd2_MTH_A_1.pdb
 20 22 0 0 0
SMALL
GASTEIGER

@<TRIPOS>ATOM
      1  CS        58.4810   12.5530   32.7050 C.3   285  MTH285      0.0693
      2  S5'       58.1780   13.4460   31.1500 S.3   285  MTH285     -0.1367
      3  C5'       58.8530   15.1030   31.5540 C.3   285  MTH285      0.0899
      4  C4'       60.3750   15.1540   31.6360 C.3   285  MTH285      0.1630
      5  O4'       60.9140   14.6480   30.3710 O.3   285  MTH285     -0.3150
      6  C2'       61.5630   16.9330   30.4660 C.3   285  MTH285      0.2572
      7  O2'       62.9350   17.4440   30.5910 O.3   285  MTH285     -0.2130
      8  C3'       60.9400   16.5520   31.8850 C.3   285  MTH285      0.2168
      9  O3'       61.9670   16.5160   32.9540 O.3   285  MTH285     -0.2175
     10  C1'       61.5280   15.6740   29.5330 C.3   285  MTH285      0.3212
     11  N9        60.6540   15.7920   28.1800 N.pl3 285  MTH285     -0.1468
     12  C8        60.3840   14.7360   27.3110 C.2   285  MTH285      0.1741
     13  C7        59.6430   15.0530   26.2620 C.2   285  MTH285      0.0420
     14  C5        59.3960   16.4050   26.4320 C.3   285  MTH285      0.2444
     15  C6        58.6630   17.3820   25.6790 C.2   285  MTH285      0.4064
     16  N6        58.0190   17.0810   24.5380 N.pl3 285  MTH285      0.2117
     17  N1        58.6410   18.6810   26.1840 N.2   285  MTH285     -0.0027
     18  C2        59.2830   18.9920   27.3330 C.3   285  MTH285      0.5248
     19  N3        59.9990   18.1540   28.1170 N.2   285  MTH285     -0.0106
     20  C4        60.0110   16.8750   27.6050 C.2   285  MTH285      0.3215
@<TRIPOS>BOND
     1    16    15    1
     2    15    17    2
     3    15    14    1
     4    17    18    1
     5    13    14    1
     6    13    12    2
     7    14    20    1
     8    12    11    1
     9    18    19    1
    10    20    19    2
    11    20    11    1
    12    11    10    1
    13    10     5    1
    14    10     6    1
    15     5     4    1
    16     6     7    1
    17     6     8    1
    18     2     3    1
    19     2     1    1
    20     3     4    1
    21     4     8    1
    22     8     9    1
