@<TRIPOS>MOLECULE
1sd3_SYM_A_1.pdb
 11 10 0 0 0
SMALL
GASTEIGER

@<TRIPOS>ATOM
      1  CB        34.4170   15.3090   38.9310 C.3   998  SYM998      0.0418
      2  CG1       34.8770   15.9210   37.5960 C.3   998  SYM998      0.1054
      3  CG2       36.1680   16.7280   37.7610 C.3   998  SYM998      0.0119
      4  CD        35.0080   14.8380   36.5040 C.2   998  SYM998      0.3644
      5  OE1       35.1010   13.6290   36.8510 O.co2 998  SYM998     -0.2457
      6  OE2       35.0270   15.1940   35.2960 O.co2 998  SYM998     -0.2457
      7  C         32.7490   13.8130   40.1140 C.2   998  SYM998      0.3819
      8  OT1       33.6090   12.9130   40.3290 O.co2 998  SYM998     -0.2441
      9  OT2       31.7170   13.9610   40.8110 O.co2 998  SYM998     -0.2441
     10  N         32.0280   15.9410   39.0120 N.3   998  SYM998     -0.1208
     11  CA        32.9690   14.7820   38.9370 C.3   998  SYM998      0.1949
@<TRIPOS>BOND
     1     6     4   ar
     2     4     5   ar
     3     4     2    1
     4     2     3    1
     5     2     1    1
     6     1    11    1
     7    11    10    1
     8    11     7    1
     9     7     8   ar
    10     7     9   ar
