@<TRIPOS>MOLECULE
1sde_2PB_A_1.pdb
 13 13 0 0 0
SMALL
GASTEIGER

@<TRIPOS>ATOM
      1  C1        19.3150  -12.7810   41.1880 C.ar  400  2PB400      0.0031
      2  C2        19.6760  -11.6910   41.9830 C.ar  400  2PB400      0.0004
      3  C3        19.1760  -10.4020   41.7590 C.ar  400  2PB400      0.0097
      4  C4        18.2650  -10.1060   40.8190 C.ar  400  2PB400      0.1140
      5  C5        17.9230  -11.2170   39.9440 C.ar  400  2PB400      0.1526
      6  C6        18.4240  -12.5170   40.1510 C.ar  400  2PB400      0.0375
      7  C7        17.7930   -8.7380   40.4980 C.2   400  2PB400      0.3907
      8  O8        18.6160   -7.8860   40.1830 O.co2 400  2PB400     -0.2404
      9  O9        17.0880  -10.8640   38.9600 O.3   400  2PB400     -0.4221
     10  P1        16.5460  -11.3990   37.6350 P.3   400  2PB400      0.4584
     11  O11       17.1920  -10.6470   36.4910 O.3   400  2PB400     -0.1317
     12  O12       16.5350   -8.4330   40.5280 O.co2 400  2PB400     -0.2404
     13  O13       16.5460  -12.9080   37.5430 O.3   400  2PB400     -0.1317
@<TRIPOS>BOND
     1    11    10    1
     2    13    10    1
     3    10     9    1
     4     9     5    1
     5     5     6   ar
     6     5     4   ar
     7     6     1   ar
     8     8     7   ar
     9     7    12   ar
    10     7     4    1
    11     4     3   ar
    12     1     2   ar
    13     3     2   ar
