@<TRIPOS>MOLECULE
1sdk_HEM_A_1.pdb
 43 50 0 0 0
SMALL
GASTEIGER

@<TRIPOS>ATOM
      1 FE         37.8790   29.4080   -1.7750 Fe    200  HEM200      0.0000
      2  CHA       38.6990   28.3550    1.3330 C.2   200  HEM200      0.0000
      3  CHB       36.7850   32.4360   -0.4600 C.2   200  HEM200      0.0000
      4  CHC       37.3280   30.5470   -4.9500 C.2   200  HEM200      0.0000
      5  CHD       38.6610   26.4020   -3.0340 C.2   200  HEM200      0.0000
      6  NA        37.7590   30.2770    0.0770 N.2   200  HEM200      0.0000
      7  C1A       38.0870   29.6190    1.2780 C.2   200  HEM200      0.0000
      8  C2A       37.7270   30.4530    2.4180 C.2   200  HEM200      0.0000
      9  C3A       37.2190   31.5850    1.9200 C.2   200  HEM200      0.0000
     10  C4A       37.2390   31.5060    0.4510 C.2   200  HEM200      0.0000
     11  CMA       36.7420   32.8300    2.6770 C.3   200  HEM200      0.0000
     12  CAA       37.9280   30.0660    3.9260 C.3   200  HEM200      0.0000
     13  CBA       39.1840   30.7410    4.5110 C.3   200  HEM200      0.0000
     14  CGA       39.4580   30.3840    5.9590 C.2   200  HEM200      0.0000
     15  O1A       38.5500   29.7140    6.5280 O.co2 200  HEM200      0.0000
     16  O2A       40.5970   30.7040    6.4320 O.co2 200  HEM200      0.0000
     17  NB        37.2610   31.1570   -2.5690 N.ar  200  HEM200      0.0000
     18  C1B       36.8000   32.2430   -1.8540 C.ar  200  HEM200      0.0000
     19  C2B       36.4110   33.2530   -2.7930 C.ar  200  HEM200      0.0000
     20  C3B       36.5600   32.7610   -4.0290 C.ar  200  HEM200      0.0000
     21  C4B       37.1060   31.4260   -3.9170 C.ar  200  HEM200      0.0000
     22  CMB       35.8900   34.5890   -2.2700 C.3   200  HEM200      0.0000
     23  CAB       36.3190   33.4430   -5.3830 C.2   200  HEM200      0.0000
     24  CBB       35.1470   34.0110   -5.5710 C.2   200  HEM200      0.0000
     25  NC        38.0070   28.6370   -3.6300 N.2   200  HEM200      0.0000
     26  C1C       37.6840   29.2310   -4.8230 C.2   200  HEM200      0.0000
     27  C2C       37.6850   28.2730   -5.9030 C.2   200  HEM200      0.0000
     28  C3C       37.9890   27.1070   -5.3540 C.2   200  HEM200      0.0000
     29  C4C       38.2950   27.3470   -3.9560 C.2   200  HEM200      0.0000
     30  CMC       37.3440   28.5730   -7.3710 C.3   200  HEM200      0.0000
     31  CAC       38.2430   25.7810   -6.0730 C.2   200  HEM200      0.0000
     32  CBC       37.4780   25.3640   -7.0640 C.2   200  HEM200      0.0000
     33  ND        38.6110   27.7360   -1.0110 N.ar  200  HEM200      0.0000
     34  C1D       38.8260   26.5580   -1.6730 C.ar  200  HEM200      0.0000
     35  C2D       39.2240   25.5150   -0.7200 C.ar  200  HEM200      0.0000
     36  C3D       39.2580   26.0500    0.4740 C.ar  200  HEM200      0.0000
     37  C4D       38.7950   27.4110    0.3270 C.ar  200  HEM200      0.0000
     38  CMD       39.5410   24.0340   -1.1170 C.3   200  HEM200      0.0000
     39  CAD       39.6410   25.2850    1.7640 C.3   200  HEM200      0.0000
     40  CBD       38.3440   24.7930    2.3970 C.3   200  HEM200      0.0000
     41  CGD       38.5740   24.1790    3.7280 C.2   200  HEM200      0.0000
     42  O1D       39.0830   23.0510    3.6880 O.co2 200  HEM200      0.0000
     43  O2D       38.3700   24.9110    4.7220 O.co2 200  HEM200      0.0000
@<TRIPOS>BOND
     1    30    27    1
     2    32    31    2
     3    31    28    1
     4    27    28    2
     5    27    26    1
     6    24    23    2
     7    23    20    1
     8    28    29    1
     9     4    26    2
    10     4    21    1
    11    26    25    1
    12    20    21   ar
    13    20    19   ar
    14    29    25    2
    15    29     5    1
    16    21    17   ar
    17    25     1    1
    18     5    34    2
    19    19    22    1
    20    19    18   ar
    21    17    18   ar
    22    17     1    1
    23    18     3    1
    24     1    33    1
    25     1     6    1
    26    34    33   ar
    27    34    35   ar
    28    38    35    1
    29    33    37   ar
    30    35    36   ar
    31     3    10    2
    32     6    10    1
    33     6     7    2
    34    37    36   ar
    35    37     2    2
    36    10     9    1
    37    36    39    1
    38     7     2    1
    39     7     8    1
    40    39    40    1
    41     9     8    2
    42     9    11    1
    43    40    41    1
    44     8    12    1
    45    42    41   ar
    46    41    43   ar
    47    12    13    1
    48    13    14    1
    49    14    16   ar
    50    14    15   ar
