@<TRIPOS>MOLECULE
1sdk_TMM_D_1.pdb
 12 12 0 0 0
SMALL
GASTEIGER

@<TRIPOS>ATOM
      1  C1        38.6270   17.0540  -36.1320 C.ar  300  TMM300      0.0424
      2  C2        37.3630   16.9920  -36.6810 C.ar  300  TMM300      0.0066
      3  C3        36.2920   16.5080  -35.9850 C.ar  300  TMM300      0.0424
      4  C4        36.4860   16.0150  -34.7010 C.ar  300  TMM300      0.0066
      5  C5        37.7530   16.0440  -34.1370 C.ar  300  TMM300      0.0424
      6  C6        38.8190   16.5540  -34.8490 C.ar  300  TMM300      0.0066
      7  C1A       39.8170   17.5500  -36.9300 C.2   300  TMM300      0.2342
      8  C3A       34.9260   16.4880  -36.6550 C.2   300  TMM300      0.2342
      9  C5A       38.0800   15.5610  -32.7290 C.2   300  TMM300      0.2342
     10  O1A       39.7670   18.4650  -37.7510 O.2   300  TMM300     -0.2831
     11  O3A       34.7970   16.9590  -37.7890 O.2   300  TMM300     -0.2831
     12  O5A       39.1260   15.8810  -32.1710 O.2   300  TMM300     -0.2831
@<TRIPOS>BOND
     1    11     8    2
     2    10     7    2
     3     7     1    1
     4     2     1   ar
     5     2     3   ar
     6     8     3    1
     7     1     6   ar
     8     3     4   ar
     9     6     5   ar
    10     4     5   ar
    11     5     9    1
    12     9    12    2
