@<TRIPOS>MOLECULE
1sdl_TMM_D_1.pdb
 13 13 0 0 0
SMALL
GASTEIGER

@<TRIPOS>ATOM
      1  C1        39.0870   16.4210  -35.7200 C.ar  300  TMM300      0.0422
      2  C2        37.6980   16.5080  -35.5860 C.ar  300  TMM300      0.0015
      3  C3        36.9570   15.4730  -35.0230 C.ar  300  TMM300      0.0109
      4  C4        37.6580   14.3700  -34.5430 C.ar  300  TMM300      0.0048
      5  C5        39.0320   14.2520  -34.6750 C.ar  300  TMM300      0.0796
      6  C6        39.7340   15.2730  -35.2700 C.ar  300  TMM300      0.0098
      7  C1A       39.9340   17.4950  -36.3890 C.2   300  TMM300      0.2341
      8  C3A       35.4160   15.4400  -34.7150 C.3   300  TMM300      0.2086
      9  C5A       39.8570   13.0660  -34.2230 C.2   300  TMM300      0.3877
     10  O1A       39.4850   18.6180  -36.6140 O.2   300  TMM300     -0.2831
     11  O3A       35.1730   14.5540  -33.8810 O.3   300  TMM300     -0.2152
     12  O5A       39.4880   12.3800  -33.2670 O.co2 300  TMM300     -0.2406
     13  O6A       40.8950   12.8210  -34.8410 O.co2 300  TMM300     -0.2406
@<TRIPOS>BOND
     1    10     7    2
     2     7     1    1
     3     1     2   ar
     4     1     6   ar
     5     2     3   ar
     6     6     5   ar
     7     3     8    1
     8     3     4   ar
     9    13     9   ar
    10     8    11    1
    11     5     4   ar
    12     5     9    1
    13     9    12   ar
