@<TRIPOS>MOLECULE
1sdl_HEM_A_1.pdb
 43 50 0 0 0
SMALL
GASTEIGER

@<TRIPOS>ATOM
      1 FE         37.7820   29.5570   -1.6820 Fe    200  HEM200      0.0000
      2  CHA       38.5860   28.4910    1.4540 C.2   200  HEM200      0.0000
      3  CHB       36.6180   32.5530   -0.3760 C.2   200  HEM200      0.0000
      4  CHC       37.2140   30.6490   -4.8780 C.2   200  HEM200      0.0000
      5  CHD       38.5180   26.4530   -2.9660 C.2   200  HEM200      0.0000
      6  NA        37.6140   30.3870    0.1570 N.2   200  HEM200      0.0000
      7  C1A       37.9480   29.7290    1.3590 C.2   200  HEM200      0.0000
      8  C2A       37.5870   30.5930    2.4660 C.2   200  HEM200      0.0000
      9  C3A       37.0320   31.7150    1.9630 C.2   200  HEM200      0.0000
     10  C4A       37.0520   31.6080    0.5050 C.2   200  HEM200      0.0000
     11  CMA       36.4890   32.9560    2.6670 C.3   200  HEM200      0.0000
     12  CAA       37.7830   30.1620    3.9260 C.3   200  HEM200      0.0000
     13  CBA       39.2050   30.3310    4.4530 C.3   200  HEM200      0.0000
     14  CGA       39.3120   30.2380    5.9460 C.2   200  HEM200      0.0000
     15  O1A       38.3360   29.7530    6.5600 O.co2 200  HEM200      0.0000
     16  O2A       40.3500   30.6900    6.4620 O.co2 200  HEM200      0.0000
     17  NB        37.1120   31.2640   -2.4690 N.ar  200  HEM200      0.0000
     18  C1B       36.6150   32.3760   -1.7730 C.ar  200  HEM200      0.0000
     19  C2B       36.1850   33.3770   -2.7140 C.ar  200  HEM200      0.0000
     20  C3B       36.3890   32.8790   -3.9680 C.ar  200  HEM200      0.0000
     21  C4B       36.9670   31.5370   -3.8340 C.ar  200  HEM200      0.0000
     22  CMB       35.6650   34.7550   -2.2390 C.3   200  HEM200      0.0000
     23  CAB       36.1200   33.5370   -5.3570 C.2   200  HEM200      0.0000
     24  CBB       34.9770   34.1780   -5.5650 C.2   200  HEM200      0.0000
     25  NC        37.8700   28.7120   -3.5620 N.2   200  HEM200      0.0000
     26  C1C       37.5950   29.3470   -4.7610 C.2   200  HEM200      0.0000
     27  C2C       37.6550   28.3670   -5.8570 C.2   200  HEM200      0.0000
     28  C3C       37.9300   27.1650   -5.3110 C.2   200  HEM200      0.0000
     29  C4C       38.1280   27.3970   -3.8700 C.2   200  HEM200      0.0000
     30  CMC       37.3190   28.7110   -7.2960 C.3   200  HEM200      0.0000
     31  CAC       38.1870   25.7780   -5.9510 C.2   200  HEM200      0.0000
     32  CBC       37.4100   25.2780   -6.9220 C.2   200  HEM200      0.0000
     33  ND        38.5000   27.8360   -0.9390 N.ar  200  HEM200      0.0000
     34  C1D       38.7350   26.6460   -1.6090 C.ar  200  HEM200      0.0000
     35  C2D       39.2030   25.6320   -0.6370 C.ar  200  HEM200      0.0000
     36  C3D       39.3110   26.2390    0.5530 C.ar  200  HEM200      0.0000
     37  C4D       38.7540   27.5740    0.4240 C.ar  200  HEM200      0.0000
     38  CMD       39.5420   24.1840   -1.0060 C.3   200  HEM200      0.0000
     39  CAD       39.5960   25.6110    1.9080 C.3   200  HEM200      0.0000
     40  CBD       38.3470   24.8470    2.4030 C.3   200  HEM200      0.0000
     41  CGD       38.4540   24.2580    3.7730 C.2   200  HEM200      0.0000
     42  O1D       38.7210   23.0580    3.8180 O.co2 200  HEM200      0.0000
     43  O2D       38.4410   24.9920    4.7480 O.co2 200  HEM200      0.0000
@<TRIPOS>BOND
     1    30    27    1
     2    32    31    2
     3    31    28    1
     4    27    28    2
     5    27    26    1
     6    24    23    2
     7    23    20    1
     8    28    29    1
     9     4    26    2
    10     4    21    1
    11    26    25    1
    12    20    21   ar
    13    20    19   ar
    14    29    25    2
    15    29     5    1
    16    21    17   ar
    17    25     1    1
    18     5    34    2
    19    19    22    1
    20    19    18   ar
    21    17    18   ar
    22    17     1    1
    23    18     3    1
    24     1    33    1
    25     1     6    1
    26    34    33   ar
    27    34    35   ar
    28    38    35    1
    29    33    37   ar
    30    35    36   ar
    31     3    10    2
    32     6    10    1
    33     6     7    2
    34    37    36   ar
    35    37     2    2
    36    10     9    1
    37    36    39    1
    38     7     2    1
    39     7     8    1
    40    39    40    1
    41     9     8    2
    42     9    11    1
    43    40    41    1
    44     8    12    1
    45    41    42   ar
    46    41    43   ar
    47    12    13    1
    48    13    14    1
    49    14    16   ar
    50    14    15   ar
