@<TRIPOS>MOLECULE
1sdq_FMI_A_1.pdb
 44 51 0 0 0
SMALL
GASTEIGER

@<TRIPOS>ATOM
      1 FE         28.1000   91.8930   52.0340 Fe    296  FMI296      0.0000
      2  NA        29.0560   93.5500   51.4070 N.2   296  FMI296      0.0000
      3  NB        29.1540   91.9400   53.7740 N.pl3 296  FMI296      0.0000
      4  NC        27.0460   90.2720   52.6890 N.2   296  FMI296      0.0000
      5  ND        26.9710   91.8540   50.3340 N.ar  296  FMI296      0.0000
      6  C1A       28.8450   94.2010   50.2220 C.2   296  FMI296      0.0000
      7  CHA       27.9380   93.8180   49.2480 C.2   296  FMI296      0.0000
      8  C4D       27.0720   92.7400   49.2840 C.ar  296  FMI296      0.0000
      9  C1B       30.1380   92.8720   54.1230 C.2   296  FMI296      0.0000
     10  CHB       30.5420   93.9470   53.3130 C.2   296  FMI296      0.0000
     11  C4A       30.0340   94.2600   52.0640 C.2   296  FMI296      0.0000
     12  C1C       27.2190   89.6310   53.9010 C.2   296  FMI296      0.0000
     13  CHC       28.1380   89.9970   54.8730 C.2   296  FMI296      0.0000
     14  C4B       29.0180   91.0450   54.8260 C.2   296  FMI296      0.0000
     15  C1D       25.9840   90.9590   49.9740 C.ar  296  FMI296      0.0000
     16  CHD       25.5520   89.9070   50.7700 C.2   296  FMI296      0.0000
     17  C4C       26.0380   89.5870   52.0390 C.2   296  FMI296      0.0000
     18  C2A       29.7060   95.3580   50.1440 C.2   296  FMI296      0.0000
     19  CAA       29.7330   96.3440   49.0000 C.3   296  FMI296      0.0000
     20  C3A       30.4450   95.3870   51.2760 C.2   296  FMI296      0.0000
     21  CMA       31.5100   96.4210   51.6770 C.3   296  FMI296      0.0000
     22  CBA       28.6630   97.4110   49.2600 C.3   296  FMI296      0.0000
     23  CGA       28.5600   98.4770   48.2000 C.2   296  FMI296      0.0000
     24  O1A       29.5570   99.1930   47.9920 O.co2 296  FMI296      0.0000
     25  O2A       27.4760   98.6060   47.5920 O.co2 296  FMI296      0.0000
     26  C2B       30.6600   92.5100   55.5340 C.2   296  FMI296      0.0000
     27  CLB       32.0710   91.8720   55.2650 C.3   296  FMI296      0.0000
     28  CMB       30.7760   93.8790   56.3030 C.3   296  FMI296      0.0000
     29  CNB       29.3030   94.3230   56.6050 C.3   296  FMI296      0.0000
     30  C3B       29.9160   91.3500   55.9060 C.2   296  FMI296      0.0000
     31  OAB       30.2420   90.8910   57.1420 O.2   296  FMI296      0.0000
     32  C2C       26.2970   88.5230   54.0220 C.2   296  FMI296      0.0000
     33  CMC       26.2080   87.5910   55.2520 C.3   296  FMI296      0.0000
     34  C3C       25.5650   88.4910   52.8760 C.2   296  FMI296      0.0000
     35  CAC       24.5300   87.5940   52.5090 C.3   296  FMI296      0.0000
     36  CBC       23.1410   87.6110   52.9470 C.3   296  FMI296      0.0000
     37  C2D       25.4760   91.2770   48.6530 C.ar  296  FMI296      0.0000
     38  CMD       24.3790   90.4910   47.9120 C.3   296  FMI296      0.0000
     39  C3D       26.1520   92.3780   48.2230 C.ar  296  FMI296      0.0000
     40  CAD       25.9860   93.1220   46.8510 C.3   296  FMI296      0.0000
     41  CBD       25.1280   94.3830   46.9450 C.3   296  FMI296      0.0000
     42  CGD       24.9870   95.1200   45.6120 C.2   296  FMI296      0.0000
     43  O1D       24.3000   96.1630   45.5960 O.co2 296  FMI296      0.0000
     44  O2D       25.5550   94.6780   44.5880 O.co2 296  FMI296      0.0000
@<TRIPOS>BOND
     1    44    42   ar
     2    43    42   ar
     3    42    41    1
     4    40    41    1
     5    40    39    1
     6    25    23   ar
     7    38    37    1
     8    24    23   ar
     9    23    22    1
    10    39    37   ar
    11    39     8   ar
    12    37    15   ar
    13    19    22    1
    14    19    18    1
    15     7     8    2
    16     7     6    1
    17     8     5   ar
    18    15     5   ar
    19    15    16    2
    20    18     6    1
    21    18    20    2
    22     6     2    2
    23     5     1    1
    24    16    17    1
    25    20    21    1
    26    20    11    1
    27     2     1    1
    28     2    11    1
    29     1     4    1
    30     1     3    1
    31    17     4    2
    32    17    34    1
    33    11    10    2
    34    35    34    1
    35    35    36    1
    36     4    12    1
    37    34    32    2
    38    10     9    1
    39     3     9    1
    40     3    14    1
    41    12    32    1
    42    12    13    2
    43    32    33    1
    44     9    26    2
    45    14    13    1
    46    14    30    2
    47    27    26    1
    48    26    30    1
    49    26    28    1
    50    30    31    1
    51    28    29    1
