@<TRIPOS>MOLECULE
1sdt_MK1_B_1.pdb
 45 49 0 0 0
SMALL
GASTEIGER

@<TRIPOS>ATOM
      1  N1        23.3900   20.5370    2.9880 N.3   902  MK1902     -0.2661
      2  C1        23.4540   20.4130    4.4810 C.3   902  MK1902      0.0980
      3  C2        24.4290   19.3630    4.9880 C.3   902  MK1902      0.1527
      4  C3        24.4000   19.3790    6.4800 C.2   902  MK1902      0.2572
      5  O1        23.3790   19.0220    7.0810 O.2   902  MK1902     -0.2718
      6  N2        25.5100   19.7920    7.0840 N.am  902  MK1902     -0.2077
      7  C4        25.6650   19.8940    8.5110 C.3   902  MK1902      0.0788
      8  C5        27.0900   20.4650    8.7220 C.3   902  MK1902      0.0217
      9  C6        25.5660   18.5900    9.0670 C.3   902  MK1902      0.0217
     10  C7        24.7120   20.8320    9.0850 C.3   902  MK1902      0.0217
     11  N3        23.9030   18.0630    4.4290 N.3   902  MK1902     -0.2619
     12  C8        23.8240   18.1050    2.9510 C.3   902  MK1902      0.0901
     13  C9        23.0300   19.2800    2.4690 C.3   902  MK1902      0.0899
     14  C10       24.7440   16.9360    4.7610 C.3   902  MK1902      0.1057
     15  C11       23.8980   15.6800    5.0450 C.3   902  MK1902      0.1684
     16  O2        24.6970   14.5980    4.7060 O.3   902  MK1902     -0.2216
     17  C12       23.4780   15.5640    6.5210 C.3   902  MK1902      0.0438
     18  C13       22.5800   14.3360    6.8500 C.3   902  MK1902      0.0851
     19  C14       22.4480   14.2260    8.3780 C.3   902  MK1902      0.0356
     20  C15       21.4650   13.1890    8.7950 C.ar  902  MK1902     -0.0217
     21  C16       21.6500   11.8650    8.4710 C.ar  902  MK1902     -0.0043
     22  C17       20.7880   10.8820    8.9160 C.ar  902  MK1902     -0.0003
     23  C18       19.6860   11.2710    9.6830 C.ar  902  MK1902     -0.0000
     24  C19       19.4850   12.6030    9.9980 C.ar  902  MK1902     -0.0003
     25  C20       20.3850   13.5700    9.5680 C.ar  902  MK1902     -0.0043
     26  C21       21.2240   14.4900    6.2260 C.2   902  MK1902      0.2416
     27  O3        20.5460   15.5200    6.3040 O.2   902  MK1902     -0.2733
     28  N4        20.7580   13.3900    5.6640 N.am  902  MK1902     -0.2001
     29  C22       19.3880   13.2060    5.3480 C.3   902  MK1902      0.1477
     30  C23       18.7910   11.8560    5.6960 C.3   902  MK1902      0.1802
     31  O4        19.6950   10.7930    5.3580 O.3   902  MK1902     -0.2206
     32  C24       17.5520   11.7290    4.8090 C.3   902  MK1902      0.0611
     33  C25       17.9040   12.4140    3.5120 C.ar  902  MK1902     -0.0218
     34  C26       17.4350   12.3500    2.2350 C.ar  902  MK1902     -0.0044
     35  C27       18.0190   13.1800    1.2800 C.ar  902  MK1902     -0.0003
     36  C28       19.0380   14.0690    1.5720 C.ar  902  MK1902     -0.0003
     37  C29       19.5310   14.1560    2.8620 C.ar  902  MK1902     -0.0029
     38  C30       19.0480   13.3900    3.8560 C.ar  902  MK1902     -0.0040
     39  C31       22.4420   21.5980    2.6190 C.3   902  MK1902      0.1008
     40  C32       22.7620   23.0540    2.9970 C.ar  902  MK1902      0.0130
     41  C33       23.8780   23.7120    2.4450 C.ar  902  MK1902      0.0959
     42  N5        24.2560   25.0500    2.6910 N.ar  902  MK1902     -0.2426
     43  C34       23.3550   25.6440    3.5760 C.ar  902  MK1902      0.0989
     44  C35       22.2270   25.0720    4.1520 C.ar  902  MK1902      0.0204
     45  C36       21.9200   23.7500    3.8660 C.ar  902  MK1902      0.0002
@<TRIPOS>BOND
     1    35    36   ar
     2    35    34   ar
     3    36    37   ar
     4    34    33   ar
     5    41    42   ar
     6    41    40   ar
     7    13    12    1
     8    13     1    1
     9    39     1    1
    10    39    40    1
    11    42    43   ar
    12    37    38   ar
    13    12    11    1
    14     1     2    1
    15    40    45   ar
    16    33    38   ar
    17    33    32    1
    18    43    44   ar
    19    38    29    1
    20    45    44   ar
    21    11    14    1
    22    11     3    1
    23     2     3    1
    24    16    15    1
    25    14    15    1
    26    32    30    1
    27     3     4    1
    28    15    17    1
    29    29    28    1
    30    29    30    1
    31    31    30    1
    32    28    26   am
    33    26    27    2
    34    26    18    1
    35     4     5    2
    36     4     6   am
    37    17    18    1
    38    18    19    1
    39     6     7    1
    40    19    20    1
    41    21    20   ar
    42    21    22   ar
    43     7     8    1
    44     7     9    1
    45     7    10    1
    46    20    25   ar
    47    22    23   ar
    48    25    24   ar
    49    23    24   ar
