@<TRIPOS>MOLECULE
1sdu_MK1_B_1.pdb
 45 49 0 0 0
SMALL
GASTEIGER

@<TRIPOS>ATOM
      1  N1        22.4900   34.6490   16.2760 N.3   902  MK1902     -0.2661
      2  C1        21.0860   34.5220   15.6530 C.3   902  MK1902      0.0980
      3  C2        20.2080   33.3980   16.2070 C.3   902  MK1902      0.1527
      4  C3        18.8930   33.4290   15.5050 C.2   902  MK1902      0.2572
      5  O1        18.9020   33.0570   14.3260 O.2   902  MK1902     -0.2718
      6  N2        17.9050   33.8850   16.2600 N.am  902  MK1902     -0.2077
      7  C4        16.5340   33.9160   15.8010 C.3   902  MK1902      0.0788
      8  C5        15.6670   34.5990   16.9150 C.3   902  MK1902      0.0217
      9  C6        16.0650   32.6010   15.6750 C.3   902  MK1902      0.0217
     10  C7        16.3710   34.7240   14.6040 C.3   902  MK1902      0.0217
     11  N3        21.0370   32.1620   15.8920 N.3   902  MK1902     -0.2619
     12  C8        22.3960   32.2170   16.4380 C.3   902  MK1902      0.0901
     13  C9        23.1200   33.4410   15.9830 C.3   902  MK1902      0.0899
     14  C10       20.3530   30.9880   16.4880 C.3   902  MK1902      0.1057
     15  C11       20.5500   29.8030   15.5310 C.3   902  MK1902      0.1684
     16  O2        20.4910   28.7330   16.4360 O.3   902  MK1902     -0.2216
     17  C12       19.3540   29.6770   14.5540 C.3   902  MK1902      0.0438
     18  C13       19.4510   28.4760   13.5860 C.3   902  MK1902      0.0851
     19  C14       18.1360   28.4130   12.7500 C.3   902  MK1902      0.0356
     20  C15       18.1380   27.3760   11.6940 C.ar  902  MK1902     -0.0217
     21  C16       18.2960   26.0280   12.0500 C.ar  902  MK1902     -0.0043
     22  C17       18.3000   25.0690   11.0230 C.ar  902  MK1902     -0.0003
     23  C18       18.1340   25.4980    9.7160 C.ar  902  MK1902     -0.0000
     24  C19       17.9710   26.8340    9.3770 C.ar  902  MK1902     -0.0003
     25  C20       17.9860   27.7900   10.3810 C.ar  902  MK1902     -0.0043
     26  C21       20.5790   28.6310   12.5990 C.2   902  MK1902      0.2416
     27  O3        20.8840   29.6850   11.9850 O.2   902  MK1902     -0.2733
     28  N4        21.2060   27.5160   12.3440 N.am  902  MK1902     -0.2001
     29  C22       22.2100   27.3920   11.3130 C.3   902  MK1902      0.1477
     30  C23       22.1360   26.0410   10.6250 C.3   902  MK1902      0.1802
     31  O4        22.0140   24.9160   11.5440 O.3   902  MK1902     -0.2206
     32  C24       23.4720   25.9700    9.8950 C.3   902  MK1902      0.0611
     33  C25       24.5050   26.6700   10.7540 C.ar  902  MK1902     -0.0218
     34  C26       25.8520   26.6850   10.9310 C.ar  902  MK1902     -0.0044
     35  C27       26.4610   27.5260   11.8580 C.ar  902  MK1902     -0.0003
     36  C28       25.7300   28.4010   12.6500 C.ar  902  MK1902     -0.0003
     37  C29       24.3670   28.4300   12.4870 C.ar  902  MK1902     -0.0029
     38  C30       23.6800   27.6230   11.6250 C.ar  902  MK1902     -0.0040
     39  C31       23.1300   35.8060   15.6500 C.3   902  MK1902      0.1008
     40  C32       22.5830   37.1560   16.0470 C.ar  902  MK1902      0.0130
     41  C33       22.5090   37.5080   17.3970 C.ar  902  MK1902      0.0959
     42  N5        21.9640   38.7480   17.7810 N.ar  902  MK1902     -0.2426
     43  C34       21.5260   39.5520   16.7370 C.ar  902  MK1902      0.0989
     44  C35       21.5670   39.2460   15.3740 C.ar  902  MK1902      0.0204
     45  C36       22.1180   38.0100   15.0610 C.ar  902  MK1902      0.0002
@<TRIPOS>BOND
     1    24    23   ar
     2    24    25   ar
     3    23    22   ar
     4    32    30    1
     5    32    33    1
     6    25    20   ar
     7    30    29    1
     8    30    31    1
     9    33    34   ar
    10    33    38   ar
    11    34    35   ar
    12    22    21   ar
    13    29    38    1
    14    29    28    1
    15    38    37   ar
    16    20    21   ar
    17    20    19    1
    18    35    36   ar
    19    27    26    2
    20    28    26   am
    21    37    36   ar
    22    26    18    1
    23    19    18    1
    24    18    17    1
    25     5     4    2
    26    17    15    1
    27    10     7    1
    28    45    44   ar
    29    45    40   ar
    30    44    43   ar
    31     4     3    1
    32     4     6   am
    33    15    16    1
    34    15    14    1
    35    39    40    1
    36    39     1    1
    37     2     3    1
    38     2     1    1
    39     9     7    1
    40     7     6    1
    41     7     8    1
    42    11     3    1
    43    11    12    1
    44    11    14    1
    45    13     1    1
    46    13    12    1
    47    40    41   ar
    48    43    42   ar
    49    41    42   ar
