@<TRIPOS>MOLECULE
1sdv_MK1_B_1.pdb
 45 49 0 0 0
SMALL
GASTEIGER

@<TRIPOS>ATOM
      1  N1        23.5910   20.5680    2.9010 N.3   902  MK1902     -0.2661
      2  C1        23.5320   20.3780    4.3900 C.3   902  MK1902      0.0980
      3  C2        24.4930   19.3320    4.9700 C.3   902  MK1902      0.1527
      4  C3        24.4050   19.3170    6.4600 C.2   902  MK1902      0.2572
      5  O1        23.3770   18.9420    7.0090 O.2   902  MK1902     -0.2718
      6  N2        25.4990   19.7270    7.0960 N.am  902  MK1902     -0.2077
      7  C4        25.6710   19.7460    8.5380 C.3   902  MK1902      0.0788
      8  C5        27.0690   20.2970    8.8310 C.3   902  MK1902      0.0217
      9  C6        25.5490   18.4430    9.0430 C.3   902  MK1902      0.0217
     10  C7        24.6680   20.6270    9.1400 C.3   902  MK1902      0.0217
     11  N3        23.9590   18.0700    4.3150 N.3   902  MK1902     -0.2619
     12  C8        23.9500   18.1470    2.8330 C.3   902  MK1902      0.0901
     13  C9        23.2510   19.3740    2.2800 C.3   902  MK1902      0.0899
     14  C10       24.7690   16.8890    4.6800 C.3   902  MK1902      0.1057
     15  C11       23.8660   15.6730    4.9390 C.3   902  MK1902      0.1684
     16  O2        24.6310   14.5740    4.5980 O.3   902  MK1902     -0.2216
     17  C12       23.3970   15.5450    6.4000 C.3   902  MK1902      0.0438
     18  C13       22.5180   14.3080    6.7430 C.3   902  MK1902      0.0851
     19  C14       22.3560   14.2170    8.2740 C.3   902  MK1902      0.0356
     20  C15       21.4340   13.1780    8.7560 C.ar  902  MK1902     -0.0217
     21  C16       21.7070   11.8270    8.5270 C.ar  902  MK1902     -0.0043
     22  C17       20.8290   10.8650    9.0160 C.ar  902  MK1902     -0.0003
     23  C18       19.6990   11.2460    9.7230 C.ar  902  MK1902     -0.0000
     24  C19       19.4370   12.5900    9.9640 C.ar  902  MK1902     -0.0003
     25  C20       20.3120   13.5360    9.4770 C.ar  902  MK1902     -0.0043
     26  C21       21.1560   14.4840    6.1000 C.2   902  MK1902      0.2416
     27  O3        20.4720   15.5250    6.1120 O.2   902  MK1902     -0.2733
     28  N4        20.7220   13.3530    5.5760 N.am  902  MK1902     -0.2001
     29  C22       19.3100   13.2310    5.2450 C.3   902  MK1902      0.1477
     30  C23       18.6950   11.8770    5.5690 C.3   902  MK1902      0.1802
     31  O4        19.5970   10.8120    5.2650 O.3   902  MK1902     -0.2206
     32  C24       17.4730   11.7970    4.6840 C.3   902  MK1902      0.0611
     33  C25       17.8380   12.4530    3.3660 C.ar  902  MK1902     -0.0218
     34  C26       17.3650   12.3900    2.0830 C.ar  902  MK1902     -0.0044
     35  C27       17.9900   13.1970    1.1420 C.ar  902  MK1902     -0.0003
     36  C28       19.0450   14.0510    1.4600 C.ar  902  MK1902     -0.0003
     37  C29       19.5280   14.1430    2.7420 C.ar  902  MK1902     -0.0029
     38  C30       19.0030   13.3900    3.7380 C.ar  902  MK1902     -0.0040
     39  C31       22.8200   21.6920    2.3900 C.3   902  MK1902      0.1008
     40  C32       23.0380   23.0670    3.0360 C.ar  902  MK1902      0.0130
     41  C33       24.2070   23.8070    2.8140 C.ar  902  MK1902      0.0959
     42  N5        24.4410   25.1230    3.2750 N.ar  902  MK1902     -0.2426
     43  C34       23.3450   25.5640    3.9970 C.ar  902  MK1902      0.0989
     44  C35       22.1730   24.8660    4.2610 C.ar  902  MK1902      0.0204
     45  C36       21.9880   23.5740    3.7910 C.ar  902  MK1902      0.0002
@<TRIPOS>BOND
     1    35    36   ar
     2    35    34   ar
     3    36    37   ar
     4    34    33   ar
     5    13    12    1
     6    13     1    1
     7    39     1    1
     8    39    40    1
     9    37    38   ar
    10    41    40   ar
    11    41    42   ar
    12    12    11    1
    13     1     2    1
    14    40    45   ar
    15    42    43   ar
    16    33    38   ar
    17    33    32    1
    18    38    29    1
    19    45    44   ar
    20    43    44   ar
    21    11    14    1
    22    11     3    1
    23     2     3    1
    24    16    15    1
    25    14    15    1
    26    32    30    1
    27    15    17    1
    28     3     4    1
    29    29    30    1
    30    29    28    1
    31    31    30    1
    32    28    26   am
    33    26    27    2
    34    26    18    1
    35    17    18    1
    36     4     5    2
    37     4     6   am
    38    18    19    1
    39     6     7    1
    40    19    20    1
    41    21    20   ar
    42    21    22   ar
    43     7     8    1
    44     7     9    1
    45     7    10    1
    46    20    25   ar
    47    22    23   ar
    48    25    24   ar
    49    23    24   ar
