@<TRIPOS>MOLECULE
1sdw_IYT_A_1.pdb
 25 25 0 0 0
SMALL
GASTEIGER

@<TRIPOS>ATOM
      1  CAN       48.7850   23.3350   41.3530 C.3   701  IYT701      0.0964
      2  CN        47.2700   23.4890   41.3300 C.2   701  IYT701      0.2423
      3  ON        46.6000   22.7870   40.5580 O.2   701  IYT701     -0.2733
      4  N         46.7180   24.3630   42.1820 N.am  701  IYT701     -0.1974
      5  CA        45.2820   24.5750   42.1540 C.3   701  IYT701      0.1770
      6  CB        44.5660   23.6290   43.1290 C.3   701  IYT701      0.0574
      7  CG        44.7130   23.8930   44.6050 C.ar  701  IYT701     -0.0189
      8  CD1       43.6270   24.3620   45.3430 C.ar  701  IYT701      0.0048
      9  CE1       43.6850   24.4970   46.7170 C.ar  701  IYT701      0.0690
     10  CD2       45.8880   23.5740   45.2860 C.ar  701  IYT701      0.0048
     11  CE2       45.9720   23.7070   46.6730 C.ar  701  IYT701      0.0690
     12  CZ        44.8540   24.1640   47.3930 C.ar  701  IYT701      0.2062
     13  OH        44.8680   24.2410   48.7670 O.3   701  IYT701     -0.2857
     14  I1        42.0440   25.2150   47.7410 I     701  IYT701     -0.0392
     15  I2        47.7440   23.2640   47.6390 I     701  IYT701     -0.0392
     16  C         44.8780   26.0380   42.3410 C.2   701  IYT701      0.2621
     17  O         45.6770   26.8720   42.7890 O.2   701  IYT701     -0.2715
     18  NT        43.6370   26.3360   41.9470 N.am  701  IYT701     -0.1915
     19  CAT       43.0580   27.6810   41.9640 C.3   701  IYT701      0.2278
     20  CBT       43.2110   28.3900   43.3270 C.3   701  IYT701      0.1829
     21  OGT       42.3930   27.7410   44.3070 O.3   701  IYT701     -0.2207
     22  CGT       42.7760   29.8500   43.2060 C.3   701  IYT701      0.0380
     23  CT        41.5700   27.5910   41.5920 C.2   701  IYT701      0.3868
     24  OX1       41.0040   28.6060   41.1340 O.co2 701  IYT701     -0.2437
     25  OX2       40.9970   26.4840   41.7490 O.co2 701  IYT701     -0.2437
@<TRIPOS>BOND
     1     3     2    2
     2    24    23   ar
     3     2     1    1
     4     2     4   am
     5    23    25   ar
     6    23    19    1
     7    18    19    1
     8    18    16   am
     9    19    20    1
    10     5     4    1
    11     5    16    1
    12     5     6    1
    13    16    17    2
    14     6     7    1
    15    22    20    1
    16    20    21    1
    17     7    10   ar
    18     7     8   ar
    19    10    11   ar
    20     8     9   ar
    21    11    12   ar
    22    11    15    1
    23     9    12   ar
    24     9    14    1
    25    12    13    1
