@<TRIPOS>MOLECULE
1sdx_III_E_1.pdb
 34 33 0 0 0
SMALL
GASTEIGER

@<TRIPOS>ATOM
      1  N         13.8080    1.3480   40.7810 N.3   681  LEU681     -0.1231
      2  CA        14.3910    2.4970   40.0690 C.3   681  LEU681      0.1693
      3  C         15.3670    2.0420   38.9750 C.2   681  LEU681      0.2592
      4  O         16.5190    1.8020   39.2730 O.2   681  LEU681     -0.2718
      5  CB        15.1720    3.3970   41.0550 C.3   681  LEU681      0.0284
      6  CG        14.8870    4.9160   41.0580 C.3   681  LEU681      0.0019
      7  CD1       14.1360    5.3050   42.3310 C.3   681  LEU681      0.0001
      8  CD2       16.1760    5.7240   40.9210 C.3   681  LEU681      0.0001
      9  N         14.9170    1.9480   37.7290 N.am  682  GLU682     -0.1966
     10  CA        15.6890    1.5190   36.5250 C.3   682  GLU682      0.1733
     11  C         14.4630    1.2210   35.7290 C.2   682  GLU682      0.2616
     12  O         14.1940    0.1110   35.2620 O.2   682  GLU682     -0.2715
     13  CB        16.4990    0.2130   36.6730 C.3   682  GLU682      0.0429
     14  CG        17.2020   -0.2610   35.3850 C.3   682  GLU682      0.1163
     15  CD        16.3790   -0.0820   34.1330 C.2   682  GLU682      0.3649
     16  OE1       15.6210   -1.0140   33.7850 O.co2 682  GLU682     -0.2457
     17  OE2       16.4800    0.9940   33.4940 O.co2 682  GLU682     -0.2457
     18  N         13.7280    2.3050   35.6280 N.am  683  ALA683     -0.1963
     19  CA        12.3880    2.4020   35.0800 C.3   683  ALA683      0.1728
     20  C         12.0150    3.6040   35.9160 C.2   683  ALA683      0.2616
     21  O         10.8760    3.8250   36.3430 O.2   683  ALA683     -0.2715
     22  CB        11.5170    1.1940   35.4320 C.3   683  ALA683      0.0334
     23  N         13.0840    4.3790   36.0960 N.am  684  CYS684     -0.1954
     24  CA        13.1510    5.6200   36.8680 C.3   684  CYS684      0.1843
     25  C         12.1480    6.6570   36.3710 C.2   684  CYS684      0.2626
     26  O         12.5580    7.5550   35.6440 O.2   684  CYS684     -0.2714
     27  CB        14.5750    6.2310   36.7460 C.3   684  CYS684      0.0997
     28  SG        15.8320    5.0840   36.0950 S.3   684  CYS684     -0.0797
     29  N         10.8690    6.5400   36.7430 N.am  685  ALA685     -0.1941
     30  CA         9.7890    7.4690   36.3360 C.3   685  ALA685      0.1979
     31  C          8.9290    6.9190   35.1950 C.2   685  ALA685      0.3842
     32  O          9.3040    5.8560   34.6550 O.co2 685  ALA685     -0.2437
     33  CB        10.3440    8.8610   35.9390 C.3   685  ALA685      0.0356
     34  OXT        7.9030    7.5560   34.8490 O.co2 685  ALA685     -0.2437
@<TRIPOS>BOND
     1    17    15   ar
     2    16    15   ar
     3    15    14    1
     4    32    31   ar
     5    34    31   ar
     6    19    22    1
     7    19    18    1
     8    19    20    1
     9    31    30    1
    10    12    11    2
    11    14    13    1
    12    18    11   am
    13    26    25    2
    14    11    10    1
    15    20    23   am
    16    20    21    2
    17    33    30    1
    18    28    27    1
    19    23    24    1
    20    30    29    1
    21    25    29   am
    22    25    24    1
    23    10    13    1
    24    10     9    1
    25    27    24    1
    26     9     3   am
    27     3     4    2
    28     3     2    1
    29     2     1    1
    30     2     5    1
    31     8     6    1
    32     5     6    1
    33     6     7    1
