@<TRIPOS>MOLECULE
1se3_SIA_A_1.pdb
 20 20 0 0 0
SMALL
GASTEIGER

@<TRIPOS>ATOM
      1  C1        38.9940   52.9810   55.5890 C.2   400  SIA400      0.3914
      2  C2        39.2710   51.4580   55.4610 C.3   400  SIA400      0.2203
      3  C3        40.4430   51.0230   56.3380 C.3   400  SIA400      0.0760
      4  C4        40.3970   49.5280   56.6370 C.3   400  SIA400      0.1773
      5  C5        39.5300   48.8300   55.5630 C.3   400  SIA400      0.1552
      6  C6        38.0780   49.3440   55.6930 C.3   400  SIA400      0.1710
      7  C7        37.0980   48.9430   54.5550 C.3   400  SIA400      0.2134
      8  C8        35.7380   49.6130   54.8350 C.3   400  SIA400      0.2173
      9  C9        34.7560   49.4330   53.6820 C.3   400  SIA400      0.2175
     10  C10       39.7040   46.5900   54.6350 C.2   400  SIA400      0.2420
     11  C11       39.7560   45.0990   54.9310 C.3   400  SIA400      0.0964
     12  N5        39.5860   47.3810   55.7080 N.am  400  SIA400     -0.2020
     13  O1A       39.9720   53.7670   55.8200 O.co2 400  SIA400     -0.2430
     14  O1B       37.8160   53.4050   55.3800 O.co2 400  SIA400     -0.2430
     15  O4        41.7170   48.9870   56.6340 O.3   400  SIA400     -0.2211
     16  O6        38.0540   50.7860   55.8780 O.3   400  SIA400     -0.3429
     17  O7        37.5860   49.3320   53.2640 O.3   400  SIA400     -0.2176
     18  O8        35.1610   49.0550   56.0190 O.3   400  SIA400     -0.2175
     19  O9        34.0140   48.2430   53.8940 O.3   400  SIA400     -0.2175
     20  O10       39.6940   47.0080   53.4590 O.2   400  SIA400     -0.2733
@<TRIPOS>BOND
     1    17     7    1
     2    20    10    2
     3     9    19    1
     4     9     8    1
     5     7     8    1
     6     7     6    1
     7    10    11    1
     8    10    12   am
     9     8    18    1
    10    14     1   ar
    11     2     1    1
    12     2    16    1
    13     2     3    1
    14     5     6    1
    15     5    12    1
    16     5     4    1
    17     1    13   ar
    18     6    16    1
    19     3     4    1
    20    15     4    1
