@<TRIPOS>MOLECULE
1se6_HEM_A_1.pdb
 43 50 0 0 0
SMALL
GASTEIGER

@<TRIPOS>ATOM
      1  CHA       -8.0760   39.4730   61.1800 C.2   430  HEM430      0.0000
      2  CHB       -6.4190   41.3310   65.3020 C.2   430  HEM430      0.0000
      3  CHC       -1.9950   41.5640   63.4150 C.2   430  HEM430      0.0000
      4  CHD       -3.6530   39.7110   59.3050 C.2   430  HEM430      0.0000
      5  C1A       -8.0310   39.9460   62.4670 C.2   430  HEM430      0.0000
      6  C2A       -9.1630   40.0820   63.3700 C.2   430  HEM430      0.0000
      7  C3A       -8.6990   40.5840   64.5230 C.2   430  HEM430      0.0000
      8  C4A       -7.2730   40.8040   64.3710 C.2   430  HEM430      0.0000
      9  CMA       -9.4900   40.9190   65.7970 C.3   430  HEM430      0.0000
     10  CAA      -10.6220   39.7180   63.0080 C.3   430  HEM430      0.0000
     11  CBA      -11.0840   38.2930   63.1850 C.3   430  HEM430      0.0000
     12  CGA      -12.5420   38.1570   62.7250 C.2   430  HEM430      0.0000
     13  O1A      -13.3500   37.7030   63.5930 O.co2 430  HEM430      0.0000
     14  O2A      -12.8460   38.4930   61.5680 O.co2 430  HEM430      0.0000
     15  C1B       -5.0840   41.5650   65.1560 C.ar  430  HEM430      0.0000
     16  C2B       -4.2380   42.1530   66.1810 C.ar  430  HEM430      0.0000
     17  C3B       -2.9770   42.2320   65.6490 C.ar  430  HEM430      0.0000
     18  C4B       -3.0470   41.6830   64.3070 C.ar  430  HEM430      0.0000
     19  CMB       -4.7410   42.5960   67.5730 C.3   430  HEM430      0.0000
     20  CAB       -1.6540   42.7870   66.2500 C.3   430  HEM430      0.0000
     21  CBB       -1.3710   42.4950   67.7390 C.3   430  HEM430      0.0000
     22  C1C       -2.0630   41.0700   62.1270 C.2   430  HEM430      0.0000
     23  C2C       -0.9120   40.9740   61.2220 C.2   430  HEM430      0.0000
     24  C3C       -1.3680   40.4560   60.0700 C.2   430  HEM430      0.0000
     25  C4C       -2.7910   40.2220   60.2430 C.2   430  HEM430      0.0000
     26  CMC        0.5330   41.4110   61.6010 C.3   430  HEM430      0.0000
     27  CAC       -0.6020   40.1390   58.7630 C.3   430  HEM430      0.0000
     28  CBC        0.4000   38.9730   58.8610 C.3   430  HEM430      0.0000
     29  C1D       -4.9980   39.4760   59.4370 C.ar  430  HEM430      0.0000
     30  C2D       -5.8710   38.9350   58.4140 C.ar  430  HEM430      0.0000
     31  C3D       -7.1170   38.8580   58.9380 C.ar  430  HEM430      0.0000
     32  C4D       -7.0200   39.3610   60.2980 C.ar  430  HEM430      0.0000
     33  CMD       -5.4130   38.5350   56.9970 C.3   430  HEM430      0.0000
     34  CAD       -8.3850   38.3340   58.2340 C.3   430  HEM430      0.0000
     35  CBD       -8.5670   36.8040   58.5380 C.3   430  HEM430      0.0000
     36  CGD       -9.7870   36.1610   57.8900 C.2   430  HEM430      0.0000
     37  O1D       -9.7390   34.9570   57.5630 O.co2 430  HEM430      0.0000
     38  O2D      -10.7820   36.8970   57.7420 O.co2 430  HEM430      0.0000
     39  NA        -6.8990   40.3990   63.1000 N.2   430  HEM430      0.0000
     40  NB        -4.3330   41.2820   64.0170 N.ar  430  HEM430      0.0000
     41  NC        -3.1920   40.5930   61.5110 N.2   430  HEM430      0.0000
     42  ND        -5.7170   39.7370   60.5980 N.ar  430  HEM430      0.0000
     43 FE         -5.0310   40.4720   62.3040 Fe    430  HEM430      0.0000
@<TRIPOS>BOND
     1    33    30    1
     2    37    36   ar
     3    38    36   ar
     4    36    35    1
     5    34    35    1
     6    34    31    1
     7    30    31   ar
     8    30    29   ar
     9    27    28    1
    10    27    24    1
    11    31    32   ar
    12     4    29    2
    13     4    25    1
    14    29    42   ar
    15    24    25    1
    16    24    23    2
    17    25    41    2
    18    32    42   ar
    19    32     1    2
    20    42    43    1
    21     1     5    1
    22    23    26    1
    23    23    22    1
    24    41    22    1
    25    41    43    1
    26    14    12   ar
    27    22     3    2
    28    43    39    1
    29    43    40    1
    30     5    39    2
    31     5     6    1
    32    12    11    1
    33    12    13   ar
    34    10    11    1
    35    10     6    1
    36    39     8    1
    37     6     7    2
    38     3    18    1
    39    40    18   ar
    40    40    15   ar
    41    18    17   ar
    42     8     7    1
    43     8     2    2
    44     7     9    1
    45    15     2    1
    46    15    16   ar
    47    17    16   ar
    48    17    20    1
    49    16    19    1
    50    20    21    1
