@<TRIPOS>MOLECULE
1se6_SPK_A_1.pdb
 14 13 0 0 0
SMALL
GASTEIGER

@<TRIPOS>ATOM
      1  N1        16.6290   59.3090   84.1770 N.3   631  SPK631     -0.1313
      2  C2        15.9250   59.5080   82.8480 C.3   631  SPK631      0.1108
      3  C3        16.7830   60.0790   81.7840 C.3   631  SPK631      0.0393
      4  C4        16.1950   61.2220   81.0430 C.3   631  SPK631      0.0902
      5  N5        17.0610   62.3410   80.5960 N.3   631  SPK631     -0.2180
      6  C6        16.1900   63.3020   79.9230 C.3   631  SPK631      0.0887
      7  C7        15.7290   64.3900   80.8700 C.3   631  SPK631      0.0203
      8  C8        14.7630   65.3550   80.2570 C.3   631  SPK631      0.0203
      9  C9        13.3830   64.7650   80.4760 C.3   631  SPK631      0.0887
     10  N10       12.2490   65.5470   79.9280 N.3   631  SPK631     -0.2180
     11  C11       10.9810   64.8110   80.2320 C.3   631  SPK631      0.0902
     12  C12        9.7490   65.4820   79.7280 C.3   631  SPK631      0.0393
     13  C13        8.4840   64.7390   80.0400 C.3   631  SPK631      0.1108
     14  N14        7.3360   65.6110   80.4680 N.3   631  SPK631     -0.1313
@<TRIPOS>BOND
     1    12    13    1
     2    12    11    1
     3     6     5    1
     4     6     7    1
     5    10    11    1
     6    10     9    1
     7    13    14    1
     8     8     9    1
     9     8     7    1
    10     5     4    1
    11     4     3    1
    12     3     2    1
    13     2     1    1
