@<TRIPOS>MOLECULE
1seh_UMP_A_1.pdb
 20 21 0 0 0
SMALL
GASTEIGER

@<TRIPOS>ATOM
      1  N1        -7.4390   31.5430    4.8110 N.am  777  UMP777     -0.1790
      2  C2        -6.4210   30.8090    4.2510 C.1   777  UMP777      0.2844
      3  N3        -5.5120   31.4690    3.4460 N.2   777  UMP777     -0.2452
      4  C4        -5.6030   32.8190    3.1790 C.1   777  UMP777      0.2182
      5  C5        -6.6230   33.5600    3.7520 C.2   777  UMP777      0.1242
      6  C6        -7.5290   32.8960    4.5600 C.2   777  UMP777      0.0928
      7  O2        -6.3070   29.5850    4.4460 O.2   777  UMP777     -0.1918
      8  O4        -4.7730   33.3560    2.4630 O.2   777  UMP777     -0.2085
      9  C1'       -8.4210   30.9010    5.7110 C.3   777  UMP777      0.2090
     10  C2'       -8.2460   31.4990    7.1100 C.3   777  UMP777      0.0874
     11  C3'       -9.4790   32.3320    7.3370 C.3   777  UMP777      0.1857
     12  C4'      -10.4720   31.5680    6.4880 C.3   777  UMP777      0.1774
     13  O3'       -9.8700   32.4110    8.6960 O.3   777  UMP777     -0.2203
     14  O4'       -9.7400   31.1900    5.3230 O.3   777  UMP777     -0.3339
     15  C5'      -11.7270   32.3450    6.1720 C.3   777  UMP777      0.1858
     16  O5'      -11.4090   33.3350    5.2510 O.3   777  UMP777     -0.2675
     17  P        -12.6150   34.2220    4.6980 P.3   777  UMP777      0.5327
     18  OP1      -11.9320   35.3120    3.9470 O.3   777  UMP777     -0.1145
     19  OP2      -13.4310   34.7890    5.8840 O.3   777  UMP777     -0.1145
     20  OP3      -13.5340   33.3760    3.7910 O.2   777  UMP777     -0.2224
@<TRIPOS>BOND
     1     8     4    2
     2     4     3    2
     3     4     5    1
     4     3     2    2
     5     5     6    2
     6    20    17    2
     7    18    17    1
     8     2     7    2
     9     2     1   am
    10     6     1    1
    11    17    16    1
    12    17    19    1
    13     1     9    1
    14    16    15    1
    15    14     9    1
    16    14    12    1
    17     9    10    1
    18    15    12    1
    19    12    11    1
    20    10    11    1
    21    11    13    1
