@<TRIPOS>MOLECULE
1sej_F89_A_1.pdb
 37 41 0 0 0
SMALL
GASTEIGER

@<TRIPOS>ATOM
      1  C1       -89.9750  117.1890  131.5650 C.1   604  F89604      0.2000
      2  O1A      -90.8680  116.4240  131.2060 O.2   604  F89604     -0.2127
      3  N2       -89.2650  116.8800  132.7330 N.2   604  F89604     -0.2741
      4  C3       -88.2520  117.7410  133.1730 C.1   604  F89604      0.1262
      5  C3M      -87.4620  117.4260  134.4440 C.3   604  F89604      0.1438
      6  N4       -87.9830  118.8460  132.4630 N.2   604  F89604     -0.3457
      7  C4A      -88.6530  119.1560  131.3420 C.2   604  F89604      0.1415
      8  C5       -88.2880  120.3210  130.6750 C.2   604  F89604      0.0300
      9  C6       -89.0280  120.6870  129.3960 C.2   604  F89604      0.0021
     10  C6A      -90.0350  119.8350  128.9550 C.ar  604  F89604     -0.0025
     11  C7       -90.7080  120.1580  127.7800 C.ar  604  F89604     -0.0005
     12  C8       -91.7170  119.3320  127.2950 C.ar  604  F89604     -0.0026
     13  C9       -92.0530  118.1770  127.9950 C.ar  604  F89604     -0.0009
     14  C10      -91.3710  117.8620  129.1690 C.ar  604  F89604     -0.0053
     15  C1B      -90.3560  118.6790  129.6690 C.ar  604  F89604      0.0005
     16  C1A      -89.6740  118.3440  130.8430 C.3   604  F89604      0.1939
     17  C11      -93.1820  117.2800  127.4800 C.3   604  F89604      0.1385
     18  N12      -94.3090  118.1080  127.0190 N.pl3 604  F89604     -0.2328
     19  C13      -95.2610  118.5610  127.8340 C.ar  604  F89604      0.0654
     20  C14      -95.2250  118.3140  129.2050 C.ar  604  F89604      0.0136
     21  C15      -96.1850  118.8670  130.0480 C.ar  604  F89604      0.0033
     22  C16      -97.1880  119.6710  129.5160 C.ar  604  F89604      0.0513
     23  C17      -97.2420  119.9130  128.1460 C.ar  604  F89604      0.0056
     24  C18      -96.2790  119.3540  127.3090 C.ar  604  F89604      0.0162
     25  C19      -96.3510  118.8230  131.3700 C.3   604  F89604      0.1211
     26  C        -97.9370  120.0960  130.6060 C.2   604  F89604      0.2494
     27  O        -98.9080  120.8510  130.5560 O.2   604  F89604     -0.2699
     28  N        -97.4020  119.5700  131.7060 N.am  604  F89604     -0.2636
     29  CA       -97.8070  119.8170  133.1010 C.3   604  F89604      0.1800
     30  CT       -98.9220  118.8720  133.5610 C.2   604  F89604      0.3825
     31  O1      -100.0740  119.0180  133.1530 O.co2 604  F89604     -0.2438
     32  O2       -98.6790  117.9690  134.3610 O.co2 604  F89604     -0.2438
     33  CB       -98.2460  121.2700  133.3080 C.3   604  F89604      0.0433
     34  CG       -97.0770  122.2370  133.1000 C.3   604  F89604      0.1163
     35  CD       -96.0000  122.0700  134.1760 C.2   604  F89604      0.3649
     36  OE1      -95.8370  120.9850  134.7330 O.co2 604  F89604     -0.2457
     37  OE2      -95.2910  123.0220  134.4990 O.co2 604  F89604     -0.2457
@<TRIPOS>BOND
     1    18    17    1
     2    18    19    1
     3    12    11   ar
     4    12    13   ar
     5    24    19   ar
     6    24    23   ar
     7    17    13    1
     8    11    10   ar
     9    19    20   ar
    10    13    14   ar
    11    23    22   ar
    12    10     9    1
    13    10    15   ar
    14    14    15   ar
    15    20    21   ar
    16     9     8    2
    17    22    21   ar
    18    22    26    1
    19    15    16    1
    20    21    25    1
    21    27    26    2
    22    26    28   am
    23     8     7    1
    24    16     7    1
    25    16     1    1
    26     2     1    2
    27     7     6    2
    28    25    28    1
    29     1     3    2
    30    28    29    1
    31     6     4    2
    32     3     4    2
    33    34    33    1
    34    34    35    1
    35    29    33    1
    36    29    30    1
    37    31    30   ar
    38     4     5    1
    39    30    32   ar
    40    35    37   ar
    41    35    36   ar
