@<TRIPOS>MOLECULE
1sej_NDP_A_1.pdb
 48 52 0 0 0
SMALL
GASTEIGER

@<TRIPOS>ATOM
      1  PA      -134.3850   91.7700  132.2640 P.3   606  NDP606      0.2189
      2  O1A     -133.8370   91.2690  133.5230 O.3   606  NDP606     -0.4371
      3  O2A     -134.1050   91.1890  130.9330 O.2   606  NDP606     -0.5170
      4  O5B     -135.8640   91.1610  132.4230 O.3   606  NDP606     -0.3112
      5  C5B     -136.6260   91.3330  133.6190 C.3   606  NDP606      0.1813
      6  C4B     -137.7380   90.2880  133.6860 C.3   606  NDP606      0.1820
      7  O4B     -137.2310   88.9240  133.8380 O.3   606  NDP606     -0.3136
      8  C3B     -138.6940   90.4710  134.8390 C.3   606  NDP606      0.2157
      9  O3B     -139.6980   91.4210  134.4900 O.3   606  NDP606     -0.2175
     10  C2B     -139.3110   89.1150  134.9440 C.3   606  NDP606      0.2314
     11  O2B     -140.2380   88.9310  133.8860 O.3   606  NDP606     -0.2630
     12  C1B     -138.1360   88.1740  134.7410 C.3   606  NDP606      0.3158
     13  N9A     -137.4650   87.9770  136.0540 N.pl3 606  NDP606     -0.1439
     14  C8A     -136.4310   88.6830  136.5380 C.3   606  NDP606      0.3377
     15  N7A     -136.1220   88.2310  137.7560 N.2   606  NDP606     -0.2095
     16  C5A     -136.9550   87.2420  138.0420 C.2   606  NDP606      0.2526
     17  C6A     -137.1090   86.4090  139.1410 C.2   606  NDP606      0.4393
     18  N6A     -136.3050   86.5350  140.1880 N.pl3 606  NDP606      0.2180
     19  N1A     -138.0800   85.4650  139.1280 N.2   606  NDP606      0.0021
     20  C2A     -138.8910   85.3250  138.0710 C.3   606  NDP606      0.5254
     21  N3A     -138.7590   86.1170  137.0030 N.2   606  NDP606     -0.0055
     22  C4A     -137.8050   87.0750  136.9670 C.2   606  NDP606      0.3518
     23  O3      -134.9100   93.3310  132.2170 O.3   606  NDP606     -0.2703
     24  PN      -133.8660   94.5860  132.3680 P.3   606  NDP606      0.2189
     25  O1N     -133.2850   94.1950  133.6690 O.3   606  NDP606     -0.4371
     26  O2N     -134.8220   95.6790  132.1800 O.2   606  NDP606     -0.5170
     27  O5D     -133.0150   94.0970  131.0730 O.3   606  NDP606     -0.3112
     28  C5D     -133.3530   94.5210  129.7340 C.3   606  NDP606      0.1813
     29  C4D     -132.6140   95.8320  129.3960 C.3   606  NDP606      0.1799
     30  O4D     -131.1710   95.5550  129.5260 O.3   606  NDP606     -0.3327
     31  C3D     -132.7950   96.2060  127.9300 C.3   606  NDP606      0.2158
     32  O3D     -132.6290   97.6130  127.7600 O.3   606  NDP606     -0.2175
     33  C2D     -131.6960   95.4920  127.2160 C.3   606  NDP606      0.2309
     34  O2D     -131.3460   96.1900  126.0200 O.3   606  NDP606     -0.2158
     35  C1D     -130.5500   95.5700  128.2010 C.3   606  NDP606      0.2263
     36  N1N     -129.5300   94.5130  128.0350 N.pl3 606  NDP606     -0.2787
     37  C2N     -128.1890   94.8780  127.8030 C.3   606  NDP606      0.1244
     38  C3N     -127.2080   93.8860  127.7080 C.2   606  NDP606      0.0544
     39  C7N     -125.7450   94.2750  127.5010 C.2   606  NDP606      0.2818
     40  O7N     -124.8540   93.4270  127.5330 O.2   606  NDP606     -0.2670
     41  N7N     -125.5300   95.5770  127.3030 N.am  606  NDP606     -0.0839
     42  C4N     -127.5640   92.5360  127.8380 C.2   606  NDP606      0.0033
     43  C5N     -128.8950   92.1590  128.0650 C.2   606  NDP606      0.0157
     44  C6N     -129.8860   93.1420  128.1650 C.2   606  NDP606      0.0633
     45  P2B     -141.7560   88.5520  134.2300 P.3   606  NDP606      0.5328
     46  O1X     -142.4400   88.3130  132.7730 O.2   606  NDP606     -0.2224
     47  O2X     -141.9980   87.5820  135.2770 O.3   606  NDP606     -0.1145
     48  O3X     -142.2800   89.8920  134.5670 O.3   606  NDP606     -0.1145
@<TRIPOS>BOND
     1    34    33    1
     2    33    31    1
     3    33    35    1
     4    41    39   am
     5    39    40    2
     6    39    38    1
     7    38    37    1
     8    38    42    2
     9    32    31    1
    10    37    36    1
    11    42    43    1
    12    31    29    1
    13    36    44    1
    14    36    35    1
    15    43    44    2
    16    35    30    1
    17    29    30    1
    18    29    28    1
    19    28    27    1
    20     3     1    2
    21    27    24    1
    22    26    24    2
    23    23     1    1
    24    23    24    1
    25     1     4    1
    26     1     2    1
    27    24    25    1
    28     4     5    1
    29    46    45    2
    30     5     6    1
    31     6     7    1
    32     6     8    1
    33     7    12    1
    34    11    45    1
    35    11    10    1
    36    45    48    1
    37    45    47    1
    38     9     8    1
    39    12    10    1
    40    12    13    1
    41     8    10    1
    42    13    14    1
    43    13    22    1
    44    14    15    1
    45    22    21    2
    46    22    16    1
    47    21    20    1
    48    15    16    2
    49    16    17    1
    50    20    19    1
    51    19    17    2
    52    17    18    1
