@<TRIPOS>MOLECULE
1sej_UMP_A_1.pdb
 20 21 0 0 0
SMALL
GASTEIGER

@<TRIPOS>ATOM
      1  N1       -88.0030  115.6900  129.0710 N.am  603  UMP603     -0.2018
      2  C2       -88.9510  114.7110  128.6590 C.1   603  UMP603      0.2802
      3  N3       -89.6140  114.8520  127.5030 N.2   603  UMP603     -0.2497
      4  C4       -89.5550  115.9570  126.7390 C.1   603  UMP603      0.1941
      5  C5       -88.7360  117.1760  127.1840 C.3   603  UMP603      0.1579
      6  C6       -87.5940  116.7750  128.1180 C.3   603  UMP603      0.1249
      7  O2       -89.1090  113.6910  129.3300 O.2   603  UMP603     -0.1922
      8  O4       -90.1730  115.9980  125.6770 O.2   603  UMP603     -0.2133
      9  C1'      -87.2330  115.5200  130.3490 C.3   603  UMP603      0.2048
     10  C2'      -86.3780  114.4240  130.3550 C.3   603  UMP603      0.0871
     11  C3'      -85.4280  114.7380  131.4890 C.3   603  UMP603      0.1857
     12  C4'      -85.2330  116.2460  131.3890 C.3   603  UMP603      0.1774
     13  O3'      -86.0380  114.4120  132.7440 O.3   603  UMP603     -0.2203
     14  O4'      -86.4030  116.6940  130.6440 O.3   603  UMP603     -0.3342
     15  C5'      -83.9640  116.5530  130.5700 C.3   603  UMP603      0.1858
     16  O5'      -82.7970  116.1040  131.2650 O.3   603  UMP603     -0.2675
     17  P        -81.3720  116.1270  130.5510 P.3   603  UMP603      0.5327
     18  OP1      -81.1990  117.6540  130.1420 O.3   603  UMP603     -0.1145
     19  OP2      -80.3330  115.7890  131.5380 O.3   603  UMP603     -0.1145
     20  OP3      -81.4440  115.3440  129.3080 O.2   603  UMP603     -0.2224
@<TRIPOS>BOND
     1     8     4    2
     2     4     5    1
     3     4     3    2
     4     5     6    1
     5     3     2    2
     6     6     1    1
     7     2     1   am
     8     2     7    2
     9     1     9    1
    10    20    17    2
    11    18    17    1
    12     9    10    1
    13     9    14    1
    14    10    11    1
    15    17    16    1
    16    17    19    1
    17    15    16    1
    18    15    12    1
    19    14    12    1
    20    12    11    1
    21    11    13    1
