@<TRIPOS>MOLECULE
1ses_AMP_B_1.pdb
 23 25 0 0 0
SMALL
GASTEIGER

@<TRIPOS>ATOM
      1  P         47.0900  -17.0470   48.7860 P.3   423  AMP423      0.5327
      2  O1P       47.7950  -16.4400   47.4010 O.2   423  AMP423     -0.2224
      3  O2P       45.7350  -16.5340   48.8860 O.3   423  AMP423     -0.1145
      4  O3P       47.2900  -18.5090   48.8990 O.3   423  AMP423     -0.1145
      5  O5'       48.0500  -16.3890   49.8530 O.3   423  AMP423     -0.2675
      6  C5'       49.3730  -16.8960   49.9760 C.3   423  AMP423      0.1860
      7  C4'       49.7710  -16.9230   51.4530 C.3   423  AMP423      0.1823
      8  O4'       49.5520  -15.6730   52.1370 O.3   423  AMP423     -0.3135
      9  C3'       49.0030  -17.9120   52.3180 C.3   423  AMP423      0.2184
     10  O3'       49.6070  -19.1880   52.2020 O.3   423  AMP423     -0.2174
     11  C2'       49.2720  -17.3640   53.6750 C.3   423  AMP423      0.2570
     12  O2'       50.6560  -17.5180   53.9800 O.3   423  AMP423     -0.2130
     13  C1'       49.0710  -15.8950   53.4780 C.3   423  AMP423      0.3186
     14  N9        47.6760  -15.4510   53.7060 N.pl3 423  AMP423     -0.1439
     15  C8        46.6160  -15.4320   52.8190 C.3   423  AMP423      0.3377
     16  N7        45.5960  -14.7280   53.2090 N.2   423  AMP423     -0.2095
     17  C5        45.9590  -14.3630   54.5000 C.2   423  AMP423      0.2526
     18  C6        45.2510  -13.6950   55.4880 C.2   423  AMP423      0.4393
     19  N6        44.0220  -13.2830   55.2330 N.pl3 423  AMP423      0.2180
     20  N1        45.8510  -13.5070   56.6850 N.2   423  AMP423      0.0021
     21  C2        47.1350  -13.8670   56.8470 C.3   423  AMP423      0.5254
     22  N3        47.9290  -14.4720   55.9500 N.2   423  AMP423     -0.0055
     23  C4        47.2330  -14.7540   54.8040 C.2   423  AMP423      0.3518
@<TRIPOS>BOND
     1     2     1    2
     2     1     3    1
     3     1     4    1
     4     1     5    1
     5     5     6    1
     6     6     7    1
     7     7     8    1
     8     7     9    1
     9     8    13    1
    10    10     9    1
    11     9    11    1
    12    15    16    1
    13    15    14    1
    14    16    17    2
    15    13    11    1
    16    13    14    1
    17    11    12    1
    18    14    23    1
    19    17    23    1
    20    17    18    1
    21    23    22    2
    22    19    18    1
    23    18    20    2
    24    22    21    1
    25    20    21    1
