@<TRIPOS>MOLECULE
1ses_AHX_A_1.pdb
 30 32 0 0 0
SMALL
GASTEIGER

@<TRIPOS>ATOM
      1  N10       52.2550   11.5230   62.9640 N.3   422  AHX422     -0.1201
      2  CA        52.8650   12.7830   62.6410 C.3   422  AHX422      0.2043
      3  CB        54.3480   12.6590   62.7550 C.3   422  AHX422      0.2104
      4  OG        54.7040   11.5050   61.9790 O.3   422  AHX422     -0.2182
      5  C9        52.4440   12.8620   61.2050 C.2   422  AHX422      0.2875
      6  O9        52.1960   11.8210   60.5780 O.2   422  AHX422     -0.2694
      7  N8        52.2810   14.0540   60.6970 N.am  422  AHX422     -0.0553
      8  PA        52.9740   14.6340   58.4080 P.3   422  AHX422      0.2391
      9  O1A       52.2210   15.2360   57.2920 O.2   422  AHX422     -0.5160
     10  O2A       53.9150   15.4820   59.1880 O.3   422  AHX422     -0.4360
     11  O3A       51.8810   14.0720   59.3800 O.3   422  AHX422     -0.1976
     12  O5'       53.8430   13.3840   57.8970 O.3   422  AHX422     -0.3102
     13  C5'       55.0600   13.0060   58.5630 C.3   422  AHX422      0.1814
     14  C4'       56.1520   12.4640   57.6570 C.3   422  AHX422      0.1821
     15  O4'       55.7730   11.3280   56.8510 O.3   422  AHX422     -0.3135
     16  C3'       56.6640   13.5570   56.7460 C.3   422  AHX422      0.2184
     17  O3'       57.6300   14.3880   57.4180 O.3   422  AHX422     -0.2174
     18  C2'       57.2880   12.7520   55.6410 C.3   422  AHX422      0.2570
     19  O2'       58.5010   12.2090   56.0940 O.3   422  AHX422     -0.2130
     20  C1'       56.3130   11.5970   55.5470 C.3   422  AHX422      0.3186
     21  N9        55.2410   11.8910   54.5980 N.pl3 422  AHX422     -0.1439
     22  C8        53.9890   12.4460   54.8190 C.3   422  AHX422      0.3377
     23  N7        53.2160   12.3950   53.7580 N.2   422  AHX422     -0.2095
     24  C5        53.9960   11.7630   52.7780 C.2   422  AHX422      0.2526
     25  C6        53.7210   11.3510   51.4650 C.2   422  AHX422      0.4393
     26  N6        52.5490   11.5480   50.8720 N.pl3 422  AHX422      0.2180
     27  N1        54.6930   10.7130   50.8200 N.2   422  AHX422      0.0021
     28  C2        55.8380   10.4360   51.4380 C.3   422  AHX422      0.5254
     29  N3        56.1810   10.6340   52.6970 N.2   422  AHX422     -0.0055
     30  C4        55.2130   11.3880   53.3020 C.2   422  AHX422      0.3518
@<TRIPOS>BOND
     1    27    28    1
     2    27    25    2
     3    26    25    1
     4    28    29    1
     5    25    24    1
     6    29    30    2
     7    24    30    1
     8    24    23    2
     9    30    21    1
    10    23    22    1
    11    21    22    1
    12    21    20    1
    13    20    18    1
    14    20    15    1
    15    18    19    1
    16    18    16    1
    17    16    17    1
    18    16    14    1
    19    15    14    1
    20     9     8    2
    21    14    13    1
    22    12     8    1
    23    12    13    1
    24     8    10    1
    25     8    11    1
    26    11     7    1
    27     6     5    2
    28     7     5   am
    29     5     2    1
    30     4     3    1
    31     2     3    1
    32     2     1    1
