@<TRIPOS>MOLECULE
1set_SSA_A_1.pdb
 29 31 0 0 0
SMALL
GASTEIGER

@<TRIPOS>ATOM
      1  N10       52.8300   12.1690   63.4200 N.3   422  SSA422     -0.1202
      2  CA        53.6270   13.3070   63.0460 C.3   422  SSA422      0.2036
      3  CB        55.1140   13.0490   63.2570 C.3   422  SSA422      0.2104
      4  OG        55.6100   11.9280   62.5000 O.3   422  SSA422     -0.2182
      5  C9        53.3400   13.4270   61.5760 C.2   422  SSA422      0.2825
      6  O9        52.7550   12.5460   60.9440 O.2   422  SSA422     -0.2700
      7  N8        53.8310   14.5270   61.0840 N.am  422  SSA422     -0.0576
      8  S1        53.9950   14.8250   59.5130 S.3   422  SSA422      0.0852
      9  O1S       52.6910   15.0080   58.9420 O.3   422  SSA422     -0.0508
     10  O2S       54.7760   16.0180   59.4350 O.3   422  SSA422     -0.0508
     11  O5'       54.8450   13.7250   58.8210 O.3   422  SSA422     -0.2230
     12  C5'       56.1130   13.3600   59.4130 C.3   422  SSA422      0.2064
     13  C4'       57.0620   12.8390   58.3200 C.3   422  SSA422      0.1842
     14  O4'       56.5550   11.8530   57.3900 O.3   422  SSA422     -0.3135
     15  C3'       57.4340   14.0110   57.4240 C.3   422  SSA422      0.2185
     16  O3'       58.3720   14.7790   58.1680 O.3   422  SSA422     -0.2174
     17  C2'       58.0650   13.3310   56.2330 C.3   422  SSA422      0.2570
     18  O2'       59.3400   12.8110   56.6240 O.3   422  SSA422     -0.2130
     19  C1'       57.0860   12.1570   56.0750 C.3   422  SSA422      0.3186
     20  N9        56.0360   12.4370   55.0510 N.pl3 422  SSA422     -0.1439
     21  C8        54.7970   13.0260   55.1800 C.3   422  SSA422      0.3377
     22  N7        54.0660   12.9880   54.1030 N.2   422  SSA422     -0.2095
     23  C5        54.8290   12.2350   53.2150 C.2   422  SSA422      0.2526
     24  C6        54.5950   11.7750   51.9130 C.2   422  SSA422      0.4393
     25  N6        53.4450   11.9070   51.2990 N.pl3 422  SSA422      0.2180
     26  N1        55.6010   11.1700   51.2760 N.2   422  SSA422      0.0021
     27  C2        56.7500   10.9610   51.9150 C.3   422  SSA422      0.5254
     28  N3        57.0680   11.2340   53.1720 N.2   422  SSA422     -0.0055
     29  C4        56.0530   11.9450   53.7570 C.2   422  SSA422      0.3518
@<TRIPOS>BOND
     1    26    24    2
     2    26    27    1
     3    25    24    1
     4    24    23    1
     5    27    28    1
     6    28    29    2
     7    23    29    1
     8    23    22    2
     9    29    20    1
    10    22    21    1
    11    20    21    1
    12    20    19    1
    13    19    17    1
    14    19    14    1
    15    17    18    1
    16    17    15    1
    17    14    13    1
    18    15    16    1
    19    15    13    1
    20    13    12    1
    21    11    12    1
    22    11     8    1
    23     9     8    1
    24    10     8    1
    25     8     7    1
    26     6     5    2
    27     7     5   am
    28     5     2    1
    29     4     3    1
    30     2     3    1
    31     2     1    1
