@<TRIPOS>MOLECULE
1seu_SA3_D_1.pdb
 38 44 0 0 0
SMALL
GASTEIGER

@<TRIPOS>ATOM
      1  O1        20.2680   -9.7600   26.9870 O.2   990  SA3990     -0.2909
      2  C6        20.6590   -8.7810   27.1030 C.2   990  SA3990      0.1790
      3  C5        19.7470   -7.7560   27.1980 C.2   990  SA3990      0.0379
      4  C4        20.1900   -6.4280   27.3570 C.2   990  SA3990      0.0038
      5  C3        21.5460   -6.1100   27.4260 C.ar  990  SA3990      0.0112
      6  C2        22.5980   -7.1630   27.3290 C.ar  990  SA3990      0.0468
      7  N9        23.8470   -6.4480   27.4380 N.ar  990  SA3990     -0.3045
      8  C1        22.0980   -8.4980   27.1690 C.3   990  SA3990      0.1128
      9  C11       22.1200   -4.8270   27.5770 C.ar  990  SA3990      0.0183
     10  C15       21.6010   -3.5030   27.7100 C.3   990  SA3990      0.1769
     11  C18       20.2290   -2.9950   27.7410 C.1   990  SA3990      0.1992
     12  O37       19.2050   -3.6290   27.6620 O.2   990  SA3990     -0.2127
     13  N17       20.3060   -1.6700   27.8790 N.2   990  SA3990     -0.2614
     14  C14       22.4710   -2.3820   27.8420 C.2   990  SA3990      0.0962
     15  C16       21.5900   -1.2110   27.9480 C.1   990  SA3990      0.2121
     16  O38       21.9300   -0.0190   28.0780 O.2   990  SA3990     -0.2089
     17  C13       23.8960   -2.5510   27.8590 C.2   990  SA3990      0.0422
     18  C21       25.0840   -1.7260   27.9690 C.2   990  SA3990      0.0250
     19  C20       26.2750   -2.6020   27.9180 C.2   990  SA3990      0.1162
     20  N19       25.7860   -3.8540   27.7730 N.2   990  SA3990     -0.4043
     21  C12       24.4230   -3.8730   27.7340 C.2   990  SA3990      0.1469
     22  C10       23.5320   -5.0610   27.5820 C.ar  990  SA3990      0.0887
     23  C25       25.2480   -0.3480   28.1070 C.2   990  SA3990     -0.0160
     24  C24       26.5730    0.1760   28.1920 C.3   990  SA3990      0.0910
     25  C23       27.7370   -0.6700   28.1490 C.2   990  SA3990      0.1621
     26  C22       27.5820   -2.0990   28.0080 C.3   990  SA3990      0.1236
     27  O2        28.7500   -0.2150   28.2230 O.2   990  SA3990     -0.2953
     28  C31       25.2570   -6.8520   27.4120 C.3   990  SA3990      0.2385
     29  C32       26.1620   -7.8170   28.2090 C.3   990  SA3990      0.2337
     30  O32       27.2350   -7.1140   28.7990 O.3   990  SA3990     -0.2155
     31  C33       26.5570   -8.8470   27.1610 C.3   990  SA3990      0.2192
     32  O33       25.2690   -9.2640   26.7280 O.3   990  SA3990     -0.2174
     33  C34       27.3160   -8.2460   25.9210 C.3   990  SA3990      0.2144
     34  O34       28.6240   -7.8580   26.2690 O.3   990  SA3990     -0.2176
     35  C35       26.5570   -7.0210   25.3470 C.3   990  SA3990      0.1830
     36  C36       25.4080   -7.4010   24.3760 C.3   990  SA3990      0.2142
     37  O36       25.9310   -8.1750   23.3030 O.3   990  SA3990     -0.2176
     38  O5        26.0570   -6.2280   26.4220 O.3   990  SA3990     -0.3306
@<TRIPOS>BOND
     1    37    36    1
     2    36    35    1
     3    35    33    1
     4    35    38    1
     5    33    34    1
     6    33    31    1
     7    38    28    1
     8    32    31    1
     9     1     2    2
    10     2     8    1
    11     2     3    1
    12    31    29    1
    13     8     6    1
    14     3     4    2
    15     6     5   ar
    16     6     7   ar
    17     4     5    1
    18    28     7    1
    19    28    29    1
    20     5     9   ar
    21     7    22   ar
    22     9    22   ar
    23     9    10    1
    24    22    21    1
    25    12    11    2
    26    10    11    1
    27    10    14    1
    28    21    20    2
    29    21    17    1
    30    11    13    2
    31    20    19    2
    32    14    17    2
    33    14    15    1
    34    17    18    1
    35    13    15    2
    36    19    18    1
    37    19    26    1
    38    15    16    2
    39    18    23    2
    40    26    25    1
    41    23    24    1
    42    25    24    1
    43    25    27    2
    44    29    30    1
