@<TRIPOS>MOLECULE
1sez_OMN_A_1.pdb
 22 23 0 0 0
SMALL
GASTEIGER

@<TRIPOS>ATOM
      1  C1       -36.5250   -5.9140   26.9280 C.3   601  OMN601      0.1537
      2  N1       -37.6840   -6.5110   27.5620 N.ar  601  OMN601     -0.2444
      3  N2       -38.8370   -5.8430   27.7620 N.ar  601  OMN601     -0.1687
      4  C2       -39.7130   -6.6650   28.5210 C.ar  601  OMN601      0.1106
      5  C3       -39.0600   -7.8400   28.8490 C.ar  601  OMN601      0.0752
      6 BR1       -39.7280   -9.2470   29.8690 Br    601  OMN601     -0.0459
      7  C4       -37.7750   -7.7090   28.2600 C.ar  601  OMN601      0.1569
      8  C5       -36.6040   -8.7000   28.3320 C.3   601  OMN601      0.4350
      9  F1       -35.6000   -8.1740   29.0670 F     601  OMN601     -0.1644
     10  F2       -36.1650   -8.9110   27.0750 F     601  OMN601     -0.1644
     11  F3       -36.9680   -9.8800   28.9040 F     601  OMN601     -0.1644
     12  C6       -41.0820   -6.1900   28.8660 C.ar  601  OMN601      0.0476
     13  C7       -41.1870   -4.8880   29.4020 C.ar  601  OMN601      0.0112
     14  C8       -42.4330   -4.3440   29.7520 C.ar  601  OMN601      0.0905
     15  C9       -42.4700   -2.9490   30.3090 C.2   601  OMN601      0.3886
     16  O1       -41.9030   -1.9400   29.6530 O.co2 601  OMN601     -0.2405
     17  O2       -43.0330   -2.7490   31.3630 O.co2 601  OMN601     -0.2405
     18  C10      -43.6150   -5.1310   29.5590 C.ar  601  OMN601      0.0663
     19 CL1       -45.1930   -4.5280   29.9620 Cl    601  OMN601     -0.0820
     20  C11      -43.5350   -6.4330   29.0250 C.ar  601  OMN601      0.0413
     21  C12      -42.2880   -6.9790   28.6720 C.ar  601  OMN601      0.1424
     22  F4       -42.2580   -8.2050   28.1710 F     601  OMN601     -0.2041
@<TRIPOS>BOND
     1     1     2    1
     2    10     8    1
     3     2     3   ar
     4     2     7   ar
     5     3     4   ar
     6    22    21    1
     7     7     8    1
     8     7     5   ar
     9     8    11    1
    10     8     9    1
    11     4     5   ar
    12     4    12    1
    13    21    12   ar
    14    21    20   ar
    15     5     6    1
    16    12    13   ar
    17    20    18   ar
    18    13    14   ar
    19    18    14   ar
    20    18    19    1
    21    16    15   ar
    22    14    15    1
    23    15    17   ar
