@<TRIPOS>MOLECULE
1sez_TON_A_1.pdb
 21 21 0 0 0
SMALL
GASTEIGER

@<TRIPOS>ATOM
      1  C13      -38.2410   -0.6560   40.6010 C.ar  603  TON603     -0.0012
      2  C14      -39.1960   -1.6270   40.2150 C.ar  603  TON603      0.0366
      3  C15      -40.5480   -1.2940   39.9240 C.ar  603  TON603      0.1387
      4  O1       -41.4430   -2.3380   39.5400 O.3   603  TON603     -0.4727
      5  C1       -42.4140   -2.1580   38.4950 C.3   603  TON603      0.2373
      6  C2       -42.3050   -3.2630   37.4290 C.3   603  TON603      0.1894
      7  O2       -42.4860   -2.5880   36.1700 O.3   603  TON603     -0.3470
      8  C3       -41.4290   -2.8140   35.2180 C.3   603  TON603      0.1778
      9  C4       -41.2860   -1.5160   34.3890 C.3   603  TON603      0.2140
     10  O3       -40.1740   -1.6370   33.4830 O.3   603  TON603     -0.2176
     11  C16      -40.9220    0.0770   40.0340 C.ar  603  TON603      0.0366
     12  C17      -39.9580    1.0440   40.4240 C.ar  603  TON603     -0.0012
     13  C18      -38.5840    0.7230   40.7230 C.ar  603  TON603     -0.0226
     14  C5       -37.5640    1.8690   41.1560 C.3   603  TON603      0.0189
     15  C8       -38.3780    3.0870   41.7540 C.3   603  TON603      0.0044
     16  C7       -36.6360    1.2710   42.2680 C.3   603  TON603      0.0044
     17  C6       -36.6350    2.2770   39.9040 C.3   603  TON603      0.0040
     18  C9       -36.3460    3.6890   39.1820 C.3   603  TON603      0.0003
     19  C12      -35.4630    3.5530   37.8980 C.3   603  TON603      0.0000
     20  C11      -37.6430    4.4860   38.7640 C.3   603  TON603      0.0000
     21  C10      -35.5090    4.5760   40.1770 C.3   603  TON603      0.0000
@<TRIPOS>BOND
     1    10     9    1
     2     9     8    1
     3     8     7    1
     4     7     6    1
     5     6     5    1
     6    19    18    1
     7     5     4    1
     8    20    18    1
     9    18    17    1
    10    18    21    1
    11     4     3    1
    12    17    14    1
    13     3    11   ar
    14     3     2   ar
    15    11    12   ar
    16     2     1   ar
    17    12    13   ar
    18     1    13   ar
    19    13    14    1
    20    14    15    1
    21    14    16    1
