@<TRIPOS>MOLECULE
1sf2_PLP_A_1.pdb
 15 15 0 0 0
SMALL
GASTEIGER

@<TRIPOS>ATOM
      1  N1        35.1290   33.5320   27.5940 N.2   450  PLP450     -0.2505
      2  C2        35.5440   32.4530   26.7920 C.2   450  PLP450      0.0675
      3  C2A       34.7630   31.2110   26.8100 C.3   450  PLP450      0.0499
      4  C3        36.6330   32.6690   25.8700 C.3   450  PLP450      0.1913
      5  O3        37.2810   31.5800   25.2720 O.3   450  PLP450     -0.2167
      6  C4        37.1890   33.9340   25.7730 C.3   450  PLP450      0.0581
      7  C4A       38.1300   34.0060   24.6310 C.3   450  PLP450      0.0075
      8  C5        36.7310   35.0310   26.5360 C.2   450  PLP450      0.0073
      9  C6        35.6690   34.8140   27.4640 C.2   450  PLP450      0.0921
     10  C5A       37.2540   36.4180   26.7010 C.3   450  PLP450      0.1776
     11  O4P       37.1320   37.0740   25.4360 O.3   450  PLP450     -0.2656
     12  P         38.0320   38.2000   25.1100 P.3   450  PLP450      0.5329
     13  O1P       37.6330   38.8170   23.7280 O.2   450  PLP450     -0.2224
     14  O2P       39.5360   37.7330   24.9540 O.3   450  PLP450     -0.1145
     15  O3P       37.9860   39.3460   26.2490 O.3   450  PLP450     -0.1145
@<TRIPOS>BOND
     1    13    12    2
     2     7     6    1
     3    14    12    1
     4    12    11    1
     5    12    15    1
     6     5     4    1
     7    11    10    1
     8     6     4    1
     9     6     8    1
    10     4     2    1
    11     8    10    1
    12     8     9    2
    13     2     3    1
    14     2     1    2
    15     9     1    1
