@<TRIPOS>MOLECULE
1sf4_NAG_A_1.pdb
 15 15 0 0 0
SMALL
GASTEIGER

@<TRIPOS>ATOM
      1  C1        10.0100   25.6210   20.3190 C.3   201  NAG201      0.2917
      2  C2         8.7960   24.7740   20.0080 C.3   201  NAG201      0.1871
      3  C3         7.7740   24.9380   21.1420 C.3   201  NAG201      0.2095
      4  C4         8.5080   24.9070   22.5050 C.3   201  NAG201      0.2136
      5  C5        10.0090   25.3440   22.5680 C.3   201  NAG201      0.1835
      6  C6        10.7760   24.7390   23.7450 C.3   201  NAG201      0.2142
      7  C7         8.1650   24.2960   17.6110 C.2   201  NAG201      0.2421
      8  C8         7.6410   24.9590   16.3610 C.3   201  NAG201      0.0964
      9  N2         8.2450   25.1570   18.6910 N.am  201  NAG201     -0.1991
     10  O1        10.8910   25.4760   19.1870 O.3   201  NAG201     -0.1879
     11  O3         6.7580   23.9000   21.1650 O.3   201  NAG201     -0.2183
     12  O4         7.7180   25.7670   23.3750 O.3   201  NAG201     -0.2176
     13  O5        10.6630   24.9420   21.4050 O.3   201  NAG201     -0.3242
     14  O6        11.1080   23.3870   23.5790 O.3   201  NAG201     -0.2176
     15  O7         8.4910   23.1140   17.7100 O.2   201  NAG201     -0.2733
@<TRIPOS>BOND
     1     8     7    1
     2     7    15    2
     3     7     9   am
     4     9     2    1
     5    10     1    1
     6     2     1    1
     7     2     3    1
     8     1    13    1
     9     3    11    1
    10     3     4    1
    11    13     5    1
    12     4     5    1
    13     4    12    1
    14     5     6    1
    15    14     6    1
