@<TRIPOS>MOLECULE
1sf6_NAG_A_1.pdb
 15 15 0 0 0
SMALL
GASTEIGER

@<TRIPOS>ATOM
      1  C1         9.5010   24.7230   21.7300 C.3   201  NAG201      0.2917
      2  C2         9.5520   23.4020   22.4490 C.3   201  NAG201      0.1871
      3  C3         8.7520   23.4630   23.7730 C.3   201  NAG201      0.2095
      4  C4         8.6800   24.8850   24.3580 C.3   201  NAG201      0.2136
      5  C5         8.9880   26.0670   23.4290 C.3   201  NAG201      0.1835
      6  C6         9.4120   27.3140   24.1870 C.3   201  NAG201      0.2142
      7  C7         9.8250   21.6950   20.6100 C.2   201  NAG201      0.2421
      8  C8        11.2550   22.1890   20.5540 C.3   201  NAG201      0.0964
      9  N2         9.0390   22.3750   21.5220 N.am  201  NAG201     -0.1991
     10  O1        10.4570   24.6050   20.6580 O.3   201  NAG201     -0.1879
     11  O3         9.3470   22.6960   24.8170 O.3   201  NAG201     -0.2183
     12  O4         7.3290   24.9990   24.8540 O.3   201  NAG201     -0.2176
     13  O5        10.0530   25.6810   22.6360 O.3   201  NAG201     -0.3242
     14  O6         9.1880   28.4940   23.4840 O.3   201  NAG201     -0.2176
     15  O7         9.3670   20.7760   19.9540 O.2   201  NAG201     -0.2733
@<TRIPOS>BOND
     1    15     7    2
     2     8     7    1
     3     7     9   am
     4    10     1    1
     5     9     2    1
     6     1     2    1
     7     1    13    1
     8     2     3    1
     9    13     5    1
    10     5     6    1
    11     5     4    1
    12    14     6    1
    13     3     4    1
    14     3    11    1
    15     4    12    1
