@<TRIPOS>MOLECULE
1sf7_NAG_A_1.pdb
 15 15 0 0 0
SMALL
GASTEIGER

@<TRIPOS>ATOM
      1  C1         9.5410   25.1480   22.7060 C.3   201  NAG201      0.2917
      2  C2         8.4420   24.6880   21.7760 C.3   201  NAG201      0.1871
      3  C3         7.1420   24.6890   22.5540 C.3   201  NAG201      0.2095
      4  C4         7.3790   23.8960   23.8640 C.3   201  NAG201      0.2136
      5  C5         8.7750   24.0400   24.5790 C.3   201  NAG201      0.1835
      6  C6         9.0870   22.9020   25.5570 C.3   201  NAG201      0.2142
      7  C7         9.2220   25.4120   19.4760 C.2   201  NAG201      0.2421
      8  C8         8.5980   25.8420   18.1700 C.3   201  NAG201      0.0964
      9  N2         8.3750   25.5460   20.5690 N.am  201  NAG201     -0.1991
     10  O1        10.7190   25.2780   21.8820 O.3   201  NAG201     -0.1879
     11  O3         6.0800   24.0540   21.8210 O.3   201  NAG201     -0.2183
     12  O4         6.2780   24.2530   24.7520 O.3   201  NAG201     -0.2176
     13  O5         9.7880   24.0250   23.6020 O.3   201  NAG201     -0.3242
     14  O6        10.1890   22.0930   25.2110 O.3   201  NAG201     -0.2176
     15  O7        10.3540   24.9790   19.6030 O.2   201  NAG201     -0.2733
@<TRIPOS>BOND
     1     8     7    1
     2     7    15    2
     3     7     9   am
     4     9     2    1
     5     2     3    1
     6     2     1    1
     7    11     3    1
     8    10     1    1
     9     3     4    1
    10     1    13    1
    11    13     5    1
    12     4     5    1
    13     4    12    1
    14     5     6    1
    15    14     6    1
