@<TRIPOS>MOLECULE
1sfb_NAG_A_1.pdb
 15 15 0 0 0
SMALL
GASTEIGER

@<TRIPOS>ATOM
      1  C1         9.0830   26.6910   18.1530 C.3   201  NAG201      0.2917
      2  C2         9.6370   25.3140   17.8500 C.3   201  NAG201      0.1871
      3  C3         9.7390   24.5230   19.1540 C.3   201  NAG201      0.2095
      4  C4        10.6050   25.3940   20.0550 C.3   201  NAG201      0.2136
      5  C5        10.1300   26.8510   20.2040 C.3   201  NAG201      0.1835
      6  C6        11.0500   27.7260   21.0630 C.3   201  NAG201      0.2142
      7  C7         8.9640   23.3710   16.4590 C.2   201  NAG201      0.2421
      8  C8        10.3470   23.0290   15.9580 C.3   201  NAG201      0.0964
      9  N2         8.8020   24.6710   16.8300 N.am  201  NAG201     -0.1991
     10  O1         8.9740   27.3500   16.8540 O.3   201  NAG201     -0.1879
     11  O3        10.3750   23.2250   19.0030 O.3   201  NAG201     -0.2183
     12  O4        10.6630   24.7250   21.3180 O.3   201  NAG201     -0.2176
     13  O5        10.1150   27.3870   18.9070 O.3   201  NAG201     -0.3242
     14  O6        10.5240   28.9930   21.3860 O.3   201  NAG201     -0.2176
     15  O7         8.0520   22.6120   16.5520 O.2   201  NAG201     -0.2733
@<TRIPOS>BOND
     1     8     7    1
     2     7    15    2
     3     7     9   am
     4     9     2    1
     5    10     1    1
     6     2     1    1
     7     2     3    1
     8     1    13    1
     9    13     5    1
    10    11     3    1
    11     3     4    1
    12     4     5    1
    13     4    12    1
    14     5     6    1
    15     6    14    1
