@<TRIPOS>MOLECULE
1sff_IK2_A_1.pdb
 21 21 0 0 0
SMALL
GASTEIGER

@<TRIPOS>ATOM
      1  N1        35.2030   33.8180   27.3340 N.ar  450  IK2450     -0.2452
      2  C2        35.7810   32.7350   26.6970 C.ar  450  IK2450      0.0978
      3  C2A       35.0140   31.4140   26.7210 C.3   450  IK2450      0.0555
      4  C3        37.0790   32.8680   26.0550 C.ar  450  IK2450      0.2063
      5  O3        37.6060   31.8190   25.4730 O.3   450  IK2450     -0.2856
      6  C4        37.7250   34.1450   26.0620 C.ar  450  IK2450      0.0379
      7  C4A       39.0020   34.4090   25.4530 C.3   450  IK2450      0.1508
      8  N4A       40.0920   33.5990   25.1980 N.4   450  IK2450     -0.0781
      9  OX        41.1530   34.4630   25.3100 O.3   450  IK2450     -0.2536
     10  C1'       42.4910   33.9800   25.4640 C.3   450  IK2450      0.2813
     11  C2'       43.7320   34.6980   26.0790 C.2   450  IK2450      0.3967
     12  O1'       43.8120   36.0220   26.0560 O.co2 450  IK2450     -0.2428
     13  O2'       44.6760   33.9450   26.5860 O.co2 450  IK2450     -0.2428
     14  C5        37.0360   35.2400   26.7600 C.ar  450  IK2450      0.0276
     15  C6        35.7680   35.0340   27.3810 C.ar  450  IK2450      0.0965
     16  C5A       37.5440   36.6220   26.8840 C.3   450  IK2450      0.1816
     17  O4P       37.2670   37.2810   25.6470 O.3   450  IK2450     -0.2653
     18  P         38.2210   38.4900   25.1450 P.3   450  IK2450      0.5329
     19  O1P       38.2210   39.4900   26.2870 O.3   450  IK2450     -0.1145
     20  O2P       39.6660   37.9230   24.9200 O.3   450  IK2450     -0.1145
     21  O3P       37.6870   39.0630   23.8530 O.2   450  IK2450     -0.2224
@<TRIPOS>BOND
     1    21    18    2
     2    20    18    1
     3    18    17    1
     4    18    19    1
     5     8     9    1
     6     8     7    1
     7     9    10    1
     8     7     6    1
     9    10    11    1
    10     5     4    1
    11    17    16    1
    12     4     6   ar
    13     4     2   ar
    14    12    11   ar
    15     6    14   ar
    16    11    13   ar
    17     2     3    1
    18     2     1   ar
    19    14    16    1
    20    14    15   ar
    21     1    15   ar
