@<TRIPOS>MOLECULE
1sfg_NAG_A_1.pdb
 15 15 0 0 0
SMALL
GASTEIGER

@<TRIPOS>ATOM
      1  C1         9.1100   26.7260   18.6000 C.3   201  NAG201      0.2917
      2  C2         8.9480   25.2560   18.2880 C.3   201  NAG201      0.1871
      3  C3         9.2000   24.4240   19.5340 C.3   201  NAG201      0.2095
      4  C4        10.5270   24.9170   20.1080 C.3   201  NAG201      0.2136
      5  C5        10.7570   26.4480   20.1130 C.3   201  NAG201      0.1835
      6  C6        12.1870   26.8410   20.4550 C.3   201  NAG201      0.2142
      7  C7         7.5020   24.5050   16.4600 C.2   201  NAG201      0.2421
      8  C8         8.7230   23.7360   16.0230 C.3   201  NAG201      0.0964
      9  N2         7.6300   25.0080   17.7140 N.am  201  NAG201     -0.1991
     10  O1         8.8630   27.4050   17.3590 O.3   201  NAG201     -0.1879
     11  O3         9.3410   23.0130   19.2270 O.3   201  NAG201     -0.2183
     12  O4        10.6110   24.3980   21.4520 O.3   201  NAG201     -0.2176
     13  O5        10.5110   26.9000   18.8240 O.3   201  NAG201     -0.3242
     14  O6        12.2760   27.8080   21.4520 O.3   201  NAG201     -0.2176
     15  O7         6.4780   24.6600   15.8220 O.2   201  NAG201     -0.2733
@<TRIPOS>BOND
     1    15     7    2
     2     8     7    1
     3     7     9   am
     4    10     1    1
     5     9     2    1
     6     2     1    1
     7     2     3    1
     8     1    13    1
     9    13     5    1
    10    11     3    1
    11     3     4    1
    12     4     5    1
    13     4    12    1
    14     5     6    1
    15     6    14    1
