@<TRIPOS>MOLECULE
1sfj_DHK_A_1.pdb
 11 11 0 0 0
SMALL
GASTEIGER

@<TRIPOS>ATOM
      1  C2       104.5830  -17.1630 -106.4190 C.2   239  DHK239     -0.0211
      2  C3       105.8000  -18.0350 -106.2340 C.3   239  DHK239      0.0614
      3  C4       106.0530  -19.0720 -107.3740 C.3   239  DHK239      0.1867
      4  O4       106.6610  -20.2790 -106.9230 O.3   239  DHK239     -0.2200
      5  C5       104.8440  -19.3350 -108.2760 C.3   239  DHK239      0.1870
      6  C1       103.8840  -17.1230 -107.5600 C.2   239  DHK239      0.0560
      7  C6       104.2550  -18.0160 -108.7860 C.3   239  DHK239      0.0682
      8  C        102.7790  -16.1030 -107.7580 C.2   239  DHK239      0.3836
      9  O1       101.8400  -16.0580 -106.9410 O.co2 239  DHK239     -0.2409
     10  O2       102.8500  -15.3460 -108.7390 O.co2 239  DHK239     -0.2409
     11  O5       105.2130  -20.2080 -109.3560 O.3   239  DHK239     -0.2200
@<TRIPOS>BOND
     1    11     5    1
     2     7     5    1
     3     7     6    1
     4    10     8   ar
     5     5     3    1
     6     8     6    1
     7     8     9   ar
     8     6     1    2
     9     3     4    1
    10     3     2    1
    11     1     2    1
