@<TRIPOS>MOLECULE
1sfq_0G6_B_1.pdb
 30 31 0 0 0
SMALL
GASTEIGER

@<TRIPOS>ATOM
      1  N         19.8280   10.7680   63.1600 N.3   301  0G6301     -0.1228
      2  CA        21.2820   11.1080   63.2810 C.3   301  0G6301      0.1721
      3  C         21.3610   12.6230   63.4380 C.2   301  0G6301      0.2437
      4  O         20.6120   13.2050   64.2110 O.2   301  0G6301     -0.2733
      5  CB        21.8890   10.4140   64.5090 C.3   301  0G6301      0.0547
      6  CG        23.3790   10.6340   64.6600 C.ar  301  0G6301     -0.0202
      7  CD1       24.2760   10.1050   63.7220 C.ar  301  0G6301     -0.0042
      8  CD2       23.8800   11.4140   65.7050 C.ar  301  0G6301     -0.0042
      9  CE1       25.6580   10.3580   63.8200 C.ar  301  0G6301     -0.0003
     10  CE2       25.2610   11.6750   65.8110 C.ar  301  0G6301     -0.0003
     11  CZ        26.1500   11.1450   64.8610 C.ar  301  0G6301     -0.0000
     12  N1        22.2470   13.2840   62.6860 N.am  301  0G6301     -0.2718
     13  CA1       22.3780   14.7460   62.7760 C.3   301  0G6301      0.1535
     14  C1        21.0780   15.4430   62.3700 C.2   301  0G6301      0.2595
     15  O1        20.4000   14.9960   61.4540 O.2   301  0G6301     -0.2716
     16  CB1       23.4850   15.0650   61.7650 C.3   301  0G6301      0.0310
     17  CG1       24.2610   13.7640   61.6500 C.3   301  0G6301      0.0237
     18  CD        23.1720   12.7230   61.6870 C.3   301  0G6301      0.0939
     19  N2        20.7450   16.5420   63.0390 N.am  301  0G6301     -0.2032
     20  CA2       19.5540   17.2970   62.6750 C.3   301  0G6301      0.1257
     21  C2        19.9900   18.6700   62.2450 C.3   301  0G6301      0.1718
     22  O2        18.9390   19.2560   61.3520 O.3   301  0G6301     -0.2213
     23  CB2       18.6220   17.4370   63.8740 C.3   301  0G6301      0.0280
     24  CG2       17.9950   16.1460   64.2790 C.3   301  0G6301      0.0488
     25  CD3       17.1580   16.3620   65.5160 C.3   301  0G6301      0.2205
     26  NE        16.3160   15.1970   65.7700 N.pl3 301  0G6301     -0.0865
     27  CZ1       15.5240   15.0710   66.8230 C.cat 301  0G6301      0.5346
     28  NH1       15.4660   16.0450   67.7450 N.pl3 301  0G6301      0.1354
     29  NH2       14.7740   13.9780   66.9380 N.pl3 301  0G6301      0.1354
     30  C3        21.2970   18.5170   61.3940 C.3   301  0G6301      0.0373
@<TRIPOS>BOND
     1    22    21    1
     2    30    21    1
     3    15    14    2
     4    17    18    1
     5    17    16    1
     6    18    12    1
     7    16    13    1
     8    21    20    1
     9    14    13    1
    10    14    19   am
    11    20    19    1
    12    20    23    1
    13    12    13    1
    14    12     3   am
    15     1     2    1
    16     2     3    1
    17     2     5    1
    18     3     4    2
    19     7     9   ar
    20     7     6   ar
    21     9    11   ar
    22    23    24    1
    23    24    25    1
    24     5     6    1
    25     6     8   ar
    26    11    10   ar
    27    25    26    1
    28     8    10   ar
    29    26    27    2
    30    27    29    1
    31    27    28    1
