@<TRIPOS>MOLECULE
1sft_PLP_A_1.pdb
 15 15 0 0 0
SMALL
GASTEIGER

@<TRIPOS>ATOM
      1  N1        23.6490   10.5010   68.7270 N.2   402  PLP402     -0.2505
      2  C2        24.7370   11.2170   69.2000 C.2   402  PLP402      0.0675
      3  C2A       26.1050   10.6000   69.3190 C.3   402  PLP402      0.0499
      4  C3        24.5710   12.5370   69.4370 C.3   402  PLP402      0.1913
      5  O3        25.6460   13.3240   69.5520 O.3   402  PLP402     -0.2167
      6  C4        23.3080   13.1110   69.2360 C.3   402  PLP402      0.0581
      7  C4A       23.0730   14.6490   69.5470 C.3   402  PLP402      0.0075
      8  C5        22.2800   12.3320   68.6950 C.2   402  PLP402      0.0073
      9  C6        22.4660   11.0510   68.4720 C.2   402  PLP402      0.0921
     10  C5A       20.9660   12.9600   68.2460 C.3   402  PLP402      0.1776
     11  O4P       21.1440   13.6970   67.0280 O.3   402  PLP402     -0.2656
     12  P         19.9900   14.5210   66.3010 P.3   402  PLP402      0.5329
     13  O1P       19.6450   15.6890   67.1150 O.3   402  PLP402     -0.1145
     14  O2P       20.6890   14.8810   65.0670 O.2   402  PLP402     -0.2224
     15  O3P       18.9310   13.5280   66.1730 O.3   402  PLP402     -0.1145
@<TRIPOS>BOND
     1    14    12    2
     2    15    12    1
     3    12    11    1
     4    12    13    1
     5    11    10    1
     6    10     8    1
     7     9     8    2
     8     9     1    1
     9     8     6    1
    10     1     2    2
    11     2     3    1
    12     2     4    1
    13     6     4    1
    14     6     7    1
    15     4     5    1
