@<TRIPOS>MOLECULE
1sfy_LAT_A_1.pdb
 23 24 0 0 0
SMALL
GASTEIGER

@<TRIPOS>ATOM
      1  C1        60.7560   72.6720   87.1270 C.3   1402  LAT1402     0.2695
      2  C2        59.3460   72.0720   86.9500 C.3   1402  LAT1402     0.2406
      3  C3        58.7690   72.5340   85.5820 C.3   1402  LAT1402     0.2198
      4  C4        58.7400   74.1030   85.5910 C.3   1402  LAT1402     0.2144
      5  C5        60.1680   74.6640   85.8120 C.3   1402  LAT1402     0.1835
      6  C6        60.2080   76.1990   85.8670 C.3   1402  LAT1402     0.2142
      7  O1        61.2760   72.2520   88.3900 O.3   1402  LAT1402    -0.3257
      8  O2        59.3710   70.6500   86.9760 O.3   1402  LAT1402    -0.2149
      9  O3        57.4520   71.9850   85.3910 O.3   1402  LAT1402    -0.2174
     10  O4        57.8460   74.5790   86.6290 O.3   1402  LAT1402    -0.2176
     11  O5        60.7010   74.1230   87.0600 O.3   1402  LAT1402    -0.3256
     12  O6        61.5430   76.6110   86.0590 O.3   1402  LAT1402    -0.2176
     13  C1'       64.8610   72.4060   90.6120 C.3   1402  LAT1402     0.3023
     14  C2'       64.4340   73.7250   89.9100 C.3   1402  LAT1402     0.2433
     15  C3'       62.9360   73.6550   89.6170 C.3   1402  LAT1402     0.2168
     16  C4'       62.6990   72.4070   88.6760 C.3   1402  LAT1402     0.1804
     17  C5'       63.1970   71.0760   89.3420 C.3   1402  LAT1402     0.1804
     18  C6'       63.2100   69.7750   88.4580 C.3   1402  LAT1402     0.2141
     19  O1'       66.2440   72.3980   90.9020 O.3   1402  LAT1402    -0.1869
     20  O2'       64.6820   74.8530   90.7440 O.3   1402  LAT1402    -0.2148
     21  O3'       62.5320   74.8780   88.9920 O.3   1402  LAT1402    -0.2175
     22  O5'       64.5730   71.2620   89.7770 O.3   1402  LAT1402    -0.3237
     23  O6'       64.0800   69.9340   87.2870 O.3   1402  LAT1402    -0.2176
@<TRIPOS>BOND
     1     9     3    1
     2     3     4    1
     3     3     2    1
     4     4     5    1
     5     4    10    1
     6     5     6    1
     7     5    11    1
     8     6    12    1
     9     2     8    1
    10     2     1    1
    11    11     1    1
    12     1     7    1
    13    23    18    1
    14     7    16    1
    15    18    17    1
    16    16    17    1
    17    16    15    1
    18    21    15    1
    19    17    22    1
    20    15    14    1
    21    22    13    1
    22    14    13    1
    23    14    20    1
    24    13    19    1
