@<TRIPOS>MOLECULE
1sg0_STL_A_1.pdb
 17 18 0 0 0
SMALL
GASTEIGER

@<TRIPOS>ATOM
      1  C1        23.5670   13.0790    8.1130 C.ar  501  STL501      0.1989
      2  C2        22.3960   13.8410    7.7800 C.ar  501  STL501      0.0840
      3  C3        22.3470   14.5870    6.5570 C.ar  501  STL501      0.1989
      4  C4        23.4800   14.5910    5.6710 C.ar  501  STL501      0.0422
      5  C5        24.6540   13.8370    5.9940 C.ar  501  STL501      0.0064
      6  C6        24.6950   13.0750    7.2240 C.ar  501  STL501      0.0422
      7  C7        25.7820   13.8750    5.0730 C.2   501  STL501      0.0002
      8  C8        26.9730   13.1430    5.2860 C.2   501  STL501      0.0000
      9  C9        28.0910   13.2190    4.3630 C.ar  501  STL501      0.0002
     10  C10       28.0370   14.0540    3.1830 C.ar  501  STL501      0.0033
     11  C11       29.1560   14.1150    2.2900 C.ar  501  STL501      0.0420
     12  C12       30.3350   13.3480    2.5630 C.ar  501  STL501      0.1957
     13  C13       30.3940   12.5160    3.7330 C.ar  501  STL501      0.0420
     14  C14       29.2740   12.4530    4.6300 C.ar  501  STL501      0.0033
     15  O1        31.3980   13.4070    1.7220 O.3   501  STL501     -0.2866
     16  O2        21.2350   15.3130    6.2400 O.3   501  STL501     -0.2865
     17  O3        23.6030   12.3800    9.2560 O.3   501  STL501     -0.2865
@<TRIPOS>BOND
     1    15    12    1
     2    11    12   ar
     3    11    10   ar
     4    12    13   ar
     5    10     9   ar
     6    13    14   ar
     7     9    14   ar
     8     9     8    1
     9     7     8    2
    10     7     5    1
    11     4     5   ar
    12     4     3   ar
    13     5     6   ar
    14    16     3    1
    15     3     2   ar
    16     6     1   ar
    17     2     1   ar
    18     1    17    1
