@<TRIPOS>MOLECULE
1sg6_NAD_A_1.pdb
 44 48 0 0 0
SMALL
GASTEIGER

@<TRIPOS>ATOM
      1  PA        23.2710   52.0000   35.6850 P.3   1400  NAD1400     0.2189
      2  O1A       22.2180   52.8340   35.1000 O.2   1400  NAD1400    -0.5170
      3  O2A       22.8830   50.7800   36.4020 O.3   1400  NAD1400    -0.4371
      4  O5B       24.1370   52.9930   36.6560 O.3   1400  NAD1400    -0.3112
      5  C5B       25.3480   52.4500   37.3380 C.3   1400  NAD1400     0.1813
      6  C4B       25.4420   53.0020   38.7720 C.3   1400  NAD1400     0.1821
      7  O4B       25.9100   54.3230   38.8300 O.3   1400  NAD1400    -0.3135
      8  C3B       24.1590   53.0420   39.6070 C.3   1400  NAD1400     0.2184
      9  O3B       24.3210   52.6280   40.7490 O.3   1400  NAD1400    -0.2174
     10  C2B       23.7320   54.5130   39.6490 C.3   1400  NAD1400     0.2570
     11  O2B       22.9480   54.8280   40.7930 O.3   1400  NAD1400    -0.2130
     12  C1B       25.0550   55.1910   39.6370 C.3   1400  NAD1400     0.3186
     13  N9A       25.2180   56.4730   38.9420 N.pl3 1400  NAD1400    -0.1439
     14  C8A       24.7630   56.7430   37.6440 C.3   1400  NAD1400     0.3377
     15  N7A       25.1420   57.9510   37.2590 N.2   1400  NAD1400    -0.2095
     16  C5A       25.8160   58.4960   38.3450 C.2   1400  NAD1400     0.2526
     17  C6A       26.4700   59.7480   38.5360 C.2   1400  NAD1400     0.4393
     18  N6A       26.5860   60.6960   37.6100 N.pl3 1400  NAD1400     0.2180
     19  N1A       27.0330   59.9830   39.8030 N.2   1400  NAD1400     0.0021
     20  C2A       26.8880   59.0220   40.7830 C.3   1400  NAD1400     0.5254
     21  N3A       26.3390   57.8000   40.7020 N.2   1400  NAD1400    -0.0055
     22  C4A       25.8170   57.6060   39.4040 C.2   1400  NAD1400     0.3518
     23  O3        24.3500   51.5540   34.5750 O.3   1400  NAD1400    -0.2703
     24  PN        24.5700   51.8400   33.0170 P.3   1400  NAD1400     0.2189
     25  O1N       24.4730   53.2470   32.7340 O.3   1400  NAD1400    -0.4371
     26  O2N       25.8130   51.0340   32.7240 O.2   1400  NAD1400    -0.5170
     27  O5D       23.2410   51.1070   32.4440 O.3   1400  NAD1400    -0.3112
     28  C5D       23.0940   49.7140   32.2860 C.3   1400  NAD1400     0.1813
     29  C4D       21.7820   49.4590   31.5430 C.3   1400  NAD1400     0.1799
     30  O4D       21.8820   49.9800   30.1840 O.3   1400  NAD1400    -0.3327
     31  C3D       21.4190   47.9670   31.3960 C.3   1400  NAD1400     0.2158
     32  O3D       20.2180   47.7520   32.1220 O.3   1400  NAD1400    -0.2175
     33  C2D       21.2960   47.7440   29.8810 C.3   1400  NAD1400     0.2309
     34  O2D       20.2580   46.8120   29.5140 O.3   1400  NAD1400    -0.2158
     35  C1D       21.0650   49.1290   29.3300 C.3   1400  NAD1400     0.2263
     36  N1N       21.5670   49.3860   27.9710 N.pl3 1400  NAD1400    -0.2787
     37  C2N       20.5680   49.8670   27.1330 C.3   1400  NAD1400     0.1244
     38  C3N       20.8830   50.2210   25.8200 C.2   1400  NAD1400     0.0544
     39  C7N       19.8180   50.8140   24.8500 C.2   1400  NAD1400     0.2818
     40  O7N       19.9170   50.6440   23.6320 O.2   1400  NAD1400    -0.2670
     41  N7N       18.7850   51.5140   25.3900 N.am  1400  NAD1400    -0.0839
     42  C4N       22.2200   50.0780   25.2590 C.2   1400  NAD1400     0.0033
     43  C5N       23.1750   49.5550   26.1940 C.2   1400  NAD1400     0.0157
     44  C6N       22.9290   49.1810   27.5070 C.2   1400  NAD1400     0.0633
@<TRIPOS>BOND
     1    40    39    2
     2    39    41   am
     3    39    38    1
     4    42    38    2
     5    42    43    1
     6    38    37    1
     7    43    44    2
     8    37    36    1
     9    44    36    1
    10    36    35    1
    11    35    33    1
    12    35    30    1
    13    34    33    1
    14    33    31    1
    15    30    29    1
    16    31    29    1
    17    31    32    1
    18    29    28    1
    19    28    27    1
    20    27    24    1
    21    26    24    2
    22    25    24    1
    23    24    23    1
    24    23     1    1
    25     2     1    2
    26     1     3    1
    27     1     4    1
    28     4     5    1
    29    15    14    1
    30    15    16    2
    31     5     6    1
    32    18    17    1
    33    14    13    1
    34    16    17    1
    35    16    22    1
    36    17    19    2
    37     6     7    1
    38     6     8    1
    39     7    12    1
    40    13    22    1
    41    13    12    1
    42    22    21    2
    43     8    10    1
    44     8     9    1
    45    12    10    1
    46    10    11    1
    47    19    20    1
    48    21    20    1
