@<TRIPOS>MOLECULE
1sg9_SAM_A_1.pdb
 27 29 0 0 0
SMALL
GASTEIGER

@<TRIPOS>ATOM
      1  N         23.9500   49.3950   67.9910 N.3   301  SAM301     -0.1208
      2  CA        25.1420   48.5100   68.1720 C.3   301  SAM301      0.1952
      3  C         24.8790   47.1940   67.5320 C.2   301  SAM301      0.3819
      4  O         23.7740   46.9980   67.0030 O.co2 301  SAM301     -0.2441
      5  OXT       25.8540   46.3730   67.6170 O.co2 301  SAM301     -0.2441
      6  CB        25.3650   48.1920   69.6280 C.3   301  SAM301      0.0414
      7  CG        24.6030   49.0710   70.4920 C.3   301  SAM301      0.0503
      8  SD        24.6790   48.8040   72.2680 S.3   301  SAM301     -0.1761
      9  CE        23.6970   47.3290   72.5550 C.3   301  SAM301      0.0590
     10  C5'       23.6860   50.1350   72.8090 C.3   301  SAM301      0.0806
     11  C4'       24.3470   51.4990   72.6360 C.3   301  SAM301      0.1622
     12  O4'       23.4070   52.4580   73.0710 O.3   301  SAM301     -0.3153
     13  C3'       25.5390   51.7120   73.5640 C.3   301  SAM301      0.2168
     14  O3'       26.6190   51.8960   72.5990 O.3   301  SAM301     -0.2175
     15  C2'       25.3360   53.0390   74.2770 C.3   301  SAM301      0.2569
     16  O2'       26.4080   53.9340   74.4210 O.3   301  SAM301     -0.2130
     17  C1'       24.0690   53.5820   73.5800 C.3   301  SAM301      0.3185
     18  N9        23.0590   54.2320   74.3750 N.pl3 301  SAM301     -0.1439
     19  C8        22.5540   53.9220   75.6110 C.3   301  SAM301      0.3377
     20  N7        21.5960   54.7290   76.0020 N.2   301  SAM301     -0.2095
     21  C5        21.4690   55.6280   74.9440 C.2   301  SAM301      0.2526
     22  C6        20.6070   56.7480   74.7080 C.2   301  SAM301      0.4393
     23  N6        19.6620   57.1390   75.6030 N.pl3 301  SAM301      0.2180
     24  N1        20.7340   57.4570   73.5240 N.2   301  SAM301      0.0021
     25  C2        21.6690   57.0610   72.6370 C.3   301  SAM301      0.5254
     26  N3        22.5230   56.0220   72.7510 N.2   301  SAM301     -0.0055
     27  C4        22.3700   55.3390   73.9420 C.2   301  SAM301      0.3518
@<TRIPOS>BOND
     1     4     3   ar
     2     3     5   ar
     3     3     2    1
     4     1     2    1
     5     2     6    1
     6     6     7    1
     7     7     8    1
     8     8     9    1
     9     8    10    1
    10    14    13    1
    11    11    10    1
    12    11    12    1
    13    11    13    1
    14    25    26    1
    15    25    24    1
    16    26    27    2
    17    12    17    1
    18    24    22    2
    19    13    15    1
    20    17    15    1
    21    17    18    1
    22    27    18    1
    23    27    21    1
    24    15    16    1
    25    18    19    1
    26    22    21    1
    27    22    23    1
    28    21    20    2
    29    19    20    1
