@<TRIPOS>MOLECULE
1sg9_GLN_A_1.pdb
 10 9 0 0 0
SMALL
GASTEIGER

@<TRIPOS>ATOM
      1  N         20.9770   41.7640   73.9800 N.3   400  GLN400     -0.1208
      2  CA        22.3980   42.0500   73.6290 C.3   400  GLN400      0.1948
      3  C         23.2300   40.7580   73.5910 C.2   400  GLN400      0.3819
      4  O         23.7300   40.4010   72.4990 O.co2 400  GLN400     -0.2441
      5  CB        23.0000   43.0340   74.6410 C.3   400  GLN400      0.0403
      6  CG        22.7530   44.5200   74.3320 C.3   400  GLN400      0.0906
      7  CD        21.2860   44.9210   74.3530 C.2   400  GLN400      0.2608
      8  OE1       20.6220   44.8410   75.3930 O.2   400  GLN400     -0.2717
      9  NE2       20.7760   45.3650   73.2020 N.am  400  GLN400     -0.0878
     10  OXT       23.3700   40.1100   74.6530 O.co2 400  GLN400     -0.2441
@<TRIPOS>BOND
     1     4     3   ar
     2     9     7   am
     3     3     2    1
     4     3    10   ar
     5     2     1    1
     6     2     5    1
     7     6     7    1
     8     6     5    1
     9     7     8    2
