@<TRIPOS>MOLECULE
1sgc_III_B_1.pdb
 44 46 0 0 0
SMALL
GASTEIGER

@<TRIPOS>ATOM
      1  N        -20.6880   27.0630   20.9870 N.am    1  PHE1       -0.1774
      2  CA       -21.6850   28.1580   20.8260 C.3     1  PHE1        0.1997
      3  C        -23.0650   27.4930   20.8610 C.2     1  PHE1        0.3843
      4  O        -23.1540   26.3940   21.5080 O.co2   1  PHE1       -0.2437
      5  CB       -21.3080   28.9360   19.5670 C.3     1  PHE1        0.0377
      6  CG       -21.0250   28.0680   18.3440 C.3     1  PHE1        0.0240
      7  CD1      -19.8960   27.2450   18.2970 C.2     1  PHE1       -0.0310
      8  CD2      -22.1140   27.6750   17.5460 C.3     1  PHE1        0.0047
      9  CE1      -19.9940   25.9090   17.8520 C.2     1  PHE1       -0.0307
     10  CE2      -22.1380   26.4280   16.8650 C.3     1  PHE1        0.0050
     11  CZ       -21.2460   25.4590   17.3840 C.3     1  PHE1        0.0257
     12  OXT      -24.0880   28.2780   20.8170 O.co2   1  PHE1       -0.2437
     13  NE       -22.0220   25.5850   25.2000 N.2     2  CSI2       -0.2056
     14  CD2      -21.5480   26.8160   24.8890 C.1     2  CSI2        0.1238
     15  CD1      -21.1820   24.4230   25.5230 C.3     2  CSI2        0.1397
     16  NH       -22.3330   27.8230   24.6240 N.pl3   2  CSI2       -0.0464
     17  CB       -19.2410   25.7720   24.7160 C.3     2  CSI2        0.1454
     18  CG1      -19.8770   24.3940   24.7940 C.3     2  CSI2        0.0546
     19  NG2      -20.2180   26.9220   24.8460 N.2     2  CSI2       -0.2053
     20  N        -19.2650   26.0890   22.3290 N.am    2  CSI2       -0.1775
     21  CA       -18.3980   26.0940   23.4890 C.3     2  CSI2        0.1974
     22  C        -17.2990   25.0390   23.3540 C.2     2  CSI2        0.2637
     23  O        -17.4740   24.0890   22.6390 O.2     2  CSI2       -0.2714
     24  O3       -19.1930   28.3780   22.0560 O.2     2  CSI2       -0.2492
     25  C7       -19.6210   27.2590   21.7120 C.2     2  CSI2        0.3402
     26  N        -16.2440   25.2460   24.1470 N.am    3  LEU3       -0.1963
     27  CA       -15.1260   24.2590   24.1350 C.3     3  LEU3        0.1728
     28  C        -15.5230   23.0240   24.8990 C.2     3  LEU3        0.2612
     29  O        -16.2280   23.1430   25.9570 O.2     3  LEU3       -0.2715
     30  CB       -13.9450   25.0070   24.8560 C.3     3  LEU3        0.0311
     31  CG       -13.3830   26.1010   23.9410 C.3     3  LEU3        0.0022
     32  CD1      -12.5160   27.0730   24.7480 C.3     3  LEU3        0.0001
     33  CD2      -12.5940   25.4700   22.8140 C.3     3  LEU3        0.0001
     34  N        -15.1350   21.8620   24.4160 N.am    4  PHE4       -0.2027
     35  CA       -15.4680   20.6190   25.2040 C.3     4  PHE4        0.1325
     36  C        -14.1400   20.2780   25.9710 C.3     4  PHE4        0.2039
     37  O        -14.1490   19.2300   26.9580 O.3     4  PHE4       -0.2185
     38  CB       -16.1370   19.6740   24.2720 C.3     4  PHE4        0.0507
     39  CG       -17.5960   19.9460   23.9260 C.ar    4  PHE4       -0.0204
     40  CD1      -18.4430   20.4970   24.9230 C.ar    4  PHE4       -0.0042
     41  CD2      -18.0320   19.7180   22.6500 C.ar    4  PHE4       -0.0042
     42  CE1      -19.7770   20.7630   24.6230 C.ar    4  PHE4       -0.0003
     43  CE2      -19.3980   19.9990   22.3430 C.ar    4  PHE4       -0.0003
     44  CZ       -20.2450   20.5160   23.3370 C.ar    4  PHE4       -0.0000
@<TRIPOS>BOND
     1    10    11    1
     2    10     8    1
     3    11     9    1
     4     8     6    1
     5     9     7    2
     6     7     6    1
     7     6     5    1
     8     5     2    1
     9    12     3   ar
    10     2     3    1
    11     2     1    1
    12     3     4   ar
    13     1    25   am
    14    25    24    2
    15    25    20   am
    16    20    21    1
    17    43    41   ar
    18    43    44   ar
    19    23    22    2
    20    41    39   ar
    21    33    31    1
    22    44    42   ar
    23    22    21    1
    24    22    26   am
    25    21    17    1
    26    39    38    1
    27    39    40   ar
    28    31    32    1
    29    31    30    1
    30    27    26    1
    31    27    30    1
    32    27    28    1
    33    38    35    1
    34    34    28   am
    35    34    35    1
    36    42    40   ar
    37    16    14    1
    38    17    18    1
    39    17    19    1
    40    18    15    1
    41    19    14    2
    42    14    13    2
    43    28    29    2
    44    13    15    1
    45    35    36    1
    46    36    37    1
