@<TRIPOS>MOLECULE
1sgu_MK1_B_1.pdb
 45 49 0 0 0
SMALL
GASTEIGER

@<TRIPOS>ATOM
      1  N1        17.9230    4.5360   12.1150 N.3   2632  MK12632    -0.2661
      2  C1        17.5320    3.3370   12.9090 C.3   2632  MK12632     0.0980
      3  C2        18.5960    2.2350   13.0340 C.3   2632  MK12632     0.1527
      4  C3        17.9940    1.1050   13.8700 C.2   2632  MK12632     0.2572
      5  O1        17.2770    0.2430   13.3260 O.2   2632  MK12632    -0.2718
      6  N2        18.2900    1.0990   15.1870 N.am  2632  MK12632    -0.2077
      7  C4        17.8190    0.0520   16.2420 C.3   2632  MK12632     0.0788
      8  C5        18.3720    0.4010   17.6570 C.3   2632  MK12632     0.0217
      9  C6        18.4610   -1.3480   16.0670 C.3   2632  MK12632     0.0217
     10  C7        16.1950   -0.0290   16.2900 C.3   2632  MK12632     0.0217
     11  N3        19.0070    1.8220   11.6580 N.3   2632  MK12632    -0.2619
     12  C8        19.3480    2.9580   10.7450 C.3   2632  MK12632     0.0901
     13  C9        18.2670    4.0750   10.7290 C.3   2632  MK12632     0.0899
     14  C10       20.0700    0.7890   11.6700 C.3   2632  MK12632     0.1057
     15  C11       19.9600   -0.1980   10.5230 C.3   2632  MK12632     0.1684
     16  O2        21.2710   -0.5680   10.0810 O.3   2632  MK12632    -0.2216
     17  C12       19.2510   -1.5270   10.8420 C.3   2632  MK12632     0.0438
     18  C13       19.1360   -2.5230    9.6920 C.3   2632  MK12632     0.0851
     19  C14       18.4900   -3.7730   10.3260 C.3   2632  MK12632     0.0356
     20  C15       18.3250   -4.9130    9.3600 C.ar  2632  MK12632    -0.0217
     21  C16       19.4430   -5.5650    8.7560 C.ar  2632  MK12632    -0.0043
     22  C17       19.2260   -6.6360    7.8420 C.ar  2632  MK12632    -0.0003
     23  C18       17.8960   -7.0520    7.5330 C.ar  2632  MK12632    -0.0000
     24  C19       16.7910   -6.4030    8.1340 C.ar  2632  MK12632    -0.0003
     25  C20       16.9980   -5.3380    9.0440 C.ar  2632  MK12632    -0.0043
     26  C21       18.2820   -1.9630    8.5230 C.2   2632  MK12632     0.2416
     27  O3        17.4400   -1.0840    8.6810 O.2   2632  MK12632    -0.2733
     28  N4        18.5250   -2.5170    7.3410 N.am  2632  MK12632    -0.2001
     29  C22       17.8660   -2.1680    6.0730 C.3   2632  MK12632     0.1477
     30  C23       18.3830   -3.0890    4.9370 C.3   2632  MK12632     0.1802
     31  O4        19.7470   -3.4540    5.1540 O.3   2632  MK12632    -0.2206
     32  C24       18.0330   -2.3210    3.6800 C.3   2632  MK12632     0.0611
     33  C25       18.2740   -0.8610    3.9180 C.ar  2632  MK12632    -0.0218
     34  C26       18.5400    0.2510    3.1050 C.ar  2632  MK12632    -0.0044
     35  C27       18.7160    1.5090    3.7300 C.ar  2632  MK12632    -0.0003
     36  C28       18.6290    1.6590    5.1500 C.ar  2632  MK12632    -0.0003
     37  C29       18.3590    0.5460    6.0020 C.ar  2632  MK12632    -0.0029
     38  C30       18.1640   -0.7630    5.4840 C.ar  2632  MK12632    -0.0040
     39  C31       16.9040    5.6260   12.1760 C.3   2632  MK12632     0.1008
     40  C32       16.4360    6.2820   13.5430 C.ar  2632  MK12632     0.0130
     41  C33       17.2750    7.1070   14.3030 C.ar  2632  MK12632     0.0959
     42  N5        16.8580    7.7290   15.5870 N.ar  2632  MK12632    -0.2426
     43  C34       15.5180    7.4200   15.9950 C.ar  2632  MK12632     0.0989
     44  C35       14.6610    6.6010   15.2550 C.ar  2632  MK12632     0.0204
     45  C36       15.1220    6.0330   14.0320 C.ar  2632  MK12632     0.0002
@<TRIPOS>BOND
     1    34    35   ar
     2    34    33   ar
     3    32    33    1
     4    32    30    1
     5    35    36   ar
     6    33    38   ar
     7    30    31    1
     8    30    29    1
     9    36    37   ar
    10    38    37   ar
    11    38    29    1
    12    29    28    1
    13    28    26   am
    14    23    22   ar
    15    23    24   ar
    16    22    21   ar
    17    24    25   ar
    18    26    27    2
    19    26    18    1
    20    21    20   ar
    21    25    20   ar
    22    20    19    1
    23    18    19    1
    24    18    17    1
    25    16    15    1
    26    15    17    1
    27    15    14    1
    28    13    12    1
    29    13     1    1
    30    12    11    1
    31    11    14    1
    32    11     3    1
    33     1    39    1
    34     1     2    1
    35    39    40    1
    36     2     3    1
    37     3     4    1
    38     5     4    2
    39    40    45   ar
    40    40    41   ar
    41     4     6   am
    42    45    44   ar
    43    41    42   ar
    44     6     7    1
    45    44    43   ar
    46    42    43   ar
    47     9     7    1
    48     7    10    1
    49     7     8    1
