@<TRIPOS>MOLECULE
1sh9_RIT_B_1.pdb
 50 53 0 0 0
SMALL
GASTEIGER

@<TRIPOS>ATOM
      1  C1        18.2570    1.2190    4.1580 C.ar  301  RIT301      0.1053
      2  C2        17.9210    0.0750    4.8210 C.ar  301  RIT301      0.0714
      3  S3        18.3630   -1.4460    4.0140 S.2   301  RIT301     -0.0652
      4  C4        18.9550   -0.2360    2.8580 C.ar  301  RIT301      0.1343
      5  N5        18.8460    1.0310    3.0390 N.ar  301  RIT301     -0.2350
      6  C6        17.2920   -0.3140    6.0350 C.3   301  RIT301      0.2448
      7  O7        18.2950   -0.4790    7.0100 O.3   301  RIT301     -0.4279
      8  C10       18.0880   -0.8560    8.3310 C.2   301  RIT301      0.4215
      9  O24       16.9680   -1.0950    8.8030 O.2   301  RIT301     -0.2246
     10  N11       19.2710   -0.9190    9.0030 N.am  301  RIT301     -0.1675
     11  C12       19.4160   -1.2800   10.4260 C.3   301  RIT301      0.1333
     12  C13       20.4630   -0.4350   11.1760 C.3   301  RIT301      0.1739
     13  C14       20.3250    1.0600   10.9840 C.3   301  RIT301      0.0567
     14  C15       19.2010    1.8860   11.6650 C.3   301  RIT301      0.1023
     15  C26       19.6720   -2.7920   10.6670 C.3   301  RIT301      0.0507
     16  C28       18.8190   -3.7910   10.0590 C.ar  301  RIT301     -0.0204
     17  C31       17.6770   -4.0080   10.8810 C.ar  301  RIT301     -0.0042
     18  C32       16.7050   -4.9600   10.4460 C.ar  301  RIT301     -0.0003
     19  C33       16.8540   -5.6850    9.2210 C.ar  301  RIT301     -0.0000
     20  C34       18.0130   -5.4500    8.4090 C.ar  301  RIT301     -0.0003
     21  C35       18.9930   -4.5070    8.8240 C.ar  301  RIT301     -0.0042
     22  O41       21.7150   -0.8450   10.6700 O.3   301  RIT301     -0.2212
     23  C44       19.4830    3.3160   11.2530 C.3   301  RIT301      0.0481
     24  C45       18.3510    4.1520   11.6230 C.ar  301  RIT301     -0.0205
     25  C48       18.4870    4.9440   12.8060 C.ar  301  RIT301     -0.0042
     26  C49       17.4180    5.7880   13.2400 C.ar  301  RIT301     -0.0003
     27  C50       16.2260    5.8270   12.4760 C.ar  301  RIT301     -0.0000
     28  C51       16.0910    5.0470   11.3040 C.ar  301  RIT301     -0.0003
     29  C52       17.1480    4.2060   10.8690 C.ar  301  RIT301     -0.0042
     30  N58       19.2200    1.8050   13.1270 N.am  301  RIT301     -0.2053
     31  N20       17.9340    2.6100   16.0060 N.am  301  RIT301     -0.1808
     32  C19       18.5260    1.3950   15.4100 C.3   301  RIT301      0.1742
     33  C18       18.2180    1.3320   13.9010 C.2   301  RIT301      0.2612
     34  O61       17.1400    0.8990   13.4410 O.2   301  RIT301     -0.2715
     35  C62       18.0280    0.1600   16.2530 C.3   301  RIT301      0.0290
     36  C64       18.5350   -1.2280   15.7770 C.3   301  RIT301      0.0023
     37  C68       18.3840    0.3410   17.7520 C.3   301  RIT301      0.0023
     38  C21       18.7010    3.6750   16.3870 C.2   301  RIT301      0.3240
     39  N74       17.9780    4.7650   16.8350 N.am  301  RIT301     -0.2546
     40  C75       18.6690    5.9940   17.2860 C.3   301  RIT301      0.1504
     41  O76       19.9570    3.6270   16.3240 O.2   301  RIT301     -0.2507
     42  C77       18.9780    7.0320   16.2820 C.2   301  RIT301      0.1182
     43  C80       20.2130    6.9940   15.6970 C.3   301  RIT301      0.1202
     44  S81       20.2580    8.3590   14.5530 S.3   301  RIT301     -0.0795
     45  C82       18.6060    8.7920   15.0210 C.2   301  RIT301      0.1335
     46  N83       18.1430    7.9690   15.9280 N.2   301  RIT301     -0.4061
     47  C85       18.2280    9.9160   14.2790 C.3   301  RIT301      0.0585
     48  C86       18.9240   11.2650   14.1040 C.3   301  RIT301      0.0080
     49  C90       16.8490   10.2900   14.6530 C.3   301  RIT301      0.0080
     50  C95       16.6530    4.9080   16.9410 C.3   301  RIT301      0.1169
@<TRIPOS>BOND
     1     4     5   ar
     2     4     3   ar
     3     5     1   ar
     4     3     2   ar
     5     1     2   ar
     6     2     6    1
     7     6     7    1
     8     7     8    1
     9     8     9    2
    10     8    10   am
    11    20    21   ar
    12    20    19   ar
    13    21    16   ar
    14    10    11    1
    15    19    18   ar
    16    16    15    1
    17    16    17   ar
    18    11    15    1
    19    11    12    1
    20    18    17   ar
    21    22    12    1
    22    29    28   ar
    23    29    24   ar
    24    13    12    1
    25    13    14    1
    26    23    24    1
    27    23    14    1
    28    28    27   ar
    29    24    25   ar
    30    14    30    1
    31    27    26   ar
    32    25    26   ar
    33    30    33   am
    34    34    33    2
    35    33    32    1
    36    48    47    1
    37    47    49    1
    38    47    45    1
    39    44    45    1
    40    44    43    1
    41    45    46    2
    42    32    31    1
    43    32    35    1
    44    43    42    1
    45    36    35    1
    46    46    42    2
    47    31    38   am
    48    35    37    1
    49    42    40    1
    50    41    38    2
    51    38    39   am
    52    39    50    1
    53    39    40    1
