@<TRIPOS>MOLECULE
1sha_III_B_1.pdb
 47 48 0 0 0
SMALL
GASTEIGER

@<TRIPOS>ATOM
      1  N         52.6070   32.5030   -5.6660 N.3   201  TYR201     -0.1227
      2  CA        53.2510   32.1030   -4.4310 C.3   201  TYR201      0.1736
      3  C         54.4780   32.9230   -4.0500 C.2   201  TYR201      0.2595
      4  O         55.3460   33.2030   -4.8860 O.2   201  TYR201     -0.2718
      5  CB        53.7130   30.6600   -4.4690 C.3   201  TYR201      0.0548
      6  CG        52.6140   29.7120   -4.8700 C.ar  201  TYR201     -0.0200
      7  CD1       51.6740   29.3730   -3.9230 C.ar  201  TYR201     -0.0011
      8  CD2       52.5600   29.2670   -6.1950 C.ar  201  TYR201     -0.0011
      9  CE1       50.6340   28.5460   -4.2940 C.ar  201  TYR201      0.0371
     10  CE2       51.5320   28.4370   -6.5840 C.ar  201  TYR201      0.0371
     11  CZ        50.6000   28.1160   -5.6050 C.ar  201  TYR201      0.1490
     12  OH        49.5460   27.2320   -5.9510 O.3   201  TYR201     -0.3998
     13  P         48.3280   27.7310   -6.8650 P.3   201  TYR201      0.5887
     14  O1P       48.6480   27.6300   -8.3030 O.2   201  TYR201     -0.2114
     15  O2P       48.0420   29.1260   -6.5470 O.3   201  TYR201     -0.1039
     16  O3P       47.2370   26.8280   -6.4780 O.3   201  TYR201     -0.1039
     17  N         54.5310   33.2620   -2.7410 N.am  202  VAL202     -0.1966
     18  CA        55.6570   33.9500   -2.1280 C.3   202  VAL202      0.1712
     19  C         56.7790   32.9180   -2.1260 C.2   202  VAL202      0.2458
     20  O         56.5860   31.8810   -1.5070 O.2   202  VAL202     -0.2730
     21  CB        55.3130   34.3820   -0.7010 C.3   202  VAL202      0.0289
     22  CG1       56.5380   34.9960   -0.0390 C.3   202  VAL202      0.0023
     23  CG2       54.2040   35.4370   -0.7240 C.3   202  VAL202      0.0023
     24  N         57.9390   33.0610   -2.8180 N.am  203  PRO203     -0.2716
     25  CA        59.0260   32.0670   -2.8080 C.3   203  PRO203      0.1536
     26  C         59.6840   32.0370   -1.4350 C.2   203  PRO203      0.2598
     27  O         60.3540   32.9620   -1.0100 O.2   203  PRO203     -0.2715
     28  CB        59.9520   32.5130   -3.9290 C.3   203  PRO203      0.0310
     29  CG        59.8220   34.0120   -3.9200 C.3   203  PRO203      0.0237
     30  CD        58.3090   34.2120   -3.6530 C.3   203  PRO203      0.0939
     31  N         59.3410   31.0160   -0.6750 N.am  204  MET204     -0.1964
     32  CA        59.8610   30.7890    0.6500 C.3   204  MET204      0.1736
     33  C         60.8810   29.6730    0.5600 C.2   204  MET204      0.2617
     34  O         60.6000   28.6550   -0.0670 O.2   204  MET204     -0.2715
     35  CB        58.7940   30.2860    1.6140 C.3   204  MET204      0.0427
     36  CG        57.6860   31.2490    1.8830 C.3   204  MET204      0.0599
     37  SD        58.3850   32.6060    2.8290 S.3   204  MET204     -0.1393
     38  CE        57.3470   32.6260    4.2600 C.3   204  MET204      0.0692
     39  N         62.0780   29.7710    1.1350 N.am  205  LEU205     -0.1942
     40  CA        62.9820   28.6590    1.3390 C.3   205  LEU205      0.1978
     41  C         62.4640   27.8140    2.4910 C.2   205  LEU205      0.3842
     42  O         63.1700   26.9060    2.9180 O.co2 205  LEU205     -0.2437
     43  CB        64.3350   29.2890    1.5160 C.3   205  LEU205      0.0333
     44  CG        65.1880   29.5400    0.2760 C.3   205  LEU205      0.0023
     45  CD1       64.4130   30.3250   -0.7330 C.3   205  LEU205      0.0001
     46  CD2       66.4360   30.3170    0.6820 C.3   205  LEU205      0.0001
     47  OXT       61.3800   28.0540    2.9980 O.co2 205  LEU205     -0.2437
@<TRIPOS>BOND
     1    14    13    2
     2    13    15    1
     3    13    16    1
     4    13    12    1
     5    10     8   ar
     6    10    11   ar
     7     8     6   ar
     8    12    11    1
     9     1     2    1
    10    11     9   ar
    11     4     3    2
    12     6     5    1
    13     6     7   ar
    14     5     2    1
    15     2     3    1
    16     9     7   ar
    17     3    17   am
    18    28    29    1
    19    28    25    1
    20    29    30    1
    21    30    24    1
    22    24    25    1
    23    24    19   am
    24    25    26    1
    25    17    18    1
    26    18    19    1
    27    18    21    1
    28    19    20    2
    29    26    27    2
    30    26    31   am
    31    45    44    1
    32    23    21    1
    33    21    22    1
    34    31    32    1
    35    34    33    2
    36    44    46    1
    37    44    43    1
    38    33    32    1
    39    33    39   am
    40    32    35    1
    41    39    40    1
    42    40    43    1
    43    40    41    1
    44    35    36    1
    45    36    37    1
    46    41    42   ar
    47    41    47   ar
    48    37    38    1
