@<TRIPOS>MOLECULE
1shb_III_B_1.pdb
 48 48 0 0 0
SMALL
GASTEIGER

@<TRIPOS>ATOM
      1  N         47.8950  -24.9990  -44.2940 N.3   201  TYR201     -0.1227
      2  CA        48.2980  -25.8110  -43.1620 C.3   201  TYR201      0.1736
      3  C         49.4670  -26.7030  -43.5560 C.2   201  TYR201      0.2595
      4  O         49.5750  -27.0450  -44.7270 O.2   201  TYR201     -0.2718
      5  CB        47.1310  -26.6670  -42.6780 C.3   201  TYR201      0.0548
      6  CG        46.0730  -25.7450  -42.0930 C.ar  201  TYR201     -0.0200
      7  CD1       46.2410  -25.1660  -40.8430 C.ar  201  TYR201     -0.0011
      8  CD2       44.9510  -25.4680  -42.8530 C.ar  201  TYR201     -0.0011
      9  CE1       45.2710  -24.3230  -40.3450 C.ar  201  TYR201      0.0371
     10  CE2       43.9650  -24.6260  -42.3810 C.ar  201  TYR201      0.0371
     11  CZ        44.1610  -24.0800  -41.1380 C.ar  201  TYR201      0.1490
     12  OH        43.0620  -23.3360  -40.6100 O.3   201  TYR201     -0.3998
     13  P         42.9400  -21.7670  -40.7540 P.3   201  TYR201      0.5887
     14  O1P       42.0350  -21.2530  -39.7040 O.3   201  TYR201     -0.1039
     15  O2P       42.3700  -21.5100  -42.0740 O.2   201  TYR201     -0.2114
     16  O3P       44.2760  -21.1580  -40.6660 O.3   201  TYR201     -0.1039
     17  N         50.3920  -27.0820  -42.6600 N.am  202  LEU202     -0.1966
     18  CA        51.4950  -27.9120  -43.0770 C.3   202  LEU202      0.1728
     19  C         51.0990  -29.3870  -43.0770 C.2   202  LEU202      0.2616
     20  O         50.1480  -29.8040  -42.4150 O.2   202  LEU202     -0.2715
     21  CB        52.6600  -27.7480  -42.1570 C.3   202  LEU202      0.0311
     22  CG        53.2200  -26.4350  -41.7870 C.3   202  LEU202      0.0022
     23  CD1       54.7010  -26.7260  -41.7520 C.3   202  LEU202      0.0001
     24  CD2       52.9870  -25.3130  -42.7530 C.3   202  LEU202      0.0001
     25  N         51.8640  -30.1670  -43.8490 N.am  203  ARG203     -0.1963
     26  CA        51.7220  -31.6120  -43.9460 C.3   203  ARG203      0.1729
     27  C         52.5110  -32.2390  -42.7990 C.2   203  ARG203      0.2616
     28  O         53.6580  -31.8490  -42.5980 O.2   203  ARG203     -0.2715
     29  CB        52.2950  -32.0840  -45.2790 C.3   203  ARG203      0.0348
     30  CG        51.6850  -31.4520  -46.5280 C.3   203  ARG203      0.0492
     31  CD        52.3620  -31.9780  -47.7970 C.3   203  ARG203      0.2205
     32  NE        51.6180  -31.5860  -48.9890 N.pl3 203  ARG203     -0.0865
     33  CZ        52.1830  -31.4170  -50.1850 C.cat 203  ARG203      0.5346
     34  NH1       53.4850  -31.5970  -50.3780 N.pl3 203  ARG203      0.1354
     35  NH2       51.4230  -31.0430  -51.2060 N.pl3 203  ARG203      0.1354
     36  N         52.0000  -33.1580  -41.9780 N.am  204  VAL204     -0.1963
     37  CA        52.8280  -33.7530  -40.9560 C.3   204  VAL204      0.1727
     38  C         52.6710  -35.2730  -41.0200 C.2   204  VAL204      0.2617
     39  O         51.6040  -35.7930  -41.3090 O.2   204  VAL204     -0.2715
     40  CB        52.4240  -33.2210  -39.5190 C.3   204  VAL204      0.0290
     41  CG1       53.3960  -33.7270  -38.4290 C.3   204  VAL204      0.0023
     42  CG2       52.5680  -31.6930  -39.4520 C.3   204  VAL204      0.0023
     43  N         53.8040  -35.9100  -40.8010 N.am  205  ALA205     -0.1942
     44  CA        54.2410  -37.2740  -40.5210 C.3   205  ALA205      0.1979
     45  C         54.7740  -38.3430  -41.4330 C.2   205  ALA205      0.3842
     46  O         54.4600  -38.3930  -42.6460 O.co2 205  ALA205     -0.2437
     47  CB        53.1360  -37.9610  -39.6030 C.3   205  ALA205      0.0356
     48  OXT       55.5460  -39.1350  -40.8480 O.co2 205  ALA205     -0.2437
@<TRIPOS>BOND
     1    35    33    1
     2    34    33    1
     3    33    32    2
     4    32    31    1
     5    31    30    1
     6    30    29    1
     7    29    26    1
     8     4     3    2
     9     1     2    1
    10    26    25    1
    11    26    27    1
    12    25    19   am
    13     3     2    1
    14     3    17   am
    15     2     5    1
    16    18    19    1
    17    18    17    1
    18    18    21    1
    19    19    20    2
    20     8    10   ar
    21     8     6   ar
    22    27    28    2
    23    27    36   am
    24    24    22    1
    25     5     6    1
    26    46    45   ar
    27    10    11   ar
    28    21    22    1
    29     6     7   ar
    30    15    13    2
    31    36    37    1
    32    22    23    1
    33    45    48   ar
    34    45    44    1
    35    39    38    2
    36    11    12    1
    37    11     9   ar
    38    38    37    1
    39    38    43   am
    40    37    40    1
    41     7     9   ar
    42    43    44    1
    43    13    16    1
    44    13    12    1
    45    13    14    1
    46    44    47    1
    47    40    42    1
    48    40    41    1
