@<TRIPOS>MOLECULE
1shd_III_B_1.pdb
 49 49 0 0 0
SMALL
GASTEIGER

@<TRIPOS>ATOM
      1  C         20.7640   10.9560    0.7630 C.2   100  ACE100      0.2233
      2  O         21.0510   10.5680    1.8950 O.2   100  ACE100     -0.2751
      3  CH3       21.8460   11.4580   -0.1910 C.3   100  ACE100      0.0946
      4  N         19.5190   10.9080    0.3160 N.am  101  TYR101     -0.2981
      5  CA        18.3880   10.5610    1.1440 C.3   101  TYR101      0.1529
      6  C         17.8530    9.2640    0.6210 C.2   101  TYR101      0.2410
      7  O         17.6700    9.1500   -0.5930 O.2   101  TYR101     -0.2733
      8  CB        17.3500   11.5990    1.0170 C.3   101  TYR101      0.0553
      9  CG        17.8040   12.8650    1.6990 C.ar  101  TYR101     -0.0198
     10  CD1       17.6180   12.9890    3.0610 C.ar  101  TYR101     -0.0011
     11  CD2       18.4430   13.8600    0.9800 C.ar  101  TYR101     -0.0011
     12  CE1       18.0880   14.1120    3.7050 C.ar  101  TYR101      0.0371
     13  CE2       18.9210   14.9840    1.6050 C.ar  101  TYR101      0.0371
     14  CZ        18.7330   15.0940    2.9630 C.ar  101  TYR101      0.1490
     15  OH        19.1520   16.2890    3.6410 O.3   101  TYR101     -0.3998
     16  P         20.6000   16.6300    4.2880 P.3   101  TYR101      0.5887
     17  O1P       21.4190   17.0620    3.1090 O.2   101  TYR101     -0.2114
     18  O2P       21.0590   15.3560    4.9540 O.3   101  TYR101     -0.1039
     19  O3P       20.2350   17.7380    5.2410 O.3   101  TYR101     -0.1039
     20  H         19.3580   10.9120   -0.6470 H     101  TYR101      0.1498
     21  N         17.6570    8.2820    1.5000 N.am  102  GLU102     -0.2970
     22  CA        17.1330    6.9650    1.1670 C.3   102  GLU102      0.1491
     23  C         15.6590    7.0440    0.8450 C.2   102  GLU102      0.2406
     24  O         14.8810    7.7650    1.4790 O.2   102  GLU102     -0.2733
     25  CB        17.2630    5.9760    2.3130 C.3   102  GLU102      0.0408
     26  CG        18.7000    5.5520    2.6270 C.3   102  GLU102      0.1163
     27  CD        19.3780    4.6690    1.6140 C.2   102  GLU102      0.3649
     28  OE1       18.6990    4.1790    0.7490 O.co2 102  GLU102     -0.2457
     29  OE2       20.5720    4.4410    1.6700 O.co2 102  GLU102     -0.2457
     30  H         17.7480    8.5060    2.4460 H     102  GLU102      0.1499
     31  N         15.2840    6.3560   -0.2200 N.am  103  GLU103     -0.2970
     32  CA        13.8890    6.2270   -0.5920 C.3   103  GLU103      0.1491
     33  C         13.4520    4.8890   -0.0220 C.2   103  GLU103      0.2406
     34  O         14.1630    3.8740   -0.0640 O.2   103  GLU103     -0.2733
     35  CB        13.7320    6.2610   -2.1060 C.3   103  GLU103      0.0408
     36  CG        14.0980    7.6440   -2.6690 C.3   103  GLU103      0.1163
     37  CD        13.3130    8.8500   -2.0980 C.2   103  GLU103      0.3649
     38  OE1       12.0650    8.7970   -2.0510 O.co2 103  GLU103     -0.2457
     39  OE2       13.9570    9.8470   -1.7010 O.co2 103  GLU103     -0.2457
     40  H         15.9730    5.8810   -0.7250 H     103  GLU103      0.1499
     41  N         12.3670    4.9510    0.7060 N.am  104  ILE104     -0.2980
     42  CA        11.7610    3.7710    1.2790 C.3   104  ILE104      0.1368
     43  C         10.7130    3.3260    0.2190 C.2   104  ILE104      0.2266
     44  O         10.1510    4.1510   -0.5300 O.2   104  ILE104     -0.2865
     45  CB        11.2130    4.1980    2.6760 C.3   104  ILE104      0.0256
     46  CG1       10.2060    3.2340    3.2000 C.3   104  ILE104      0.0021
     47  CG2       10.5300    5.5300    2.5690 C.3   104  ILE104      0.0022
     48  CD1        9.5970    3.7230    4.5410 C.3   104  ILE104      0.0001
     49  H         11.8730    5.7960    0.6790 H     104  ILE104      0.1498
@<TRIPOS>BOND
     1    36    35    1
     2    36    37    1
     3    35    32    1
     4    37    38   ar
     5    37    39   ar
     6    40    31    1
     7    20     4    1
     8     7     6    2
     9    32    31    1
    10    32    33    1
    11    44    43    2
    12    31    23   am
    13     3     1    1
    14    34    33    2
    15    33    41   am
    16    43    42    1
    17     4     1   am
    18     4     5    1
    19     6     5    1
    20     6    21   am
    21    49    41    1
    22    41    42    1
    23    28    27   ar
    24     1     2    2
    25    23    22    1
    26    23    24    2
    27    11    13   ar
    28    11     9   ar
    29     8     5    1
    30     8     9    1
    31    22    21    1
    32    22    25    1
    33    42    45    1
    34    21    30    1
    35    13    14   ar
    36    27    29   ar
    37    27    26    1
    38     9    10   ar
    39    25    26    1
    40    47    45    1
    41    45    46    1
    42    14    15    1
    43    14    12   ar
    44    10    12   ar
    45    17    16    2
    46    46    48    1
    47    15    16    1
    48    16    18    1
    49    16    19    1
