@<TRIPOS>MOLECULE
1shh_0G6_B_1.pdb
 30 31 0 0 0
SMALL
GASTEIGER

@<TRIPOS>ATOM
      1  N         19.6320   10.6570   63.4540 N.3   301  0G6301     -0.1228
      2  CA        21.0910   10.9790   63.5390 C.3   301  0G6301      0.1721
      3  C         21.2030   12.4940   63.6720 C.2   301  0G6301      0.2437
      4  O         20.4620   13.0970   64.4290 O.2   301  0G6301     -0.2733
      5  CB        21.6980   10.2730   64.7540 C.3   301  0G6301      0.0547
      6  CG        23.1740   10.4890   64.9000 C.ar  301  0G6301     -0.0202
      7  CD1       24.0640    9.9430   63.9810 C.ar  301  0G6301     -0.0042
      8  CD2       23.6680   11.2700   65.9320 C.ar  301  0G6301     -0.0042
      9  CE1       25.4360   10.1820   64.0870 C.ar  301  0G6301     -0.0003
     10  CE2       25.0460   11.5180   66.0540 C.ar  301  0G6301     -0.0003
     11  CZ        25.9220   10.9720   65.1230 C.ar  301  0G6301     -0.0000
     12  N1        22.1010   13.1320   62.9080 N.am  301  0G6301     -0.2718
     13  CA1       22.2550   14.5940   62.9840 C.3   301  0G6301      0.1535
     14  C1        20.9900   15.3300   62.5380 C.2   301  0G6301      0.2595
     15  O1        20.3310   14.9030   61.5880 O.2   301  0G6301     -0.2716
     16  CB1       23.4010   14.8920   62.0140 C.3   301  0G6301      0.0310
     17  CG1       24.1760   13.5910   61.9570 C.3   301  0G6301      0.0237
     18  CD        23.1040   12.5310   62.0040 C.3   301  0G6301      0.0939
     19  N2        20.6780   16.4470   63.1940 N.am  301  0G6301     -0.2032
     20  CA2       19.5060   17.2450   62.8290 C.3   301  0G6301      0.1257
     21  C2        19.9100   18.6370   62.3680 C.3   301  0G6301      0.1718
     22  O2        19.0650   19.2430   61.5370 O.3   301  0G6301     -0.2213
     23  CB2       18.5670   17.4120   64.0340 C.3   301  0G6301      0.0280
     24  CG2       17.7960   16.1500   64.4120 C.3   301  0G6301      0.0488
     25  CD3       17.0420   16.3470   65.7080 C.3   301  0G6301      0.2205
     26  NE        16.1870   15.1910   65.9930 N.pl3 301  0G6301     -0.0865
     27  CZ1       15.4030   15.0780   67.0520 C.cat 301  0G6301      0.5346
     28  NH1       15.3680   16.0460   67.9720 N.pl3 301  0G6301      0.1354
     29  NH2       14.5930   14.0310   67.1560 N.pl3 301  0G6301      0.1354
     30  C3        21.3180   18.5640   61.6440 C.3   301  0G6301      0.0373
@<TRIPOS>BOND
     1    22    21    1
     2    15    14    2
     3    30    21    1
     4    17    18    1
     5    17    16    1
     6    18    12    1
     7    16    13    1
     8    21    20    1
     9    14    13    1
    10    14    19   am
    11    20    19    1
    12    20    23    1
    13    12    13    1
    14    12     3   am
    15     1     2    1
    16     2     3    1
    17     2     5    1
    18     3     4    2
    19     7     9   ar
    20     7     6   ar
    21    23    24    1
    22     9    11   ar
    23    24    25    1
    24     5     6    1
    25     6     8   ar
    26    11    10   ar
    27    25    26    1
    28     8    10   ar
    29    26    27    2
    30    27    29    1
    31    27    28    1
