@<TRIPOS>MOLECULE
1shj_NXN_A_1.pdb
 16 16 0 0 0
SMALL
GASTEIGER

@<TRIPOS>ATOM
      1  O17       48.1480   16.5350    1.7180 O.2   401  NXN401     -0.2693
      2  C12       49.3660   16.4580    1.8460 C.2   401  NXN401      0.2859
      3  N1        50.0070   16.5390    3.0240 N.am  401  NXN401     -0.2013
      4  C14       49.4110   17.0470    4.2540 C.3   401  NXN401      0.1278
      5  C15       50.2470   16.6520    5.4650 C.3   401  NXN401      0.0920
      6  S19       51.4140   17.9850    5.8010 S.3   401  NXN401     -0.0802
      7  C9        50.2500   16.2680    0.6310 C.3   401  NXN401      0.2912
      8  O18       51.4800   16.9400    0.9100 O.3   401  NXN401     -0.4647
      9  C10       52.6240   16.8660    0.1490 C.ar  401  NXN401      0.1498
     10  C6        52.6920   16.1130   -1.0260 C.ar  401  NXN401      0.0387
     11  C5        53.8780   16.0720   -1.7560 C.ar  401  NXN401      0.0146
     12  C8        53.7430   17.5710    0.5770 C.ar  401  NXN401      0.0924
     13 CL4        53.6930   18.5450    2.0700 Cl    401  NXN401     -0.0791
     14  C11       54.9230   17.5350   -0.1390 C.ar  401  NXN401      0.0258
     15  C16       54.9730   16.7890   -1.2980 C.ar  401  NXN401      0.0587
     16 CL3        56.5020   16.7620   -2.1940 Cl    401  NXN401     -0.0822
@<TRIPOS>BOND
     1    16    15    1
     2    11    15   ar
     3    11    10   ar
     4    15    14   ar
     5    10     9   ar
     6    14    12   ar
     7     9    12   ar
     8     9     8    1
     9    12    13    1
    10     7     8    1
    11     7     2    1
    12     1     2    2
    13     2     3   am
    14     3     4    1
    15     4     5    1
    16     5     6    1
