@<TRIPOS>MOLECULE
1shl_FXN_A_1.pdb
 16 17 0 0 0
SMALL
GASTEIGER

@<TRIPOS>ATOM
      1  F18       53.3520    9.5660   11.7250 F     401  FXN401     -0.2042
      2  C10       53.2710   10.3260   10.6190 C.ar  401  FXN401      0.1403
      3  C6        52.0830   11.0230   10.3420 C.ar  401  FXN401      0.0323
      4  C11       54.3890   10.3990    9.7690 C.ar  401  FXN401      0.0323
      5  C8        54.3650   11.1650    8.6010 C.ar  401  FXN401      0.0344
      6  C12       53.1780   11.8450    8.3300 C.ar  401  FXN401      0.1318
      7  N1        52.8890   12.6560    7.2290 N.2   401  FXN401     -0.3972
      8  C16       52.0730   11.7780    9.1720 C.ar  401  FXN401      0.0345
      9  C5        51.0830   12.5660    8.5890 C.2   401  FXN401      0.0394
     10  C13       51.5760   13.1030    7.4040 C.2   401  FXN401      0.1862
     11  C7        50.9230   13.9870    6.4350 C.2   401  FXN401      0.2945
     12  O17       51.5470   14.3230    5.4320 O.2   401  FXN401     -0.2656
     13  N3        49.6770   14.4250    6.6470 N.am  401  FXN401     -0.1985
     14  C14       49.3000   15.7250    6.1340 C.3   401  FXN401      0.1280
     15  C9        50.5080   16.6530    6.2290 C.3   401  FXN401      0.0921
     16  S19       49.8620   18.3210    6.1400 S.3   401  FXN401     -0.0802
@<TRIPOS>BOND
     1    12    11    2
     2    14    15    1
     3    14    13    1
     4    16    15    1
     5    11    13   am
     6    11    10    1
     7     7    10    2
     8     7     6    2
     9    10     9    1
    10     6     5   ar
    11     6     8   ar
    12     9     8    2
    13     5     4   ar
    14     8     3   ar
    15     4     2   ar
    16     3     2   ar
    17     2     1    1
