@<TRIPOS>MOLECULE
1shr_HEM_A_1.pdb
 43 50 0 0 0
SMALL
GASTEIGER

@<TRIPOS>ATOM
      1 FE          3.5720  -13.6210    5.4530 Fe    142  HEM142      0.0000
      2  CHA        1.1490  -15.9720    4.8410 C.2   142  HEM142      0.0000
      3  CHB        2.9110  -12.1620    2.3730 C.2   142  HEM142      0.0000
      4  CHC        5.9970  -11.2410    5.9830 C.2   142  HEM142      0.0000
      5  CHD        4.3150  -15.0530    8.4370 C.2   142  HEM142      0.0000
      6  NA         2.2770  -13.9900    3.8970 N.ar  142  HEM142      0.0000
      7  C1A        1.3640  -15.0270    3.8280 C.ar  142  HEM142      0.0000
      8  C2A        0.6740  -14.9830    2.5660 C.ar  142  HEM142      0.0000
      9  C3A        1.1580  -13.9190    1.8740 C.ar  142  HEM142      0.0000
     10  C4A        2.1670  -13.2940    2.7100 C.ar  142  HEM142      0.0000
     11  CMA        0.7740  -13.4120    0.4740 C.3   142  HEM142      0.0000
     12  CAA       -0.3330  -15.9610    2.0210 C.3   142  HEM142      0.0000
     13  CBA       -1.8260  -15.7740    2.1530 C.3   142  HEM142      0.0000
     14  CGA       -2.5700  -16.9070    1.4610 C.2   142  HEM142      0.0000
     15  O1A       -2.7630  -16.8080    0.2330 O.co2 142  HEM142      0.0000
     16  O2A       -2.9470  -17.8940    2.1380 O.co2 142  HEM142      0.0000
     17  NB         4.3060  -11.9950    4.3830 N.2   142  HEM142      0.0000
     18  C1B        3.8920  -11.5540    3.1470 C.2   142  HEM142      0.0000
     19  C2B        4.6240  -10.3750    2.7660 C.2   142  HEM142      0.0000
     20  C3B        5.5000  -10.1020    3.7930 C.2   142  HEM142      0.0000
     21  C4B        5.2920  -11.1340    4.7940 C.2   142  HEM142      0.0000
     22  CMB        4.4770   -9.5670    1.4820 C.3   142  HEM142      0.0000
     23  CAB        6.4310   -8.9940    3.8170 C.3   142  HEM142      0.0000
     24  CBB        7.4380   -8.5240    2.8420 C.3   142  HEM142      0.0000
     25  NC         4.9100  -13.2110    6.9300 N.ar  142  HEM142      0.0000
     26  C1C        5.8330  -12.1990    6.9590 C.ar  142  HEM142      0.0000
     27  C2C        6.6320  -12.3050    8.1570 C.ar  142  HEM142      0.0000
     28  C3C        6.1550  -13.3800    8.8610 C.ar  142  HEM142      0.0000
     29  C4C        5.0780  -13.9390    8.0830 C.ar  142  HEM142      0.0000
     30  CMC        7.7890  -11.4070    8.5730 C.3   142  HEM142      0.0000
     31  CAC        6.6130  -13.8530   10.0790 C.3   142  HEM142      0.0000
     32  CBC        7.8880  -14.4770   10.2340 C.3   142  HEM142      0.0000
     33  ND         2.8540  -15.2060    6.4610 N.2   142  HEM142      0.0000
     34  C1D        3.2840  -15.6300    7.6940 C.2   142  HEM142      0.0000
     35  C2D        2.5090  -16.7770    8.1010 C.2   142  HEM142      0.0000
     36  C3D        1.6090  -17.0350    7.1060 C.2   142  HEM142      0.0000
     37  C4D        1.8340  -16.0470    6.0650 C.2   142  HEM142      0.0000
     38  CMD        2.6720  -17.5440    9.4040 C.3   142  HEM142      0.0000
     39  CAD        0.5690  -18.1150    7.0600 C.3   142  HEM142      0.0000
     40  CBD        1.2140  -19.3870    6.6040 C.3   142  HEM142      0.0000
     41  CGD        0.2040  -20.5060    6.5660 C.2   142  HEM142      0.0000
     42  O1D       -0.4230  -20.7040    5.5010 O.co2 142  HEM142      0.0000
     43  O2D        0.0430  -21.1770    7.6120 O.co2 142  HEM142      0.0000
@<TRIPOS>BOND
     1    15    14   ar
     2    11     9    1
     3    14    16   ar
     4    14    13    1
     5    22    19    1
     6     9     8   ar
     7     9    10   ar
     8    12    13    1
     9    12     8    1
    10     3    10    2
    11     3    18    1
    12     8     7   ar
    13    10     6   ar
    14    19    18    1
    15    19    20    2
    16    24    23    1
    17    18    17    2
    18    20    23    1
    19    20    21    1
    20     7     6   ar
    21     7     2    2
    22     6     1    1
    23    17    21    1
    24    17     1    1
    25    21     4    2
    26     2    37    1
    27     1    33    1
    28     1    25    1
    29    42    41   ar
    30     4    26    1
    31    37    33    2
    32    37    36    1
    33    33    34    1
    34    41    40    1
    35    41    43   ar
    36    40    39    1
    37    25    26   ar
    38    25    29   ar
    39    26    27   ar
    40    39    36    1
    41    36    35    2
    42    34    35    1
    43    34     5    2
    44    29     5    1
    45    29    28   ar
    46    35    38    1
    47    27    30    1
    48    27    28   ar
    49    28    31    1
    50    31    32    1
