@<TRIPOS>MOLECULE
1shv_MA4_A_1.pdb
 35 37 0 0 0
SMALL
GASTEIGER

@<TRIPOS>ATOM
      1  C1        35.9640   25.1360    2.6590 C.3   300  MA4300      0.2695
      2  C2        36.4730   24.5300    1.5020 C.3   300  MA4300      0.2406
      3  C3        36.3770   23.1260    1.4080 C.3   300  MA4300      0.2198
      4  C4        36.5770   22.3850    2.5760 C.3   300  MA4300      0.2144
      5  C5        36.2570   22.9650    3.8240 C.3   300  MA4300      0.1835
      6  C6        36.7900   22.3510    5.1020 C.3   300  MA4300      0.2142
      7  O2        35.9540   25.1830    0.3360 O.3   300  MA4300     -0.2149
      8  O3        37.1760   22.5820    0.3420 O.3   300  MA4300     -0.2174
      9  O5        36.4560   24.4380    3.8380 O.3   300  MA4300     -0.3256
     10  O6        38.2070   22.5120    5.1540 O.3   300  MA4300     -0.2176
     11  O1        34.5370   25.0360    2.6480 O.3   300  MA4300     -0.3257
     12  O4        35.9430   21.0990    2.4590 O.3   300  MA4300     -0.2176
     13  C10       31.3800   27.5520    3.0960 C.3   300  MA4300      0.2695
     14  C20       32.2290   27.7070    1.9790 C.3   300  MA4300      0.2404
     15  C30       33.2220   26.7450    1.7720 C.3   300  MA4300      0.2167
     16  C40       33.9260   26.2970    2.9040 C.3   300  MA4300      0.1804
     17  C50       33.2660   26.2710    4.1580 C.3   300  MA4300      0.1803
     18  C60       34.0500   26.1160    5.4480 C.3   300  MA4300      0.2141
     19  O10       30.5430   28.7300    3.2720 O.3   300  MA4300     -0.3286
     20  O20       31.5140   27.9910    0.7760 O.3   300  MA4300     -0.2149
     21  O30       34.1110   27.1420    0.7030 O.3   300  MA4300     -0.2175
     22  O50       32.2150   27.3140    4.3050 O.3   300  MA4300     -0.3257
     23  O60       34.8150   27.2830    5.7100 O.3   300  MA4300     -0.2176
     24  C11       29.5880   28.5340    4.3240 C.3   300  MA4300      0.1449
     25  C21       28.1840   28.7090    3.7590 C.3   300  MA4300      0.0322
     26  C31       27.1900   28.8350    4.9040 C.3   300  MA4300      0.0026
     27  C41       25.8540   28.2200    4.4830 C.3   300  MA4300      0.0001
     28  C51       25.1990   27.5710    5.6990 C.3   300  MA4300      0.0000
     29  C61       23.8740   28.2810    6.0000 C.3   300  MA4300      0.0000
     30  C12       23.2710   27.7270    7.2960 C.3   300  MA4300      0.0000
     31  C22       24.3080   27.8230    8.4300 C.3   300  MA4300      0.0000
     32  C32       23.9420   26.8720    9.5820 C.3   300  MA4300      0.0000
     33  C42       22.4370   26.5580    9.5600 C.3   300  MA4300      0.0000
     34  C52       22.0820   25.7450    8.3070 C.3   300  MA4300      0.0000
     35  C62       22.8610   26.2610    7.0870 C.3   300  MA4300      0.0000
@<TRIPOS>BOND
     1     7     2    1
     2     8     3    1
     3    21    15    1
     4    20    14    1
     5     3     2    1
     6     3     4    1
     7     2     1    1
     8    15    14    1
     9    15    16    1
    10    14    13    1
    11    12     4    1
    12     4     5    1
    13    11     1    1
    14    11    16    1
    15     1     9    1
    16    16    17    1
    17    13    19    1
    18    13    22    1
    19    19    24    1
    20    25    24    1
    21    25    26    1
    22     5     9    1
    23     5     6    1
    24    17    22    1
    25    17    18    1
    26    27    26    1
    27    27    28    1
    28     6    10    1
    29    18    23    1
    30    28    29    1
    31    29    30    1
    32    35    30    1
    33    35    34    1
    34    30    31    1
    35    34    33    1
    36    31    32    1
    37    33    32    1
