@<TRIPOS>MOLECULE
1shz_GDP_A_1.pdb
 28 30 0 0 0
SMALL
GASTEIGER

@<TRIPOS>ATOM
      1  PB        49.9780    2.8840   27.9060 P.3   475  GDP475      0.5373
      2  O1B       51.1480    1.9110   28.0180 O.3   475  GDP475     -0.1143
      3  O2B       49.8580    3.9810   28.8870 O.3   475  GDP475     -0.1143
      4  O3B       49.7860    3.5040   26.5620 O.2   475  GDP475     -0.2221
      5  O3A       48.6310    1.9280   28.0640 O.3   475  GDP475     -0.2261
      6  PA        47.3420    2.5590   28.7810 P.3   475  GDP475      0.2231
      7  O1A       47.8070    2.7840   30.1540 O.3   475  GDP475     -0.4370
      8  O2A       46.7290    3.7720   28.2470 O.2   475  GDP475     -0.5169
      9  O5'       46.2940    1.3890   28.6740 O.3   475  GDP475     -0.3111
     10  C5'       45.7700    0.9350   27.5090 C.3   475  GDP475      0.1813
     11  C4'       44.2670    0.6670   27.6330 C.3   475  GDP475      0.1799
     12  O4'       43.9840   -0.6070   28.1760 O.3   475  GDP475     -0.3326
     13  C3'       43.4730    1.6180   28.4250 C.3   475  GDP475      0.2158
     14  O3'       42.1630    1.5680   27.9650 O.3   475  GDP475     -0.2175
     15  C2'       43.4210    0.8920   29.7930 C.3   475  GDP475      0.2310
     16  O2'       42.1300    1.0290   30.3740 O.3   475  GDP475     -0.2158
     17  C1'       43.3870   -0.5600   29.5000 C.3   475  GDP475      0.2293
     18  N9        44.1680   -1.5570   30.3700 N.pl3 475  GDP475     -0.2354
     19  C8        45.4230   -1.5510   30.8840 C.3   475  GDP475      0.2246
     20  N7        45.8430   -2.6290   31.4470 N.2   475  GDP475     -0.2322
     21  C5        44.7520   -3.4430   31.3180 C.2   475  GDP475      0.2182
     22  C6        44.5720   -4.7900   31.7520 C.1   475  GDP475      0.2372
     23  O6        45.3790   -5.4950   32.3650 O.2   475  GDP475     -0.2069
     24  N1        43.2910   -5.2670   31.3960 N.2   475  GDP475     -0.2485
     25  C2        42.3160   -4.5370   30.7090 C.1   475  GDP475      0.2531
     26  N2        41.1800   -5.0880   30.3870 N.pl3 475  GDP475     -0.0226
     27  N3        42.4820   -3.2880   30.3260 N.2   475  GDP475     -0.3074
     28  C4        43.7250   -2.8050   30.6700 C.2   475  GDP475      0.2300
@<TRIPOS>BOND
     1     4     1    2
     2    10    11    1
     3    10     9    1
     4    11    12    1
     5    11    13    1
     6     1     2    1
     7     1     5    1
     8     1     3    1
     9    14    13    1
    10     5     6    1
    11    12    17    1
    12     8     6    2
    13    13    15    1
    14     9     6    1
    15     6     7    1
    16    17    15    1
    17    17    18    1
    18    15    16    1
    19    27    28    2
    20    27    25    2
    21    18    28    1
    22    18    19    1
    23    26    25    1
    24    28    21    1
    25    25    24    2
    26    19    20    1
    27    21    20    2
    28    21    22    1
    29    24    22    2
    30    22    23    2
