@<TRIPOS>MOLECULE
1si4_HEM_A_1.pdb
 43 50 0 0 0
SMALL
GASTEIGER

@<TRIPOS>ATOM
      1 FE         12.1580    6.5110   23.0280 Fe    142  HEM142      0.0000
      2  CHA       12.2270    6.9650   19.6020 C.2   142  HEM142      0.0000
      3  CHB        9.0590    4.9950   22.7220 C.2   142  HEM142      0.0000
      4  CHC       12.0060    6.0090   26.4420 C.2   142  HEM142      0.0000
      5  CHD       15.1720    8.0070   23.3920 C.2   142  HEM142      0.0000
      6  NA        10.8870    6.0840   21.4590 N.ar  142  HEM142      0.0000
      7  C1A       11.0830    6.3480   20.1120 C.ar  142  HEM142      0.0000
      8  C2A        9.9380    5.8990   19.3380 C.ar  142  HEM142      0.0000
      9  C3A        9.0570    5.3480   20.2190 C.ar  142  HEM142      0.0000
     10  C4A        9.6450    5.4600   21.5400 C.ar  142  HEM142      0.0000
     11  CMA        7.6790    4.7160   19.9620 C.3   142  HEM142      0.0000
     12  CAA        9.6930    6.0290   17.8470 C.3   142  HEM142      0.0000
     13  CBA        9.9780    4.9090   16.8540 C.3   142  HEM142      0.0000
     14  CGA        9.6720    5.3210   15.4130 C.2   142  HEM142      0.0000
     15  O1A        8.6210    4.8890   14.8900 O.co2 142  HEM142      0.0000
     16  O2A       10.4770    6.0740   14.8060 O.co2 142  HEM142      0.0000
     17  NB        10.8070    5.6650   24.3310 N.2   142  HEM142      0.0000
     18  C1B        9.5850    5.0910   24.0090 C.2   142  HEM142      0.0000
     19  C2B        8.9330    4.5880   25.1900 C.2   142  HEM142      0.0000
     20  C3B        9.7630    4.8600   26.2530 C.2   142  HEM142      0.0000
     21  C4B       10.9270    5.5490   25.6980 C.2   142  HEM142      0.0000
     22  CMB        7.5790    3.8840   25.2680 C.3   142  HEM142      0.0000
     23  CAB        9.4770    4.5450   27.6260 C.3   142  HEM142      0.0000
     24  CBB        8.9310    3.3330   28.2830 C.3   142  HEM142      0.0000
     25  NC        13.3460    6.9350   24.6400 N.ar  142  HEM142      0.0000
     26  C1C       13.1210    6.6620   25.9600 C.ar  142  HEM142      0.0000
     27  C2C       14.2160    7.1620   26.7730 C.ar  142  HEM142      0.0000
     28  C3C       15.1220    7.7380   25.9200 C.ar  142  HEM142      0.0000
     29  C4C       14.5720    7.5780   24.5800 C.ar  142  HEM142      0.0000
     30  CMC       14.3520    7.0730   28.2890 C.3   142  HEM142      0.0000
     31  CAC       16.3330    8.3540   26.2520 C.3   142  HEM142      0.0000
     32  CBC       16.4560    9.4970   27.1170 C.3   142  HEM142      0.0000
     33  ND        13.4510    7.3100   21.7440 N.2   142  HEM142      0.0000
     34  C1D       14.6630    7.8860   22.0900 C.2   142  HEM142      0.0000
     35  C2D       15.3330    8.3350   20.8910 C.2   142  HEM142      0.0000
     36  C3D       14.5150    8.0440   19.8360 C.2   142  HEM142      0.0000
     37  C4D       13.3280    7.4080   20.3670 C.2   142  HEM142      0.0000
     38  CMD       16.6980    9.0140   20.8200 C.3   142  HEM142      0.0000
     39  CAD       14.7480    8.3050   18.3840 C.3   142  HEM142      0.0000
     40  CBD       14.4370    9.7470   18.1650 C.3   142  HEM142      0.0000
     41  CGD       14.6390   10.1470   16.7440 C.2   142  HEM142      0.0000
     42  O1D       13.6220   10.4930   16.0990 O.co2 142  HEM142      0.0000
     43  O2D       15.8070   10.1220   16.2830 O.co2 142  HEM142      0.0000
@<TRIPOS>BOND
     1    16    14   ar
     2    15    14   ar
     3    14    13    1
     4    42    41   ar
     5    43    41   ar
     6    41    40    1
     7    13    12    1
     8    12     8    1
     9    40    39    1
    10    39    36    1
    11     8     7   ar
    12     8     9   ar
    13     2     7    2
    14     2    37    1
    15    36    37    1
    16    36    35    2
    17    11     9    1
    18     7     6   ar
    19     9    10   ar
    20    37    33    2
    21    38    35    1
    22    35    34    1
    23     6    10   ar
    24     6     1    1
    25    10     3    2
    26    33    34    1
    27    33     1    1
    28    34     5    2
    29     3    18    1
    30     1    17    1
    31     1    25    1
    32     5    29    1
    33    18    17    2
    34    18    19    1
    35    17    21    1
    36    29    25   ar
    37    29    28   ar
    38    25    26   ar
    39    19    22    1
    40    19    20    2
    41    21    20    1
    42    21     4    2
    43    28    31    1
    44    28    27   ar
    45    26     4    1
    46    26    27   ar
    47    31    32    1
    48    20    23    1
    49    27    30    1
    50    23    24    1
