@<TRIPOS>MOLECULE
1si6_HEM_X_1.pdb
 43 50 0 0 0
SMALL
GASTEIGER

@<TRIPOS>ATOM
      1 FE         10.1420   18.8340    4.4220 Fe    300  HEM300      0.0000
      2  CHA        7.6160   20.7860    3.1860 C.2   300  HEM300      0.0000
      3  CHB        7.8090   16.6390    5.7700 C.2   300  HEM300      0.0000
      4  CHC       12.6570   16.7290    5.3610 C.2   300  HEM300      0.0000
      5  CHD       12.4820   21.0410    3.2860 C.2   300  HEM300      0.0000
      6  NA         8.1230   18.7310    4.4620 N.2   300  HEM300      0.0000
      7  C1A        7.2440   19.6380    3.8550 C.2   300  HEM300      0.0000
      8  C2A        5.8830   19.1710    4.0960 C.2   300  HEM300      0.0000
      9  C3A        5.9320   18.0390    4.8300 C.2   300  HEM300      0.0000
     10  C4A        7.3130   17.7580    5.0410 C.2   300  HEM300      0.0000
     11  CMA        4.7860   17.1550    5.3260 C.3   300  HEM300      0.0000
     12  CAA        4.6200   19.8810    3.5400 C.3   300  HEM300      0.0000
     13  CBA        4.3300   19.1530    2.2110 C.3   300  HEM300      0.0000
     14  CGA        3.1040   19.6940    1.4680 C.2   300  HEM300      0.0000
     15  O1A        3.2670   20.7300    0.8260 O.co2 300  HEM300      0.0000
     16  O2A        2.0260   19.0870    1.5540 O.co2 300  HEM300      0.0000
     17  NB        10.2420   17.0210    5.3900 N.ar  300  HEM300      0.0000
     18  C1B        9.1410   16.3180    5.8370 C.ar  300  HEM300      0.0000
     19  C2B        9.6490   15.1570    6.5080 C.ar  300  HEM300      0.0000
     20  C3B       10.9820   15.1810    6.3890 C.ar  300  HEM300      0.0000
     21  C4B       11.3930   16.3490    5.6870 C.ar  300  HEM300      0.0000
     22  CMB        8.6740   14.1690    7.1330 C.3   300  HEM300      0.0000
     23  CAB       11.9530   14.1660    6.9750 C.2   300  HEM300      0.0000
     24  CBB       12.3710   13.1280    6.2910 C.2   300  HEM300      0.0000
     25  NC        12.2540   18.8510    4.3040 N.2   300  HEM300      0.0000
     26  C1C       13.0960   17.9090    4.8180 C.2   300  HEM300      0.0000
     27  C2C       14.4380   18.3900    4.6250 C.2   300  HEM300      0.0000
     28  C3C       14.3590   19.5720    4.0600 C.2   300  HEM300      0.0000
     29  C4C       12.9880   19.8920    3.8500 C.2   300  HEM300      0.0000
     30  CMC       15.7200   17.6740    5.0320 C.3   300  HEM300      0.0000
     31  CAC       15.5620   20.4120    3.7050 C.2   300  HEM300      0.0000
     32  CBC       16.1630   21.2420    4.5140 C.2   300  HEM300      0.0000
     33  ND        10.0340   20.5970    3.3320 N.ar  300  HEM300      0.0000
     34  C1D       11.1650   21.3610    3.0870 C.ar  300  HEM300      0.0000
     35  C2D       10.7260   22.6270    2.5280 C.ar  300  HEM300      0.0000
     36  C3D        9.2460   22.5640    2.4800 C.ar  300  HEM300      0.0000
     37  C4D        8.8670   21.2800    3.0210 C.ar  300  HEM300      0.0000
     38  CMD       11.5880   23.8100    2.0440 C.3   300  HEM300      0.0000
     39  CAD        8.3400   23.6860    1.9580 C.3   300  HEM300      0.0000
     40  CBD        8.5850   23.8210    0.4590 C.3   300  HEM300      0.0000
     41  CGD        7.4900   24.6860   -0.1320 C.2   300  HEM300      0.0000
     42  O1D        7.5960   24.8810   -1.3900 O.co2 300  HEM300      0.0000
     43  O2D        6.5810   25.1490    0.6530 O.co2 300  HEM300      0.0000
@<TRIPOS>BOND
     1    42    41   ar
     2    41    40    1
     3    41    43   ar
     4    40    39    1
     5    15    14   ar
     6    14    16   ar
     7    14    13    1
     8    39    36    1
     9    38    35    1
    10    13    12    1
    11    36    35   ar
    12    36    37   ar
    13    35    34   ar
    14    37     2    2
    15    37    33   ar
    16    34     5    2
    17    34    33   ar
    18     2     7    1
    19     5    29    1
    20    33     1    1
    21    12     8    1
    22    31    28    1
    23    31    32    2
    24    29    28    1
    25    29    25    2
    26     7     8    1
    27     7     6    2
    28    28    27    2
    29     8     9    2
    30    25     1    1
    31    25    26    1
    32     1     6    1
    33     1    17    1
    34     6    10    1
    35    27    26    1
    36    27    30    1
    37    26     4    2
    38     9    10    1
    39     9    11    1
    40    10     3    2
    41     4    21    1
    42    17    21   ar
    43    17    18   ar
    44    21    20   ar
    45     3    18    1
    46    18    19   ar
    47    24    23    2
    48    20    19   ar
    49    20    23    1
    50    19    22    1
