@<TRIPOS>MOLECULE
1si8_HEM_A_1.pdb
 43 50 0 0 0
SMALL
GASTEIGER

@<TRIPOS>ATOM
      1  CHA       54.2080   50.7330   13.0220 C.2   501  HEM501      0.0000
      2  CHB       53.1950   48.5150    8.7290 C.2   501  HEM501      0.0000
      3  CHC       48.8050   50.7420    8.6080 C.2   501  HEM501      0.0000
      4  CHD       49.7540   52.8330   12.9660 C.2   501  HEM501      0.0000
      5  C1A       54.3030   49.9260   11.8760 C.ar  501  HEM501      0.0000
      6  C2A       55.3840   49.1050   11.5400 C.ar  501  HEM501      0.0000
      7  C3A       55.0830   48.5180   10.3410 C.ar  501  HEM501      0.0000
      8  C4A       53.8390   48.9320    9.9020 C.ar  501  HEM501      0.0000
      9  CMA       55.9900   47.5140    9.6060 C.3   501  HEM501      0.0000
     10  CAA       56.6360   48.8430   12.3970 C.3   501  HEM501      0.0000
     11  CBA       56.3180   47.8120   13.4910 C.3   501  HEM501      0.0000
     12  CGA       57.5450   47.4560   14.3470 C.2   501  HEM501      0.0000
     13  O1A       57.3380   47.2040   15.5500 O.co2 501  HEM501      0.0000
     14  O2A       58.6530   47.4210   13.7770 O.co2 501  HEM501      0.0000
     15  C1B       51.9320   48.9540    8.3170 C.2   501  HEM501      0.0000
     16  C2B       51.2610   48.5650    7.1640 C.2   501  HEM501      0.0000
     17  C3B       50.0620   49.2250    7.1000 C.2   501  HEM501      0.0000
     18  C4B       49.9450   50.0250    8.2260 C.2   501  HEM501      0.0000
     19  CMB       51.7600   47.4990    6.1680 C.3   501  HEM501      0.0000
     20  CAB       49.0710   49.1210    6.0960 C.3   501  HEM501      0.0000
     21  CBB       49.2110   48.3100    4.9770 C.3   501  HEM501      0.0000
     22  C1C       48.7110   51.5330    9.7540 C.ar  501  HEM501      0.0000
     23  C2C       47.5830   52.2320   10.1660 C.ar  501  HEM501      0.0000
     24  C3C       47.8200   52.7760   11.4010 C.ar  501  HEM501      0.0000
     25  C4C       49.1260   52.4590   11.7750 C.ar  501  HEM501      0.0000
     26  CMC       46.2980   52.3930    9.3350 C.3   501  HEM501      0.0000
     27  CAC       46.8730   53.3890   12.2590 C.3   501  HEM501      0.0000
     28  CBC       45.5260   53.5060   11.9400 C.3   501  HEM501      0.0000
     29  C1D       51.0630   52.4870   13.3130 C.2   501  HEM501      0.0000
     30  C2D       51.7110   52.8480   14.4770 C.2   501  HEM501      0.0000
     31  C3D       52.9570   52.2880   14.5120 C.2   501  HEM501      0.0000
     32  C4D       53.1080   51.5410   13.3370 C.2   501  HEM501      0.0000
     33  CMD       51.1020   53.7180   15.5930 C.3   501  HEM501      0.0000
     34  CAD       54.0060   52.4750   15.6190 C.3   501  HEM501      0.0000
     35  CBD       53.9120   51.3620   16.6610 C.3   501  HEM501      0.0000
     36  CGD       54.9810   51.5360   17.7420 C.2   501  HEM501      0.0000
     37  O1D       54.9430   52.5950   18.4200 O.co2 501  HEM501      0.0000
     38  O2D       55.8110   50.6050   17.8710 O.co2 501  HEM501      0.0000
     39  NA        53.4040   49.7850   10.8630 N.ar  501  HEM501      0.0000
     40  NB        51.1000   49.8380    8.9240 N.2   501  HEM501      0.0000
     41  NC        49.6220   51.7020   10.7510 N.ar  501  HEM501      0.0000
     42  ND        51.9460   51.6940   12.6530 N.2   501  HEM501      0.0000
     43 FE         51.4870   50.7080   10.8340 Fe    501  HEM501      0.0000
@<TRIPOS>BOND
     1    21    20    1
     2    20    17    1
     3    19    16    1
     4    17    16    2
     5    17    18    1
     6    16    15    1
     7    18     3    2
     8    18    40    1
     9    15     2    1
    10    15    40    2
    11     3    22    1
    12     2     8    2
    13    40    43    1
    14    26    23    1
    15     9     7    1
    16    22    23   ar
    17    22    41   ar
    18     8     7   ar
    19     8    39   ar
    20    23    24   ar
    21     7     6   ar
    22    41    43    1
    23    41    25   ar
    24    43    39    1
    25    43    42    1
    26    39     5   ar
    27    24    25   ar
    28    24    27    1
    29     6     5   ar
    30     6    10    1
    31    25     4    1
    32     5     1    2
    33    28    27    1
    34    10    11    1
    35    42    29    1
    36    42    32    2
    37     4    29    2
    38     1    32    1
    39    29    30    1
    40    32    31    1
    41    11    12    1
    42    14    12   ar
    43    12    13   ar
    44    30    31    2
    45    30    33    1
    46    31    34    1
    47    34    35    1
    48    35    36    1
    49    36    38   ar
    50    36    37   ar
