@<TRIPOS>MOLECULE
1sid_SIA_A_1.pdb
 20 20 0 0 0
SMALL
GASTEIGER

@<TRIPOS>ATOM
      1  C1         8.1110   28.3200  241.4830 C.2   384  SIA384      0.3914
      2  C2         9.3770   28.4460  242.3500 C.3   384  SIA384      0.2203
      3  C3        10.3920   29.3680  241.6880 C.3   384  SIA384      0.0760
      4  C4         9.9400   30.8100  241.6680 C.3   384  SIA384      0.1773
      5  C5         9.5150   31.2290  243.0600 C.3   384  SIA384      0.1552
      6  C6         8.4240   30.2720  243.4850 C.3   384  SIA384      0.1710
      7  C7         7.7150   30.6400  244.7730 C.3   384  SIA384      0.2134
      8  C8         6.3510   29.9270  244.7760 C.3   384  SIA384      0.2173
      9  C9         5.5730   30.1810  246.0670 C.3   384  SIA384      0.2175
     10  C10        9.8020   33.5980  243.4050 C.2   384  SIA384      0.2420
     11  C11        9.2200   34.9970  243.2740 C.3   384  SIA384      0.0964
     12  N5         9.0300   32.5950  242.9940 N.am  384  SIA384     -0.2020
     13  O1A        8.2030   28.3610  240.2550 O.co2 384  SIA384     -0.2430
     14  O1B        7.0040   28.1810  242.0370 O.co2 384  SIA384     -0.2430
     15  O4        10.9990   31.6430  241.2260 O.3   384  SIA384     -0.2211
     16  O6         8.9820   28.9570  243.6080 O.3   384  SIA384     -0.3429
     17  O7         8.5070   30.2250  245.8790 O.3   384  SIA384     -0.2176
     18  O8         5.5650   30.3740  243.6730 O.3   384  SIA384     -0.2175
     19  O9         4.2340   29.7180  245.9100 O.3   384  SIA384     -0.2175
     20  O10       10.9180   33.4180  243.9010 O.2   384  SIA384     -0.2733
@<TRIPOS>BOND
     1    13     1   ar
     2    15     4    1
     3     1    14   ar
     4     1     2    1
     5     4     3    1
     6     4     5    1
     7     3     2    1
     8     2    16    1
     9    12     5    1
    10    12    10   am
    11     5     6    1
    12    11    10    1
    13    10    20    2
    14     6    16    1
    15     6     7    1
    16    18     8    1
    17     7     8    1
    18     7    17    1
    19     8     9    1
    20    19     9    1
