@<TRIPOS>MOLECULE
1sid_GAL_A_1.pdb
 11 11 0 0 0
SMALL
GASTEIGER

@<TRIPOS>ATOM
      1  C1         8.2740   24.4680  244.2940 C.3   385  GAL385      0.1777
      2  C2         9.3220   25.5720  244.1680 C.3   385  GAL385      0.2141
      3  C3         9.1070   26.1280  242.7830 C.3   385  GAL385      0.2173
      4  C4         9.3570   25.0550  241.7310 C.3   385  GAL385      0.2142
      5  C5         8.4000   23.8920  241.9810 C.3   385  GAL385      0.1810
      6  C6         8.6100   22.6860  241.0780 C.3   385  GAL385      0.2141
      7  O2         9.1260   26.5950  245.1390 O.3   385  GAL385     -0.2176
      8  O3         9.9770   27.2300  242.5630 O.3   385  GAL385     -0.2175
      9  O4        10.7050   24.6130  241.8160 O.3   385  GAL385     -0.2176
     10  O5         8.5410   23.4340  243.3360 O.3   385  GAL385     -0.3481
     11  O6         7.5240   21.7690  241.1890 O.3   385  GAL385     -0.2176
@<TRIPOS>BOND
     1     6    11    1
     2     6     5    1
     3     4     9    1
     4     4     5    1
     5     4     3    1
     6     5    10    1
     7     8     3    1
     8     3     2    1
     9    10     1    1
    10     2     1    1
    11     2     7    1
