@<TRIPOS>MOLECULE
1sie_GAL_A_1.pdb
 11 11 0 0 0
SMALL
GASTEIGER

@<TRIPOS>ATOM
      1  C1         8.1710   24.4280  244.4150 C.3   385  GAL385      0.1777
      2  C2         9.3110   25.4360  244.1670 C.3   385  GAL385      0.2141
      3  C3         8.9850   26.0030  242.8030 C.3   385  GAL385      0.2173
      4  C4         9.0790   24.8910  241.7650 C.3   385  GAL385      0.2142
      5  C5         8.1300   23.7380  242.1090 C.3   385  GAL385      0.1810
      6  C6         8.3830   22.4980  241.2600 C.3   385  GAL385      0.2141
      7  O2         9.3700   26.4720  245.1460 O.3   385  GAL385     -0.2176
      8  O3         9.8790   27.0690  242.4680 O.3   385  GAL385     -0.2175
      9  O4        10.4090   24.4080  241.7240 O.3   385  GAL385     -0.2176
     10  O5         8.3040   23.3370  243.4840 O.3   385  GAL385     -0.3481
     11  O6         7.3430   21.5360  241.4230 O.3   385  GAL385     -0.2176
@<TRIPOS>BOND
     1     6    11    1
     2     6     5    1
     3     9     4    1
     4     4     5    1
     5     4     3    1
     6     5    10    1
     7     8     3    1
     8     3     2    1
     9    10     1    1
    10     2     1    1
    11     2     7    1
