@<TRIPOS>MOLECULE
1sie_SIA_A_1.pdb
 20 20 0 0 0
SMALL
GASTEIGER

@<TRIPOS>ATOM
      1  C1         8.0830   28.2800  241.3970 C.2   384  SIA384      0.3914
      2  C2         9.3190   28.3160  242.3010 C.3   384  SIA384      0.2203
      3  C3        10.3720   29.2540  241.7190 C.3   384  SIA384      0.0760
      4  C4         9.9220   30.7030  241.7660 C.3   384  SIA384      0.1773
      5  C5         9.4930   31.0110  243.1640 C.3   384  SIA384      0.1552
      6  C6         8.3560   30.0920  243.5090 C.3   384  SIA384      0.1710
      7  C7         7.7620   30.4790  244.8500 C.3   384  SIA384      0.2134
      8  C8         6.3620   29.8440  245.0490 C.3   384  SIA384      0.2173
      9  C9         5.4310   30.7610  245.8790 C.3   384  SIA384      0.2175
     10  C10        9.9960   33.2630  243.8040 C.2   384  SIA384      0.2420
     11  C11        9.5420   34.7080  243.9160 C.3   384  SIA384      0.0964
     12  N5         9.1190   32.4070  243.2840 N.am  384  SIA384     -0.2020
     13  O1A        8.1700   28.6280  240.2130 O.co2 384  SIA384     -0.2430
     14  O1B        6.9920   27.9590  241.8810 O.co2 384  SIA384     -0.2430
     15  O4        10.9980   31.5580  241.4170 O.3   384  SIA384     -0.2211
     16  O6         8.8790   28.7590  243.5670 O.3   384  SIA384     -0.3429
     17  O7         8.6540   30.0470  245.8720 O.3   384  SIA384     -0.2176
     18  O8         5.7510   29.5600  243.7920 O.3   384  SIA384     -0.2175
     19  O9         5.2680   32.0340  245.2490 O.3   384  SIA384     -0.2175
     20  O10       11.1300   32.9150  244.1620 O.2   384  SIA384     -0.2733
@<TRIPOS>BOND
     1    13     1   ar
     2     1    14   ar
     3     1     2    1
     4    15     4    1
     5     3     4    1
     6     3     2    1
     7     4     5    1
     8     2    16    1
     9     5    12    1
    10     5     6    1
    11    12    10   am
    12     6    16    1
    13     6     7    1
    14    18     8    1
    15    10    11    1
    16    10    20    2
    17     7     8    1
    18     7    17    1
    19     8     9    1
    20    19     9    1
