@<TRIPOS>MOLECULE
1sij_PCD_A_1.pdb
 47 52 0 0 0
SMALL
GASTEIGER

@<TRIPOS>ATOM
      1  N1        57.8270  -24.4820   23.3610 N.am  921  PCD921      0.0000
      2  C2        59.2410  -24.6470   23.3590 C.1   921  PCD921      0.0000
      3  N3        59.8230  -25.5480   24.1870 N.2   921  PCD921      0.0000
      4  C4        59.0610  -26.2990   25.0180 C.2   921  PCD921      0.0000
      5  C5        57.6760  -26.1440   25.0340 C.2   921  PCD921      0.0000
      6  C6        57.0740  -25.2260   24.1860 C.2   921  PCD921      0.0000
      7  O2        59.9720  -23.9690   22.6100 O.2   921  PCD921      0.0000
      8  N4        59.6470  -27.2000   25.8380 N.pl3 921  PCD921      0.0000
      9  C1'       57.1800  -23.5050   22.4810 C.3   921  PCD921      0.0000
     10  C2D       56.2740  -24.1770   21.4590 C.3   921  PCD921      0.0000
     11  O2'       56.9790  -24.4440   20.2660 O.3   921  PCD921      0.0000
     12  C3'       55.1540  -23.1670   21.2660 C.3   921  PCD921      0.0000
     13  C4D       55.0460  -22.4800   22.6140 C.3   921  PCD921      0.0000
     14  O4D       56.3190  -22.6550   23.2490 O.3   921  PCD921      0.0000
     15  O3'       55.5460  -22.1980   20.3080 O.3   921  PCD921      0.0000
     16  C5'       53.9420  -23.0840   23.4840 C.3   921  PCD921      0.0000
     17  O5'       53.8780  -24.5040   23.2970 O.3   921  PCD921      0.0000
     18  PA        52.8610  -25.3880   24.1680 P.3   921  PCD921      0.0000
     19  O1A       52.8710  -26.9040   23.6790 O.2   921  PCD921     -0.5000
     20  O2A       53.1810  -25.2860   25.7210 O.3   921  PCD921     -0.5000
     21  O3A       51.4530  -24.6390   23.9680 O.3   921  PCD921      0.0000
     22  PB        50.4980  -24.6660   22.6700 P.3   921  PCD921      0.0000
     23  O1B       49.5810  -25.9440   22.8190 O.3   921  PCD921     -0.5000
     24  O2B       51.2990  -24.5560   21.3120 O.2   921  PCD921     -0.5000
     25  O3B       49.6450  -23.3150   22.9030 O.3   921  PCD921      0.0000
     26  C10       48.5750  -23.2940   23.8470 C.3   921  PCD921      0.0000
     27  C9'       48.8930  -22.4720   25.1010 C.3   921  PCD921      0.0000
     28  C8'       47.5680  -22.1970   25.7690 C.2   921  PCD921      0.0000
     29  S8'       46.6070  -23.5290   26.1170 S.3   921  PCD921      0.0000
     30  C7'       47.1600  -20.9400   26.0570 C.2   921  PCD921      0.0000
     31  S7'       45.6840  -20.6390   26.7840 S.3   921  PCD921      0.0000
     32  C6'       48.0310  -19.7400   25.7980 C.3   921  PCD921      0.0000
     33  C7        49.4860  -20.2000   25.6030 C.3   921  PCD921      0.0000
     34  O9'       49.5620  -21.2770   24.6770 O.3   921  PCD921      0.0000
     35  N5'       47.5640  -18.7740   24.8090 N.2   921  PCD921      0.0000
     36  C4A       48.4510  -17.8790   24.3030 C.2   921  PCD921      0.0000
     37  N8'       50.3640  -19.1240   25.1620 N.2   921  PCD921      0.0000
     38  C4B       49.9060  -18.0590   24.4800 C.1   921  PCD921      0.0000
     39  N1'       50.7610  -17.1520   23.9530 N.2   921  PCD921      0.0000
     40  C2'       50.3070  -16.0810   23.2530 C.1   921  PCD921      0.0000
     41  N2'       51.2100  -15.2070   22.7390 N.pl3 921  PCD921      0.0000
     42  N3'       48.9920  -15.8630   23.0510 N.2   921  PCD921      0.0000
     43  C4'       48.0440  -16.6860   23.5350 C.1   921  PCD921      0.0000
     44  O4'       46.7580  -16.4460   23.3330 O.2   921  PCD921      0.0000
     45 MO         44.5320  -22.6510   26.7190 Mo    921  PCD921      0.0000
     46  OR1       43.4110  -22.1740   27.9070 O.3   921  PCD921      0.0000
     47  OM1       43.8460  -22.4720   25.1730 O.3   921  PCD921      0.0000
@<TRIPOS>BOND
     1    11    10    1
     2    15    12    1
     3    12    10    1
     4    12    13    1
     5    24    22    2
     6    10     9    1
     7     9    14    1
     8     9     1    1
     9     7     2    2
    10    13    14    1
    11    13    16    1
    12    22    23    1
    13    22    25    1
    14    22    21    1
    15    41    40    1
    16    25    26    1
    17    42    40    2
    18    42    43    2
    19    40    39    2
    20    17    16    1
    21    17    18    1
    22    44    43    2
    23     2     1   am
    24     2     3    2
    25     1     6    1
    26    43    36    1
    27    19    18    2
    28    26    27    1
    29    39    38    2
    30    21    18    1
    31    18    20    1
    32     6     5    2
    33     3     4    2
    34    36    38    1
    35    36    35    2
    36    38    37    2
    37    34    27    1
    38    34    33    1
    39    35    32    1
    40     4     5    1
    41     4     8    1
    42    27    28    1
    43    37    33    1
    44    47    45    1
    45    33    32    1
    46    28    30    2
    47    28    29    1
    48    32    30    1
    49    30    31    1
    50    29    45    1
    51    45    31    1
    52    45    46    1
