@<TRIPOS>MOLECULE
1sio_III_D_1.pdb
 29 30 0 0 0
SMALL
GASTEIGER

@<TRIPOS>ATOM
      1  C         30.8090  123.6020   27.1300 C.2     1  ACE1        0.2423
      2  O         31.1120  124.8530   27.2890 O.2     1  ACE1       -0.2733
      3  CH3       31.4980  122.4980   27.9380 C.3     1  ACE1        0.0964
      4  N         29.8550  123.2780   26.2420 N.am    2  ILE2       -0.1978
      5  CA        29.2630  124.2630   25.3520 C.3     2  ILE2        0.1712
      6  C         27.8740  124.6000   25.8730 C.2     2  ILE2        0.2458
      7  O         27.1370  123.6980   26.2080 O.2     2  ILE2       -0.2730
      8  CB        29.1950  123.7080   23.9170 C.3     2  ILE2        0.0289
      9  CG1       30.5910  123.4410   23.2780 C.3     2  ILE2        0.0022
     10  CG2       28.3210  124.5750   23.0150 C.3     2  ILE2        0.0023
     11  CD1       30.4100  122.5340   22.0470 C.3     2  ILE2        0.0001
     12  N         27.4560  125.8380   25.9600 N.am    3  PRO3       -0.2716
     13  CA        26.0600  126.1450   26.3690 C.3     3  PRO3        0.1535
     14  C         25.0600  126.0710   25.2230 C.2     3  PRO3        0.2595
     15  O         25.1270  126.5950   24.1200 O.2     3  PRO3       -0.2716
     16  CB        26.2250  127.5680   26.8830 C.3     3  PRO3        0.0310
     17  CG        27.3430  128.1560   26.0840 C.3     3  PRO3        0.0237
     18  CD        28.2780  127.0180   25.7060 C.3     3  PRO3        0.0939
     19  N         23.9750  125.3550   25.4750 N.am    4  PHE4       -0.2028
     20  CA        22.8970  125.1390   24.5110 C.3     4  PHE4        0.1325
     21  C         21.7170  126.0050   24.8680 C.3     4  PHE4        0.2039
     22  O         20.6190  125.7130   23.9720 O.3     4  PHE4       -0.2185
     23  CB        22.4760  123.6590   24.4580 C.3     4  PHE4        0.0507
     24  CG        23.6620  122.7130   24.2500 C.ar    4  PHE4       -0.0204
     25  CD1       23.8410  121.5830   25.0270 C.ar    4  PHE4       -0.0042
     26  CD2       24.5820  123.0110   23.2440 C.ar    4  PHE4       -0.0042
     27  CE1       24.9250  120.7570   24.8060 C.ar    4  PHE4       -0.0003
     28  CE2       25.6790  122.1900   23.0200 C.ar    4  PHE4       -0.0003
     29  CZ        25.8490  121.0530   23.8090 C.ar    4  PHE4       -0.0000
@<TRIPOS>BOND
     1    11     9    1
     2    10     8    1
     3    28    26   ar
     4    28    29   ar
     5    26    24   ar
     6     9     8    1
     7    29    27   ar
     8     8     5    1
     9    22    21    1
    10    15    14    2
    11    24    23    1
    12    24    25   ar
    13    23    20    1
    14    20    21    1
    15    20    19    1
    16    27    25   ar
    17    14    19   am
    18    14    13    1
    19     5     6    1
    20     5     4    1
    21    18    12    1
    22    18    17    1
    23     6    12   am
    24     6     7    2
    25    12    13    1
    26    17    16    1
    27     4     1   am
    28    13    16    1
    29     1     2    2
    30     1     3    1
