@<TRIPOS>MOLECULE
1siv_PSI_B_1.pdb
 41 41 0 0 0
SMALL
GASTEIGER

@<TRIPOS>ATOM
      1  N          6.3210   16.3470   32.3890 N.3   100  PSI100     -0.1231
      2  CA         6.1780   15.1570   33.2190 C.3   100  PSI100      0.1694
      3  C          5.1000   15.4110   34.2600 C.2   100  PSI100      0.2592
      4  O          4.7450   16.5620   34.5420 O.2   100  PSI100     -0.2718
      5  CB         7.4680   14.8260   33.9450 C.3   100  PSI100      0.0304
      6  N1         4.5530   14.3870   34.8220 N.am  100  PSI100     -0.1966
      7  CA1        3.5220   14.5460   35.8010 C.3   100  PSI100      0.1728
      8  C1         3.7600   13.5250   36.9140 C.2   100  PSI100      0.2612
      9  O1         3.5460   12.3220   36.7610 O.2   100  PSI100     -0.2715
     10  CB1        2.2050   14.3110   35.1050 C.3   100  PSI100      0.0334
     11  C3         1.5270   11.0000   41.4510 C.2   100  PSI100      0.2418
     12  O2         1.8450   10.1220   40.6350 O.2   100  PSI100     -0.2733
     13  CA3        1.1170   12.3780   40.9510 C.3   100  PSI100      0.0895
     14  CM         1.9690   12.7550   39.7840 C.3   100  PSI100      0.0443
     15  C2         3.3430   13.1250   40.2330 C.3   100  PSI100      0.1726
     16  OS         3.2270   14.4600   40.7050 O.3   100  PSI100     -0.2213
     17  CA2        4.4520   13.0110   39.1770 C.3   100  PSI100      0.1299
     18  N2         4.2150   13.9480   38.0820 N.am  100  PSI100     -0.2028
     19  CB2        5.8220   13.3150   39.7520 C.3   100  PSI100      0.0506
     20  CG         6.9110   13.0670   38.7320 C.ar  100  PSI100     -0.0204
     21  CD1        7.2680   11.7740   38.4250 C.ar  100  PSI100     -0.0042
     22  CD2        7.5420   14.1430   38.1310 C.ar  100  PSI100     -0.0042
     23  CE1        8.2690   11.5820   37.5010 C.ar  100  PSI100     -0.0003
     24  CE2        8.5410   13.9490   37.2100 C.ar  100  PSI100     -0.0003
     25  CZ         8.8990   12.6610   36.8980 C.ar  100  PSI100     -0.0000
     26  N4         1.5240   10.7800   42.7580 N.am  100  PSI100     -0.1978
     27  CA4        1.8820    9.4760   43.2270 C.3   100  PSI100      0.1726
     28  C4         0.8310    9.2020   44.2720 C.2   100  PSI100      0.2617
     29  O3         0.5940    9.9730   45.2060 O.2   100  PSI100     -0.2715
     30  CB3        3.2720    9.3430   43.9190 C.3   100  PSI100      0.0290
     31  CG1        3.5120    7.8660   44.2020 C.3   100  PSI100      0.0023
     32  CG2        4.4250    9.8050   43.0380 C.3   100  PSI100      0.0023
     33  N5         0.1870    8.0630   44.1370 N.am  100  PSI100     -0.1943
     34  CA5       -0.8350    7.6230   45.0770 C.3   100  PSI100      0.1934
     35  C5        -0.3580    6.2630   45.6270 C.2   100  PSI100      0.3371
     36  O4         0.6610    5.6870   45.2290 O.2   100  PSI100     -0.2482
     37  CB4       -2.2130    7.4720   44.3940 C.3   100  PSI100      0.0309
     38 CG11       -2.1560    6.4120   43.3150 C.3   100  PSI100      0.0023
     39 CG21       -2.6520    8.8320   43.8880 C.3   100  PSI100      0.0023
     40  C6        -0.1460    5.0100   47.6450 C.3   100  PSI100      0.2557
     41  O5        -1.0360    5.6020   46.6760 O.3   100  PSI100     -0.4432
@<TRIPOS>BOND
     1     1     2    1
     2     2     5    1
     3     2     3    1
     4     3     4    2
     5     3     6   am
     6     6     7    1
     7    10     7    1
     8     7     8    1
     9     9     8    2
    10    25    24   ar
    11    25    23   ar
    12     8    18   am
    13    24    22   ar
    14    23    21   ar
    15    18    17    1
    16    22    20   ar
    17    21    20   ar
    18    20    19    1
    19    17    19    1
    20    17    15    1
    21    14    15    1
    22    14    13    1
    23    15    16    1
    24    12    11    2
    25    13    11    1
    26    11    26   am
    27    26    27    1
    28    32    30    1
    29    27    30    1
    30    27    28    1
    31    38    37    1
    32    39    37    1
    33    30    31    1
    34    33    28   am
    35    33    34    1
    36    28    29    2
    37    37    34    1
    38    34    35    1
    39    36    35    2
    40    35    41    1
    41    41    40    1
