@<TRIPOS>MOLECULE
1siw_GDP_A_1.pdb
 28 30 0 0 0
SMALL
GASTEIGER

@<TRIPOS>ATOM
      1  PB      -123.1130  -63.1110  -24.1880 P.3   1247  GDP1247     0.5373
      2  O1B     -121.9110  -62.0800  -23.8870 O.3   1247  GDP1247    -0.1143
      3  O2B     -123.3470  -63.9170  -22.9690 O.3   1247  GDP1247    -0.1143
      4  O3B     -122.7910  -63.8640  -25.3890 O.2   1247  GDP1247    -0.2221
      5  O3A     -124.4220  -62.2090  -24.4550 O.3   1247  GDP1247    -0.2261
      6  PA      -125.4340  -61.0850  -23.9630 P.3   1247  GDP1247     0.2231
      7  O1A     -124.7770  -60.3130  -22.8970 O.3   1247  GDP1247    -0.4370
      8  O2A     -126.7590  -61.7290  -23.6640 O.2   1247  GDP1247    -0.5169
      9  O5'     -125.4430  -60.2590  -25.3490 O.3   1247  GDP1247    -0.3111
     10  C5'     -126.0530  -60.4220  -26.6170 C.3   1247  GDP1247     0.1813
     11  C4'     -125.4190  -59.5120  -27.6390 C.3   1247  GDP1247     0.1799
     12  O4'     -125.9190  -59.9020  -28.9170 O.3   1247  GDP1247    -0.3326
     13  C3'     -125.7980  -58.0450  -27.3940 C.3   1247  GDP1247     0.2158
     14  O3'     -124.6740  -57.1820  -27.5800 O.3   1247  GDP1247    -0.2175
     15  C2'     -126.9700  -57.8210  -28.3770 C.3   1247  GDP1247     0.2310
     16  O2'     -127.1160  -56.4320  -28.7290 O.3   1247  GDP1247    -0.2158
     17  C1'     -126.6140  -58.8030  -29.5410 C.3   1247  GDP1247     0.2293
     18  N9      -127.7560  -59.4520  -30.2280 N.pl3 1247  GDP1247    -0.2354
     19  C8      -129.0400  -59.8030  -29.7970 C.3   1247  GDP1247     0.2246
     20  N7      -129.8050  -60.3790  -30.7070 N.2   1247  GDP1247    -0.2322
     21  C5      -128.9990  -60.4280  -31.8270 C.2   1247  GDP1247     0.2182
     22  C6      -129.2310  -60.9390  -33.1670 C.1   1247  GDP1247     0.2372
     23  O6      -130.2900  -61.4510  -33.5240 O.2   1247  GDP1247    -0.2069
     24  N1      -128.1240  -60.8130  -34.0760 N.2   1247  GDP1247    -0.2485
     25  C2      -126.8710  -60.2390  -33.7480 C.1   1247  GDP1247     0.2531
     26  N2      -125.9620  -60.2040  -34.6970 N.pl3 1247  GDP1247    -0.0226
     27  N3      -126.6330  -59.7440  -32.4790 N.2   1247  GDP1247    -0.3074
     28  C4      -127.7220  -59.8620  -31.5620 C.2   1247  GDP1247     0.2300
@<TRIPOS>BOND
     1    26    25    1
     2    24    25    2
     3    24    22    2
     4    25    27    2
     5    23    22    2
     6    22    21    1
     7    27    28    2
     8    21    28    1
     9    21    20    2
    10    28    18    1
    11    20    19    1
    12    18    19    1
    13    18    17    1
    14    17    12    1
    15    17    15    1
    16    12    11    1
    17    16    15    1
    18    15    13    1
    19    11    13    1
    20    11    10    1
    21    14    13    1
    22    10     9    1
    23     4     1    2
    24     9     6    1
    25     5     1    1
    26     5     6    1
    27     1     2    1
    28     1     3    1
    29     6     8    2
    30     6     7    1
