@<TRIPOS>MOLECULE
1siw_HEM_C_1.pdb
 43 50 0 0 0
SMALL
GASTEIGER

@<TRIPOS>ATOM
      1 FE       -147.2420  -13.4730  -13.6260 Fe    806  HEM806      0.0000
      2  CHA     -144.7020  -15.6200  -14.0570 C.2   806  HEM806      0.0000
      3  CHB     -149.0820  -15.9000  -12.0180 C.2   806  HEM806      0.0000
      4  CHC     -149.7890  -11.2380  -13.1970 C.2   806  HEM806      0.0000
      5  CHD     -145.4380  -10.9810  -15.2510 C.2   806  HEM806      0.0000
      6  NA      -146.9470  -15.3850  -13.1440 N.2   806  HEM806      0.0000
      7  C1A     -145.8130  -16.1240  -13.4060 C.2   806  HEM806      0.0000
      8  C2A     -145.9920  -17.4810  -12.8900 C.2   806  HEM806      0.0000
      9  C3A     -147.2010  -17.5640  -12.3260 C.2   806  HEM806      0.0000
     10  C4A     -147.8210  -16.2400  -12.4760 C.2   806  HEM806      0.0000
     11  CMA     -147.8970  -18.7760  -11.6260 C.3   806  HEM806      0.0000
     12  CAA     -144.9320  -18.5970  -13.0090 C.3   806  HEM806      0.0000
     13  CBA     -143.9410  -18.5940  -11.7670 C.3   806  HEM806      0.0000
     14  CGA     -143.1050  -19.8820  -11.5700 C.2   806  HEM806      0.0000
     15  O1A     -143.5450  -20.7370  -10.7460 O.co2 806  HEM806      0.0000
     16  O2A     -142.0530  -19.9890  -12.2750 O.co2 806  HEM806      0.0000
     17  NB      -149.0720  -13.5510  -12.7770 N.ar  806  HEM806      0.0000
     18  C1B     -149.6700  -14.6440  -12.1570 C.ar  806  HEM806      0.0000
     19  C2B     -151.0130  -14.2740  -11.6770 C.ar  806  HEM806      0.0000
     20  C3B     -151.2090  -12.9680  -12.0090 C.ar  806  HEM806      0.0000
     21  C4B     -149.9920  -12.5120  -12.6970 C.ar  806  HEM806      0.0000
     22  CMB     -151.9600  -15.2750  -10.9380 C.3   806  HEM806      0.0000
     23  CAB     -152.4750  -12.0490  -11.7450 C.2   806  HEM806      0.0000
     24  CBB     -153.0220  -11.7930  -10.5100 C.2   806  HEM806      0.0000
     25  NC      -147.5560  -11.4990  -14.1230 N.2   806  HEM806      0.0000
     26  C1C     -148.6860  -10.7440  -13.8540 C.2   806  HEM806      0.0000
     27  C2C     -148.5170   -9.3780  -14.3630 C.2   806  HEM806      0.0000
     28  C3C     -147.2960   -9.3110  -14.9410 C.2   806  HEM806      0.0000
     29  C4C     -146.6910  -10.6350  -14.7940 C.2   806  HEM806      0.0000
     30  CMC     -149.5990   -8.2510  -14.2220 C.3   806  HEM806      0.0000
     31  CAC     -146.5620   -8.1200  -15.6490 C.2   806  HEM806      0.0000
     32  CBC     -147.0690   -7.6480  -16.8240 C.2   806  HEM806      0.0000
     33  ND      -145.4390  -13.3260  -14.4830 N.ar  806  HEM806      0.0000
     34  C1D     -144.8520  -12.2150  -15.1100 C.ar  806  HEM806      0.0000
     35  C2D     -143.5090  -12.5570  -15.5940 C.ar  806  HEM806      0.0000
     36  C3D     -143.3040  -13.8560  -15.2460 C.ar  806  HEM806      0.0000
     37  C4D     -144.5210  -14.3340  -14.5570 C.ar  806  HEM806      0.0000
     38  CMD     -142.5420  -11.5810  -16.3470 C.3   806  HEM806      0.0000
     39  CAD     -142.0660  -14.8100  -15.4550 C.3   806  HEM806      0.0000
     40  CBD     -140.8790  -14.6190  -14.4180 C.3   806  HEM806      0.0000
     41  CGD     -139.5630  -15.3180  -14.8240 C.2   806  HEM806      0.0000
     42  O1D     -139.1840  -16.2870  -14.0830 O.co2 806  HEM806      0.0000
     43  O2D     -138.9740  -14.8390  -15.8570 O.co2 806  HEM806      0.0000
@<TRIPOS>BOND
     1    32    31    2
     2    38    35    1
     3    43    41   ar
     4    31    28    1
     5    35    36   ar
     6    35    34   ar
     7    39    36    1
     8    39    40    1
     9     5    34    2
    10     5    29    1
    11    36    37   ar
    12    34    33   ar
    13    28    29    1
    14    28    27    2
    15    41    40    1
    16    41    42   ar
    17    29    25    2
    18    37    33   ar
    19    37     2    2
    20    33     1    1
    21    27    30    1
    22    27    26    1
    23    25    26    1
    24    25     1    1
    25     2     7    1
    26    26     4    2
    27     1     6    1
    28     1    17    1
    29     7     6    2
    30     7     8    1
    31     4    21    1
    32     6    10    1
    33    12     8    1
    34    12    13    1
    35     8     9    2
    36    17    21   ar
    37    17    18   ar
    38    21    20   ar
    39    10     9    1
    40    10     3    2
    41     9    11    1
    42    16    14   ar
    43    18     3    1
    44    18    19   ar
    45    20    23    1
    46    20    19   ar
    47    13    14    1
    48    23    24    2
    49    19    22    1
    50    14    15   ar
