@<TRIPOS>MOLECULE
1six_DUP_A_1.pdb
 28 29 0 0 0
SMALL
GASTEIGER

@<TRIPOS>ATOM
      1  O4        37.9960   15.0490   15.5120 O.2   170  DUP170     -0.2085
      2  C4        38.7920   14.2850   15.9970 C.1   170  DUP170      0.2182
      3  C5        38.5040   12.9760   16.5040 C.2   170  DUP170      0.1242
      4  C6        39.4910   12.2200   16.9720 C.2   170  DUP170      0.0928
      5  N3        40.1740   14.6640   16.0640 N.2   170  DUP170     -0.2452
      6  C2        41.2090   13.9200   16.6430 C.1   170  DUP170      0.2844
      7  O2        42.3650   14.3390   16.6390 O.2   170  DUP170     -0.1918
      8  N1        40.8220   12.6380   17.0920 N.am  170  DUP170     -0.1790
      9  C1'       41.8400   11.8260   17.7700 C.3   170  DUP170      0.2090
     10  C2'       41.6040   11.8250   19.3000 C.3   170  DUP170      0.0874
     11  C3'       40.8600   10.5340   19.5630 C.3   170  DUP170      0.1857
     12  O3'       41.1140   10.1030   20.9000 O.3   170  DUP170     -0.2203
     13  O4'       41.6540   10.4610   17.3720 O.3   170  DUP170     -0.3339
     14  C4'       41.4620    9.6340   18.5450 C.3   170  DUP170      0.1774
     15  C5'       40.5830    8.4940   18.1770 C.3   170  DUP170      0.1848
     16  O5'       39.2950    8.9330   17.6750 O.3   170  DUP170     -0.2775
     17  PA        38.2650    7.8620   17.0800 P.3   170  DUP170      0.4623
     18  O1A       38.0260    6.7970   18.0860 O.3   170  DUP170     -0.1255
     19  O2A       37.0800    8.6560   16.6160 O.2   170  DUP170     -0.2354
     20  N3A       39.0330    7.2670   15.7960 N.3   170  DUP170     -0.0179
     21  PB        39.2820    5.6270   15.3420 P.3   170  DUP170      0.4700
     22  O1B       38.3020    4.7990   16.0570 O.3   170  DUP170     -0.1252
     23  O2B       39.2960    5.5680   13.8680 O.2   170  DUP170     -0.2350
     24  O3B       40.6920    5.2480   15.7950 O.3   170  DUP170     -0.1901
     25  PG        41.2710    4.5630   17.1810 P.3   170  DUP170      0.5397
     26  O2G       42.4920    5.3260   17.5380 O.3   170  DUP170     -0.1143
     27  O1G       40.1750    4.6810   18.1720 O.3   170  DUP170     -0.1143
     28  O3G       41.6270    3.1830   16.8070 O.2   170  DUP170     -0.2220
@<TRIPOS>BOND
     1    23    21    2
     2    21    24    1
     3    21    20    1
     4    21    22    1
     5     1     2    2
     6    24    25    1
     7    20    17    1
     8     2     5    2
     9     2     3    1
    10     5     6    2
    11     3     4    2
    12    19    17    2
    13     7     6    2
    14     6     8   am
    15    28    25    2
    16     4     8    1
    17    17    16    1
    18    17    18    1
    19     8     9    1
    20    25    26    1
    21    25    27    1
    22    13     9    1
    23    13    14    1
    24    16    15    1
    25     9    10    1
    26    15    14    1
    27    14    11    1
    28    10    11    1
    29    11    12    1
