@<TRIPOS>MOLECULE
1sj0_E4D_A_1.pdb
 33 37 0 0 0
SMALL
GASTEIGER

@<TRIPOS>ATOM
      1  C1        31.1720   -0.2380   28.7070 C.3   600  E4D600      0.1184
      2  C2        31.2760   -1.6690   28.1770 C.3   600  E4D600      0.2023
      3  O3        30.0500   -2.3690   28.4310 O.3   600  E4D600     -0.4730
      4  C4        28.8610   -1.9480   27.9670 C.ar  600  E4D600      0.1447
      5  C5        27.9320   -2.9010   27.5800 C.ar  600  E4D600      0.0407
      6  C6        26.7240   -2.5350   27.0030 C.ar  600  E4D600      0.0452
      7  C7        26.3460   -1.1830   27.0310 C.ar  600  E4D600      0.1964
      8  O8        25.1280   -0.8570   26.5840 O.3   600  E4D600     -0.2866
      9  C9        27.2840   -0.2150   27.4260 C.ar  600  E4D600      0.0512
     10  C10       28.5550   -0.5630   27.8540 C.ar  600  E4D600      0.0628
     11  S11       29.6080    0.4570   28.1910 S.3   600  E4D600     -0.1029
     12  C12       32.4700    0.4800   28.4200 C.ar  600  E4D600     -0.0081
     13  C13       32.6800    1.3800   27.3730 C.ar  600  E4D600     -0.0000
     14  C14       33.9320    1.9870   27.2050 C.ar  600  E4D600      0.0417
     15  C15       34.9760    1.6980   28.0990 C.ar  600  E4D600      0.1957
     16  O16       36.1910    2.2510   27.9230 O.3   600  E4D600     -0.2866
     17  C17       34.7830    0.7840   29.1430 C.ar  600  E4D600      0.0417
     18  C18       33.5190    0.2030   29.3110 C.ar  600  E4D600     -0.0000
     19  C19       31.6300   -1.8400   26.7020 C.ar  600  E4D600      0.0186
     20  C20       32.6480   -2.7670   26.4480 C.ar  600  E4D600      0.0023
     21  C21       33.0730   -3.0500   25.1480 C.ar  600  E4D600      0.0367
     22  C22       32.4960   -2.3520   24.0600 C.ar  600  E4D600      0.1386
     23  C23       31.4550   -1.4710   24.2950 C.ar  600  E4D600      0.0367
     24  C24       31.0470   -1.1710   25.6230 C.ar  600  E4D600      0.0023
     25  O25       32.9110   -2.5720   22.7850 O.3   600  E4D600     -0.4740
     26  C26       34.0020   -3.4000   22.3460 C.3   600  E4D600      0.2226
     27  C27       33.6550   -4.3840   21.2060 C.3   600  E4D600      0.1200
     28  N28       32.8000   -4.0120   20.0540 N.3   600  E4D600     -0.2696
     29  C29       31.5970   -3.2410   20.3190 C.3   600  E4D600      0.0722
     30  C30       30.5570   -3.2640   19.1770 C.3   600  E4D600      0.0174
     31  C31       31.1870   -2.9120   17.8130 C.3   600  E4D600      0.0029
     32  C32       32.4130   -3.8420   17.6170 C.3   600  E4D600      0.0174
     33  C33       33.4340   -3.6740   18.7760 C.3   600  E4D600      0.0722
@<TRIPOS>BOND
     1    32    31    1
     2    32    33    1
     3    31    30    1
     4    33    28    1
     5    30    29    1
     6    28    29    1
     7    28    27    1
     8    27    26    1
     9    26    25    1
    10    25    22    1
    11    22    23   ar
    12    22    21   ar
    13    23    24   ar
    14    21    20   ar
    15    24    19   ar
    16    20    19   ar
    17     8     7    1
    18    19     2    1
    19     6     7   ar
    20     6     5   ar
    21     7     9   ar
    22    14    13   ar
    23    14    15   ar
    24    13    12   ar
    25     9    10   ar
    26     5     4   ar
    27    10     4   ar
    28    10    11    1
    29    16    15    1
    30     4     3    1
    31    15    17   ar
    32     2     3    1
    33     2     1    1
    34    11     1    1
    35    12     1    1
    36    12    18   ar
    37    17    18   ar
