@<TRIPOS>MOLECULE
1sj2_HEM_A_1.pdb
 43 50 0 0 0
SMALL
GASTEIGER

@<TRIPOS>ATOM
      1  CHA       37.0480   -9.4140   25.5740 C.2   1500  HEM1500     0.0000
      2  CHB       39.6180  -11.3420   29.1990 C.2   1500  HEM1500     0.0000
      3  CHC       36.2390   -9.9070   32.3390 C.2   1500  HEM1500     0.0000
      4  CHD       33.6720   -7.9740   28.7170 C.2   1500  HEM1500     0.0000
      5  C1A       38.0590  -10.0330   26.2770 C.2   1500  HEM1500     0.0000
      6  C2A       39.3020  -10.5430   25.7030 C.2   1500  HEM1500     0.0000
      7  C3A       40.0220  -11.0880   26.7180 C.2   1500  HEM1500     0.0000
      8  C4A       39.2320  -10.9070   27.9290 C.2   1500  HEM1500     0.0000
      9  CMA       41.3770  -11.7590   26.6460 C.3   1500  HEM1500     0.0000
     10  CAA       39.6780  -10.4700   24.2530 C.3   1500  HEM1500     0.0000
     11  CBA       40.3590   -9.1630   23.8910 C.3   1500  HEM1500     0.0000
     12  CGA       40.7510   -9.0590   22.4340 C.2   1500  HEM1500     0.0000
     13  O1A       41.6710   -9.7920   22.0110 O.co2 1500  HEM1500     0.0000
     14  O2A       40.1360   -8.2430   21.7120 O.co2 1500  HEM1500     0.0000
     15  C1B       38.9210  -11.1670   30.3770 C.ar  1500  HEM1500     0.0000
     16  C2B       39.3450  -11.6450   31.6880 C.ar  1500  HEM1500     0.0000
     17  C3B       38.3930  -11.2360   32.5600 C.ar  1500  HEM1500     0.0000
     18  C4B       37.3890  -10.5070   31.8040 C.ar  1500  HEM1500     0.0000
     19  CMB       40.6000  -12.4280   31.9820 C.3   1500  HEM1500     0.0000
     20  CAB       38.3280  -11.4490   34.0150 C.2   1500  HEM1500     0.0000
     21  CBB       38.0770  -12.5940   34.6370 C.2   1500  HEM1500     0.0000
     22  C1C       35.2350   -9.2210   31.6640 C.2   1500  HEM1500     0.0000
     23  C2C       34.0770   -8.5700   32.2820 C.2   1500  HEM1500     0.0000
     24  C3C       33.3390   -8.0220   31.2690 C.2   1500  HEM1500     0.0000
     25  C4C       34.0630   -8.3310   30.0140 C.2   1500  HEM1500     0.0000
     26  CMC       33.8080   -8.5530   33.7710 C.3   1500  HEM1500     0.0000
     27  CAC       32.0640   -7.2680   31.3790 C.2   1500  HEM1500     0.0000
     28  CBC       31.8360   -6.0060   31.0520 C.2   1500  HEM1500     0.0000
     29  C1D       34.3400   -8.2190   27.5120 C.ar  1500  HEM1500     0.0000
     30  C2D       33.8540   -7.8480   26.2080 C.ar  1500  HEM1500     0.0000
     31  C3D       34.7970   -8.2610   25.2980 C.ar  1500  HEM1500     0.0000
     32  C4D       35.8800   -8.8740   26.0700 C.ar  1500  HEM1500     0.0000
     33  CMD       32.5480   -7.1470   25.9280 C.3   1500  HEM1500     0.0000
     34  CAD       34.6810   -8.0920   23.7970 C.3   1500  HEM1500     0.0000
     35  CBD       35.6350   -7.1170   23.0940 C.3   1500  HEM1500     0.0000
     36  CGD       35.3070   -7.1070   21.5850 C.2   1500  HEM1500     0.0000
     37  O1D       36.0670   -6.4860   20.8150 O.co2 1500  HEM1500     0.0000
     38  O2D       34.2660   -7.7200   21.1910 O.co2 1500  HEM1500     0.0000
     39  NA        38.0630  -10.2520   27.6340 N.2   1500  HEM1500     0.0000
     40  NB        37.7250  -10.5010   30.4800 N.ar  1500  HEM1500     0.0000
     41  NC        35.1900   -9.0350   30.3120 N.2   1500  HEM1500     0.0000
     42  ND        35.5490   -8.8610   27.3890 N.ar  1500  HEM1500     0.0000
     43 FE         36.5990   -9.6730   28.9380 Fe    1500  HEM1500     0.0000
@<TRIPOS>BOND
     1    37    36   ar
     2    38    36   ar
     3    36    35    1
     4    14    12   ar
     5    13    12   ar
     6    12    11    1
     7    35    34    1
     8    34    31    1
     9    11    10    1
    10    10     6    1
    11    31    32   ar
    12    31    30   ar
    13     1    32    2
    14     1     5    1
    15     6     5    1
    16     6     7    2
    17    33    30    1
    18    32    42   ar
    19    30    29   ar
    20     5    39    2
    21     9     7    1
    22     7     8    1
    23    42    29   ar
    24    42    43    1
    25    29     4    2
    26    39     8    1
    27    39    43    1
    28     8     2    2
    29     4    25    1
    30    43    41    1
    31    43    40    1
    32     2    15    1
    33    25    41    2
    34    25    24    1
    35    41    22    1
    36    15    40   ar
    37    15    16   ar
    38    40    18   ar
    39    28    27    2
    40    24    27    1
    41    24    23    2
    42    22    23    1
    43    22     3    2
    44    16    19    1
    45    16    17   ar
    46    18     3    1
    47    18    17   ar
    48    23    26    1
    49    17    20    1
    50    20    21    2
