@<TRIPOS>MOLECULE
1sja_AME_A_1.pdb
 12 11 0 0 0
SMALL
GASTEIGER

@<TRIPOS>ATOM
      1  CT2       27.0760   46.1200   57.0480 C.3   600  AME600      0.0964
      2  CT1       25.6880   45.5720   57.2700 C.2   600  AME600      0.2423
      3  OT        24.9780   45.2680   56.2230 O.2   600  AME600     -0.2733
      4  CB        23.2600   43.9490   59.5490 C.3   600  AME600      0.0449
      5  CG        23.0430   42.9940   58.3830 C.3   600  AME600      0.0599
      6  SD        23.3230   41.2400   58.7720 S.3   600  AME600     -0.1393
      7  CE        23.3170   40.5350   57.1140 C.3   600  AME600      0.0692
      8  C         23.5450   46.1850   60.2120 C.2   600  AME600      0.3842
      9  O         22.6170   45.8220   61.0550 O.co2 600  AME600     -0.2437
     10  OXT       24.2190   47.2820   60.4320 O.co2 600  AME600     -0.2437
     11  N         25.1890   45.3840   58.6290 N.am  600  AME600     -0.1956
     12  CA        23.8030   45.3000   59.0520 C.3   600  AME600      0.1986
@<TRIPOS>BOND
     1     3     2    2
     2     1     2    1
     3     7     6    1
     4     2    11   am
     5     5     6    1
     6     5     4    1
     7    11    12    1
     8    12     4    1
     9    12     8    1
    10     8    10   ar
    11     8     9   ar
