@<TRIPOS>MOLECULE
1sjb_OSB_A_1.pdb
 16 16 0 0 0
SMALL
GASTEIGER

@<TRIPOS>ATOM
      1  O1        23.5690   46.3120   60.4370 O.co2 1000  OSB1000    -0.2406
      2  O2        22.8520   45.3050   62.2360 O.co2 1000  OSB1000    -0.2406
      3  C7        23.1770   45.2970   61.0370 C.2   1000  OSB1000     0.3879
      4  C6        23.6490   42.4730   58.6540 C.ar  1000  OSB1000     0.0034
      5  C5        22.6190   41.6210   59.0830 C.ar  1000  OSB1000     0.0001
      6  C4        21.7900   41.9790   60.1410 C.ar  1000  OSB1000     0.0002
      7  C3        22.0150   43.2090   60.7510 C.ar  1000  OSB1000     0.0067
      8  C2        23.0470   44.0510   60.3190 C.ar  1000  OSB1000     0.0828
      9  C1        23.9080   43.7190   59.2520 C.ar  1000  OSB1000     0.0453
     10  C8        25.0250   44.5760   58.7850 C.2   1000  OSB1000     0.1961
     11  C9        25.0190   45.3720   57.4480 C.2   1000  OSB1000     0.0488
     12  O3        26.0660   44.7100   59.4570 O.2   1000  OSB1000    -0.2866
     13  C10       26.1220   45.3870   56.3530 C.2   1000  OSB1000     0.0894
     14  C11       26.0490   46.1350   54.9980 C.2   1000  OSB1000     0.3881
     15  O4        25.1490   45.8560   54.1820 O.co2 1000  OSB1000    -0.2405
     16  O5        26.9070   46.9850   54.6940 O.co2 1000  OSB1000    -0.2405
@<TRIPOS>BOND
     1    15    14   ar
     2    16    14   ar
     3    14    13    1
     4    13    11    2
     5    11    10    1
     6     4     5   ar
     7     4     9   ar
     8    10     9    1
     9    10    12    2
    10     5     6   ar
    11     9     8   ar
    12     6     7   ar
    13     8     7   ar
    14     8     3    1
    15     1     3   ar
    16     3     2   ar
