@<TRIPOS>MOLECULE
1sjc_SMG_A_1.pdb
 16 15 0 0 0
SMALL
GASTEIGER

@<TRIPOS>ATOM
      1  O61       26.7540   46.9920   53.9030 O.co2 1000  SMG1000    -0.2456
      2  O62       25.1490   45.6580   53.3110 O.co2 1000  SMG1000    -0.2456
      3  C6        26.0180   46.0120   54.1450 C.2   1000  SMG1000     0.3654
      4  C5        26.1920   45.3050   55.4950 C.3   1000  SMG1000     0.1237
      5  C4        25.5480   46.1570   56.5950 C.3   1000  SMG1000     0.0986
      6  O31       26.1760   45.3900   58.6960 O.2   1000  SMG1000    -0.2733
      7  C3        25.3020   45.4190   57.8260 C.2   1000  SMG1000     0.2424
      8  N1        24.1230   44.8450   58.0410 N.am  1000  SMG1000    -0.1955
      9  O11       22.8320   46.3430   59.6870 O.co2 1000  SMG1000    -0.2437
     10  O12       22.6620   44.8610   61.2850 O.co2 1000  SMG1000    -0.2437
     11  C2        23.0500   45.2000   60.1460 C.2   1000  SMG1000     0.3842
     12  C1        23.8560   44.2230   59.3300 C.3   1000  SMG1000     0.1986
     13  CB        23.0310   42.9650   59.1710 C.3   1000  SMG1000     0.0449
     14  CG        22.9950   42.5990   57.6970 C.3   1000  SMG1000     0.0599
     15  SD        23.4190   40.8820   57.3630 S.3   1000  SMG1000    -0.1393
     16  CE        24.7710   40.2330   58.3590 C.3   1000  SMG1000     0.0692
@<TRIPOS>BOND
     1     2     3   ar
     2     1     3   ar
     3     3     4    1
     4     4     5    1
     5     5     7    1
     6    15    14    1
     7    15    16    1
     8    14    13    1
     9     7     8   am
    10     7     6    2
    11     8    12    1
    12    13    12    1
    13    12    11    1
    14     9    11   ar
    15    11    10   ar
