@<TRIPOS>MOLECULE
1sjd_NPG_A_1.pdb
 18 18 0 0 0
SMALL
GASTEIGER

@<TRIPOS>ATOM
      1  O61       25.2790   46.2250   52.5350 O.co2 1200  NPG1200    -0.2456
      2  O62       26.9990   47.1060   53.5970 O.co2 1200  NPG1200    -0.2456
      3  C6        26.0530   46.2820   53.5200 C.2   1200  NPG1200     0.3654
      4  C5        25.8040   45.3190   54.6750 C.3   1200  NPG1200     0.1237
      5  C4        26.0000   46.0830   55.9870 C.3   1200  NPG1200     0.0986
      6  O31       25.9990   45.2180   58.1870 O.2   1200  NPG1200    -0.2733
      7  C3        25.4450   45.2280   57.0910 C.2   1200  NPG1200     0.2427
      8  N1        24.3180   44.4200   56.8750 N.am  1200  NPG1200    -0.1910
      9  O11       22.7150   45.1710   58.9510 O.co2 1200  NPG1200    -0.2434
     10  O12       22.7640   43.2520   59.8930 O.co2 1200  NPG1200    -0.2434
     11  C2        23.0620   43.9660   58.9100 C.2   1200  NPG1200     0.3884
     12  C1        23.9110   43.3720   57.7990 C.3   1200  NPG1200     0.2199
     13  CG        23.1610   42.3250   57.0710 C.ar  1200  NPG1200     0.0083
     14  CD1       22.0460   41.7270   57.6690 C.ar  1200  NPG1200    -0.0021
     15  CD2       23.5290   41.9620   55.7700 C.ar  1200  NPG1200    -0.0021
     16  CE1       21.3050   40.7790   56.9590 C.ar  1200  NPG1200    -0.0003
     17  CE2       22.7880   41.0130   55.0610 C.ar  1200  NPG1200    -0.0003
     18  CZ        21.6750   40.4200   55.6590 C.ar  1200  NPG1200    -0.0000
@<TRIPOS>BOND
     1     1     3   ar
     2     3     2   ar
     3     3     4    1
     4     4     5    1
     5    17    18   ar
     6    17    15   ar
     7    18    16   ar
     8    15    13   ar
     9     5     7    1
    10     8     7   am
    11     8    12    1
    12    16    14   ar
    13    13    14   ar
    14    13    12    1
    15     7     6    2
    16    12    11    1
    17    11     9   ar
    18    11    10   ar
