@<TRIPOS>MOLECULE
1sjn_DUP_A_1.pdb
 28 29 0 0 0
SMALL
GASTEIGER

@<TRIPOS>ATOM
      1  O4        17.5940   -9.3760   -5.9040 O.2   1170  DUP1170    -0.2085
      2  C4        18.7380   -9.4170   -6.4000 C.1   1170  DUP1170     0.2182
      3  C5        19.7120   -8.6830   -5.9770 C.2   1170  DUP1170     0.1242
      4  C6        20.8990   -8.7580   -6.5420 C.2   1170  DUP1170     0.0928
      5  N3        18.9390  -10.2390   -7.4530 N.2   1170  DUP1170    -0.2452
      6  C2        20.1730  -10.2930   -8.0540 C.1   1170  DUP1170     0.2844
      7  O2        20.3160  -11.0210   -9.0380 O.2   1170  DUP1170    -0.1918
      8  N1        21.1640   -9.5290   -7.5910 N.am  1170  DUP1170    -0.1790
      9  C1'       22.5250   -9.5300   -8.2650 C.3   1170  DUP1170     0.2090
     10  C2'       22.5920   -8.1830   -8.9720 C.3   1170  DUP1170     0.0874
     11  C3'       23.6000   -7.3210   -8.2500 C.3   1170  DUP1170     0.1857
     12  O3'       24.3050   -6.3270   -8.9850 O.3   1170  DUP1170    -0.2203
     13  O4'       23.5380   -9.5350   -7.3100 O.3   1170  DUP1170    -0.3339
     14  C4'       24.3210   -8.3120   -7.3890 C.3   1170  DUP1170     0.1774
     15  C5'       24.8500   -7.8550   -6.0720 C.3   1170  DUP1170     0.1848
     16  O5'       23.7910   -7.4870   -5.2190 O.3   1170  DUP1170    -0.2775
     17  PA        24.2060   -7.1480   -3.7160 P.3   1170  DUP1170     0.4623
     18  O1A       25.2640   -6.0550   -3.7340 O.2   1170  DUP1170    -0.2354
     19  O2A       22.8720   -6.9090   -3.0260 O.3   1170  DUP1170    -0.1255
     20  N3A       24.8050   -8.6340   -3.2140 N.3   1170  DUP1170    -0.0179
     21  PB        26.2830   -8.7540   -2.4160 P.3   1170  DUP1170     0.4700
     22  O1B       26.8080   -7.4600   -1.8030 O.2   1170  DUP1170    -0.2350
     23  O2B       26.0720   -9.8920   -1.4860 O.3   1170  DUP1170    -0.1252
     24  O3B       27.3710   -9.3560   -3.4640 O.3   1170  DUP1170    -0.1901
     25  PG        28.4290   -8.4450   -4.2780 P.3   1170  DUP1170     0.5397
     26  O2G       28.2420   -9.0830   -5.6150 O.2   1170  DUP1170    -0.2220
     27  O1G       27.9850   -6.9700   -4.3880 O.3   1170  DUP1170    -0.1143
     28  O3G       29.7580   -8.6270   -3.6550 O.3   1170  DUP1170    -0.1143
@<TRIPOS>BOND
     1     7     6    2
     2    12    11    1
     3    10     9    1
     4    10    11    1
     5     9     8    1
     6     9    13    1
     7    11    14    1
     8     6     8   am
     9     6     5    2
    10     8     4    1
    11     5     2    2
    12    14    13    1
    13    14    15    1
    14     4     3    2
    15     2     3    1
    16     2     1    2
    17    15    16    1
    18    26    25    2
    19    16    17    1
    20    27    25    1
    21    25    28    1
    22    25    24    1
    23    18    17    2
    24    17    20    1
    25    17    19    1
    26    24    21    1
    27    20    21    1
    28    21    22    2
    29    21    23    1
