@<TRIPOS>MOLECULE
1sjw_NGV_A_1.pdb
 28 31 0 0 0
SMALL
GASTEIGER

@<TRIPOS>ATOM
      1  O17        9.5710    1.6690   12.4630 O.2   333  NGV333     -0.2494
      2  C14        9.6970    2.0820   13.6000 C.2   333  NGV333      0.3246
      3  O16       10.7930    2.9880   13.8560 O.3   333  NGV333     -0.4440
      4  C15       11.6100    3.5300   12.8160 C.3   333  NGV333      0.2556
      5  C10        8.8960    1.6060   14.7770 C.3   333  NGV333      0.1399
      6  C9         8.8840    2.3600   15.9560 C.2   333  NGV333     -0.0265
      7  C13        9.5840    3.6880   16.1120 C.3   333  NGV333      0.0273
      8  C8         8.1880    1.8960   17.0670 C.2   333  NGV333      0.0345
      9  C19        8.2290    0.3660   14.7500 C.ar  333  NGV333     -0.0022
     10  C20        7.5210   -0.0620   15.8750 C.ar  333  NGV333      0.0748
     11  C7         7.5160    0.6870   17.0480 C.2   333  NGV333      0.1978
     12  O22        6.8950    0.3200   18.0890 O.2   333  NGV333     -0.2865
     13  C11        8.1900   -0.4470   13.5970 C.ar  333  NGV333     -0.0045
     14  C18        7.4780   -1.6560   13.5670 C.ar  333  NGV333      0.0178
     15  C17        6.7890   -2.1270   14.6850 C.ar  333  NGV333      0.0767
     16  C5         6.1150   -3.3570   14.6320 C.2   333  NGV333      0.2013
     17  O20        5.5030   -3.7640   15.6580 O.2   333  NGV333     -0.2864
     18  C6         6.8070   -1.3550   15.8440 C.ar  333  NGV333      0.2012
     19  O21        6.1710   -1.7170   16.9570 O.3   333  NGV333     -0.2864
     20  C12        7.4620   -2.4090   12.3950 C.3   333  NGV333      0.1970
     21  O18        8.1230   -1.9440   11.3440 O.3   333  NGV333     -0.2134
     22  C21        6.7750   -3.6170   12.3290 C.ar  333  NGV333      0.0181
     23  C1         6.7620   -4.3610   11.1570 C.ar  333  NGV333     -0.0012
     24  C2         6.0670   -5.5600   11.1120 C.ar  333  NGV333      0.0030
     25  C3         5.3890   -6.0610   12.2060 C.ar  333  NGV333      0.0421
     26  C16        6.0840   -4.1020   13.4450 C.ar  333  NGV333      0.0766
     27  C4         5.3890   -5.3120   13.3740 C.ar  333  NGV333      0.1985
     28  O19        4.7270   -5.7750   14.4230 O.3   333  NGV333     -0.2865
@<TRIPOS>BOND
     1    24    23   ar
     2    24    25   ar
     3    23    22   ar
     4    21    20    1
     5    25    27   ar
     6    22    20    1
     7    22    26   ar
     8    20    14    1
     9     1     2    2
    10     4     3    1
    11    27    26   ar
    12    27    28    1
    13    26    16    1
    14    14    13   ar
    15    14    15   ar
    16    13     9   ar
    17     2     3    1
    18     2     5    1
    19    16    15    1
    20    16    17    2
    21    15    18   ar
    22     9     5    1
    23     9    10   ar
    24     5     6    1
    25    18    10   ar
    26    18    19    1
    27    10    11    1
    28     6     7    1
    29     6     8    2
    30    11     8    1
    31    11    12    2
