@<TRIPOS>MOLECULE
1sk6_CMP_A_1.pdb
 22 25 0 0 0
SMALL
GASTEIGER

@<TRIPOS>ATOM
      1  P         34.9240   67.4410   43.7570 P.3   289  CMP289      0.2141
      2  O1P       36.2300   68.1060   43.4750 O.2   289  CMP289     -0.5172
      3  O2P       34.3460   67.9360   45.0630 O.3   289  CMP289     -0.4373
      4  O5'       33.9910   67.7030   42.5770 O.3   289  CMP289     -0.3114
      5  C5'       34.4600   67.2520   41.2680 C.3   289  CMP289      0.1812
      6  C4'       34.4910   65.7290   41.4210 C.3   289  CMP289      0.1793
      7  O4'       34.9790   64.9480   40.3010 O.3   289  CMP289     -0.3136
      8  C3'       35.3730   65.3390   42.5940 C.3   289  CMP289      0.1884
      9  O3'       34.9360   65.9400   43.7990 O.3   289  CMP289     -0.3111
     10  C2'       35.4430   63.8620   42.3420 C.3   289  CMP289      0.2541
     11  O2'       34.2210   63.1890   42.5520 O.3   289  CMP289     -0.2131
     12  C1'       35.9980   64.1090   40.8890 C.3   289  CMP289      0.3185
     13  N9        37.3830   63.4850   40.5400 N.pl3 289  CMP289     -0.1439
     14  C8        37.5770   62.1770   41.0630 C.3   289  CMP289      0.3377
     15  N7        38.7230   61.6120   40.8140 N.2   289  CMP289     -0.2095
     16  C5        39.3290   62.5830   40.0880 C.2   289  CMP289      0.2526
     17  C6        40.5840   62.6740   39.4910 C.2   289  CMP289      0.4393
     18  N6        41.4660   61.7000   39.5550 N.pl3 289  CMP289      0.2180
     19  N1        40.8430   63.8450   38.8310 N.2   289  CMP289      0.0021
     20  C2        39.9970   64.9060   38.7110 C.3   289  CMP289      0.5254
     21  N3        38.7610   64.8640   39.2740 N.2   289  CMP289     -0.0055
     22  C4        38.5740   63.7150   39.8950 C.2   289  CMP289      0.3518
@<TRIPOS>BOND
     1    20    19    1
     2    20    21    1
     3    19    17    2
     4    21    22    2
     5    17    18    1
     6    17    16    1
     7    22    16    1
     8    22    13    1
     9    16    15    2
    10     7    12    1
    11     7     6    1
    12    13    12    1
    13    13    14    1
    14    15    14    1
    15    12    10    1
    16     5     6    1
    17     5     4    1
    18     6     8    1
    19    10    11    1
    20    10     8    1
    21     4     1    1
    22     8     9    1
    23     2     1    2
    24     1     9    1
    25     1     3    1
