@<TRIPOS>MOLECULE
1sk7_HEM_A_1.pdb
 43 50 0 0 0
SMALL
GASTEIGER

@<TRIPOS>ATOM
      1  CHA        6.6560   -0.6140   21.3860 C.2   300  HEM300      0.0000
      2  CHB        9.0960    2.6040   18.7800 C.2   300  HEM300      0.0000
      3  CHC       11.7830   -0.9330   16.7920 C.2   300  HEM300      0.0000
      4  CHD        9.2430   -4.1610   19.3440 C.2   300  HEM300      0.0000
      5  C1A        7.1760    0.5840   20.9210 C.ar  300  HEM300      0.0000
      6  C2A        6.6420    1.9020   21.2420 C.ar  300  HEM300      0.0000
      7  C3A        7.3570    2.8110   20.5180 C.ar  300  HEM300      0.0000
      8  C4A        8.2540    2.0400   19.7010 C.ar  300  HEM300      0.0000
      9  CMA        7.3790    4.3350   20.6650 C.3   300  HEM300      0.0000
     10  CAA        5.5110    2.2560   22.2190 C.3   300  HEM300      0.0000
     11  CBA        4.1450    2.2050   21.5440 C.3   300  HEM300      0.0000
     12  CGA        3.0320    2.7170   22.4300 C.2   300  HEM300      0.0000
     13  O1A        2.8890    3.9560   22.5570 O.co2 300  HEM300      0.0000
     14  O2A        2.3020    1.8820   23.0090 O.co2 300  HEM300      0.0000
     15  C1B       10.0060    1.8950   17.9850 C.2   300  HEM300      0.0000
     16  C2B       10.8700    2.5280   16.9910 C.2   300  HEM300      0.0000
     17  C3B       11.6750    1.5460   16.4980 C.2   300  HEM300      0.0000
     18  C4B       11.2410    0.3200   17.1170 C.2   300  HEM300      0.0000
     19  CMB       10.7970    4.0100   16.4520 C.3   300  HEM300      0.0000
     20  CAB       12.7630    1.6950   15.6340 C.3   300  HEM300      0.0000
     21  CBB       12.9470    2.6420   14.6300 C.3   300  HEM300      0.0000
     22  C1C       11.3560   -2.1280   17.3660 C.ar  300  HEM300      0.0000
     23  C2C       11.9590   -3.4390   17.1190 C.ar  300  HEM300      0.0000
     24  C3C       11.2550   -4.3130   17.8450 C.ar  300  HEM300      0.0000
     25  C4C       10.2140   -3.5680   18.5300 C.ar  300  HEM300      0.0000
     26  CMC       13.1410   -3.7770   16.2050 C.3   300  HEM300      0.0000
     27  CAC       11.3280   -5.7160   17.9050 C.3   300  HEM300      0.0000
     28  CBC       12.3470   -6.5440   17.3860 C.3   300  HEM300      0.0000
     29  C1D        8.2780   -3.4640   20.0710 C.2   300  HEM300      0.0000
     30  C2D        7.2160   -4.1050   20.8630 C.2   300  HEM300      0.0000
     31  C3D        6.5330   -3.0880   21.4940 C.2   300  HEM300      0.0000
     32  C4D        7.1340   -1.8620   21.0280 C.2   300  HEM300      0.0000
     33  CMD        7.0100   -5.6070   21.0800 C.3   300  HEM300      0.0000
     34  CAD        5.4430   -3.2410   22.5710 C.3   300  HEM300      0.0000
     35  CBD        4.2110   -3.7960   21.8580 C.3   300  HEM300      0.0000
     36  CGD        3.0970   -4.1970   22.8100 C.2   300  HEM300      0.0000
     37  O1D        2.2210   -4.9980   22.3960 O.co2 300  HEM300      0.0000
     38  O2D        3.0820   -3.7120   23.9640 O.co2 300  HEM300      0.0000
     39  NA         8.1640    0.6770   19.9750 N.ar  300  HEM300      0.0000
     40  NB        10.2080    0.5220   18.0470 N.2   300  HEM300      0.0000
     41  NC        10.2990   -2.2130   18.2660 N.ar  300  HEM300      0.0000
     42  ND         8.2010   -2.0920   20.1540 N.2   300  HEM300      0.0000
     43 FE          9.2080   -0.7910   19.1140 Fe    300  HEM300      0.0000
@<TRIPOS>BOND
     1    21    20    1
     2    20    17    1
     3    26    23    1
     4    19    16    1
     5    17    16    2
     6    17    18    1
     7     3    18    2
     8     3    22    1
     9    16    15    1
    10    18    40    1
    11    23    22   ar
    12    23    24   ar
    13    22    41   ar
    14    28    27    1
    15    24    27    1
    16    24    25   ar
    17    15    40    2
    18    15     2    1
    19    40    43    1
    20    41    25   ar
    21    41    43    1
    22    25     4    1
    23     2     8    2
    24    43    39    1
    25    43    42    1
    26     4    29    2
    27     8    39   ar
    28     8     7   ar
    29    39     5   ar
    30    29    42    1
    31    29    30    1
    32    42    32    2
    33     7     9    1
    34     7     6   ar
    35    30    33    1
    36    30    31    2
    37     5     6   ar
    38     5     1    2
    39    32     1    1
    40    32    31    1
    41     6    10    1
    42    31    34    1
    43    11    10    1
    44    11    12    1
    45    35    34    1
    46    35    36    1
    47    37    36   ar
    48    12    13   ar
    49    12    14   ar
    50    36    38   ar
