@<TRIPOS>MOLECULE
1skg_III_B_1.pdb
 40 40 0 0 0
SMALL
GASTEIGER

@<TRIPOS>ATOM
      1  N          3.8760   18.0110   -0.4280 N.3   4001  VAL4001    -0.1231
      2  CA         3.6470   18.3850    0.9860 C.3   4001  VAL4001     0.1692
      3  C          3.7630   19.8990    1.1650 C.2   4001  VAL4001     0.2592
      4  O          2.8400   20.6160    0.7090 O.2   4001  VAL4001    -0.2718
      5  CB         4.5200   17.5270    1.9270 C.3   4001  VAL4001     0.0266
      6  CG1        4.1290   17.5840    3.4140 C.3   4001  VAL4001     0.0020
      7  CG2        4.5750   16.0780    1.3990 C.3   4001  VAL4001     0.0020
      8  N          4.8100   20.4200    1.7980 N.am  4002  ALA4002    -0.1966
      9  CA         5.0270   21.8680    1.9010 C.3   4002  ALA4002     0.1728
     10  C          5.8130   22.3440    0.6750 C.2   4002  ALA4002     0.2616
     11  O          5.2100   22.5800   -0.3830 O.2   4002  ALA4002    -0.2715
     12  CB         5.7530   22.2550    3.1810 C.3   4002  ALA4002     0.0334
     13  N          7.1290   22.4730    0.8220 N.am  4003  PHE4003    -0.1960
     14  CA         8.0130   22.7800   -0.3220 C.3   4003  PHE4003     0.1771
     15  C          7.9360   24.2540   -0.7020 C.2   4003  PHE4003     0.2619
     16  O          7.3570   24.6510   -1.7030 O.2   4003  PHE4003    -0.2715
     17  CB         7.6720   21.8180   -1.4410 C.3   4003  PHE4003     0.0574
     18  CG         7.7330   22.1690   -2.9040 C.ar  4003  PHE4003    -0.0200
     19  CD1        6.5310   22.4800   -3.5730 C.ar  4003  PHE4003    -0.0042
     20  CD2        8.9230   22.1910   -3.6030 C.ar  4003  PHE4003    -0.0042
     21  CE1        6.5290   22.7920   -4.9260 C.ar  4003  PHE4003    -0.0003
     22  CE2        8.9390   22.5120   -4.9480 C.ar  4003  PHE4003    -0.0003
     23  CZ         7.7510   22.8140   -5.6090 C.ar  4003  PHE4003    -0.0000
     24  N          8.5460   25.0810    0.1250 N.am  4004  ARG4004    -0.1963
     25  CA         8.5380   26.5240    0.0570 C.3   4004  ARG4004     0.1729
     26  C          9.7530   27.1110   -0.6720 C.2   4004  ARG4004     0.2616
     27  O         10.3830   26.4290   -1.4850 O.2   4004  ARG4004    -0.2715
     28  CB         8.5160   27.1680    1.4510 C.3   4004  ARG4004     0.0348
     29  CG         9.7240   26.9360    2.3270 C.3   4004  ARG4004     0.0492
     30  CD        10.1330   25.4990    2.5420 C.3   4004  ARG4004     0.2205
     31  NE         9.6590   24.8790    3.7540 N.pl3 4004  ARG4004    -0.0865
     32  CZ         9.8080   23.5600    3.9480 C.cat 4004  ARG4004     0.5346
     33  NH1       10.4010   22.8080    3.0100 N.pl3 4004  ARG4004     0.1354
     34  NH2        9.3790   22.9920    5.0590 N.pl3 4004  ARG4004     0.1354
     35  N          9.9620   28.3600   -0.2930 N.am  4005  SER4005    -0.1950
     36  CA        10.8650   29.4150   -0.7090 C.3   4005  SER4005     0.1924
     37  C         11.5610   29.0900   -2.0260 C.2   4005  SER4005     0.2314
     38  O         12.5760   28.4080   -2.0850 O.2   4005  SER4005    -0.2863
     39  CB        11.8870   29.6970    0.4050 C.3   4005  SER4005     0.2116
     40  OG        11.2910   29.4940    1.6780 O.3   4005  SER4005    -0.2180
@<TRIPOS>BOND
     1    23    22   ar
     2    23    21   ar
     3    22    20   ar
     4    21    19   ar
     5    20    18   ar
     6    19    18   ar
     7    18    17    1
     8    38    37    2
     9    37    36    1
    10    16    15    2
    11    27    26    2
    12    17    14    1
    13    36    35    1
    14    36    39    1
    15    15    14    1
    16    15    24   am
    17    26    35   am
    18    26    25    1
    19     1     2    1
    20    11    10    2
    21    14    13    1
    22    25    24    1
    23    25    28    1
    24    39    40    1
    25    10    13   am
    26    10     9    1
    27     4     3    2
    28     2     3    1
    29     2     5    1
    30     3     8   am
    31     7     5    1
    32    28    29    1
    33     8     9    1
    34     9    12    1
    35     5     6    1
    36    29    30    1
    37    30    31    1
    38    33    32    1
    39    31    32    2
    40    32    34    1
