@<TRIPOS>MOLECULE
1skm_SAH_A_1.pdb
 26 28 0 0 0
SMALL
GASTEIGER

@<TRIPOS>ATOM
      1  N        -17.7060   80.5790  185.1170 N.3   328  SAH328     -0.1208
      2  CA       -16.9910   79.9900  186.2830 C.3   328  SAH328      0.1952
      3  CB       -18.0200   79.6090  187.3390 C.3   328  SAH328      0.0422
      4  CG       -18.6690   80.8590  187.9730 C.3   328  SAH328      0.0597
      5  SD       -19.5370   80.5890  189.5350 S.3   328  SAH328     -0.1375
      6  C        -16.1000   78.7750  185.8140 C.2   328  SAH328      0.3819
      7  O        -15.7790   78.7500  184.5750 O.co2 328  SAH328     -0.2441
      8  OXT      -15.4970   78.0490  186.7050 O.co2 328  SAH328     -0.2441
      9  C5'      -19.6850   82.3040  190.0590 C.3   328  SAH328      0.0899
     10  C4'      -18.3290   82.9180  190.4830 C.3   328  SAH328      0.1630
     11  O4'      -18.6400   84.2550  190.8680 O.3   328  SAH328     -0.3153
     12  C3'      -17.5820   82.1960  191.7270 C.3   328  SAH328      0.2168
     13  O3'      -16.2660   81.6780  191.4550 O.3   328  SAH328     -0.2175
     14  C2'      -17.5790   83.3350  192.7420 C.3   328  SAH328      0.2569
     15  O2'      -16.5170   83.3670  193.7060 O.3   328  SAH328     -0.2130
     16  C1'      -17.6800   84.5760  191.8690 C.3   328  SAH328      0.3185
     17  N9       -18.2330   85.7830  192.4670 N.pl3 328  SAH328     -0.1439
     18  C8       -19.4140   85.9240  193.2850 C.3   328  SAH328      0.3377
     19  N7       -19.6090   87.1460  193.6130 N.2   328  SAH328     -0.2095
     20  C5       -18.5740   87.8830  193.0320 C.2   328  SAH328      0.2526
     21  C6       -18.1840   89.2910  193.0400 C.2   328  SAH328      0.4393
     22  N6       -18.8950   90.1900  193.7090 N.pl3 328  SAH328      0.2180
     23  N1       -17.0030   89.7400  192.3570 N.2   328  SAH328      0.0021
     24  C2       -16.2550   88.8240  191.7000 C.3   328  SAH328      0.5254
     25  N3       -16.5040   87.4610  191.6240 N.2   328  SAH328     -0.0055
     26  C4       -17.6980   87.0540  192.3120 C.2   328  SAH328      0.3518
@<TRIPOS>BOND
     1     7     6   ar
     2     1     2    1
     3     6     2    1
     4     6     8   ar
     5     2     3    1
     6     3     4    1
     7     4     5    1
     8     5     9    1
     9     9    10    1
    10    10    11    1
    11    10    12    1
    12    11    16    1
    13    13    12    1
    14    25    24    1
    15    25    26    2
    16    24    23    1
    17    12    14    1
    18    16    17    1
    19    16    14    1
    20    26    17    1
    21    26    20    1
    22    23    21    2
    23    17    18    1
    24    14    15    1
    25    20    21    1
    26    20    19    2
    27    21    22    1
    28    18    19    1
