@<TRIPOS>MOLECULE
1skq_GDP_A_1.pdb
 28 30 0 0 0
SMALL
GASTEIGER

@<TRIPOS>ATOM
      1  PB        40.0320   14.7300    4.4350 P.3   500  GDP500      0.5373
      2  O1B       40.1820   13.6540    3.4200 O.2   500  GDP500     -0.2221
      3  O2B       38.6680   15.3080    4.4400 O.3   500  GDP500     -0.1143
      4  O3B       40.2880   14.3800    5.8390 O.3   500  GDP500     -0.1143
      5  O3A       40.8570   16.1100    4.2430 O.3   500  GDP500     -0.2261
      6  PA        42.3840   16.3220    4.3500 P.3   500  GDP500      0.2231
      7  O1A       42.2440   17.0250    5.6080 O.3   500  GDP500     -0.4370
      8  O2A       43.2950   15.1550    4.5060 O.2   500  GDP500     -0.5169
      9  O5'       42.7000   17.4740    3.2960 O.3   500  GDP500     -0.3111
     10  C5'       42.8920   17.2520    1.9110 C.3   500  GDP500      0.1813
     11  C4'       44.0780   18.1000    1.5110 C.3   500  GDP500      0.1799
     12  O4'       43.8080   19.5210    1.3760 O.3   500  GDP500     -0.3326
     13  C3'       45.2220   18.0820    2.5790 C.3   500  GDP500      0.2158
     14  O3'       46.2850   17.5950    1.7230 O.3   500  GDP500     -0.2175
     15  C2'       45.4390   19.5170    3.0690 C.3   500  GDP500      0.2310
     16  O2'       46.7650   19.9550    3.1740 O.3   500  GDP500     -0.2158
     17  C1'       44.5550   20.3400    2.1890 C.3   500  GDP500      0.2293
     18  N9        43.6040   21.2600    2.8470 N.pl3 500  GDP500     -0.2354
     19  C8        42.6230   21.1150    3.7790 C.3   500  GDP500      0.2246
     20  N7        42.0230   22.2110    4.0450 N.2   500  GDP500     -0.2322
     21  C5        42.6090   23.1480    3.2680 C.2   500  GDP500      0.2182
     22  C6        42.3870   24.5700    3.0940 C.1   500  GDP500      0.2372
     23  O6        41.5780   25.2190    3.6480 O.2   500  GDP500     -0.2069
     24  N1        43.2470   25.2290    2.1550 N.2   500  GDP500     -0.2485
     25  C2        44.2490   24.5620    1.4300 C.1   500  GDP500      0.2531
     26  N2        44.9960   25.2790    0.5770 N.pl3 500  GDP500     -0.0226
     27  N3        44.4590   23.1940    1.5900 N.2   500  GDP500     -0.3074
     28  C4        43.6110   22.5980    2.5050 C.2   500  GDP500      0.2300
@<TRIPOS>BOND
     1    26    25    1
     2    12    11    1
     3    12    17    1
     4    25    27    2
     5    25    24    2
     6    11    10    1
     7    11    13    1
     8    27    28    2
     9    14    13    1
    10    10     9    1
    11    24    22    2
    12    17    18    1
    13    17    15    1
    14    28    18    1
    15    28    21    1
    16    13    15    1
    17    18    19    1
    18    15    16    1
    19    22    21    1
    20    22    23    2
    21    21    20    2
    22     9     6    1
    23     2     1    2
    24    19    20    1
    25     5     6    1
    26     5     1    1
    27     6     8    2
    28     6     7    1
    29     1     3    1
    30     1     4    1
