@<TRIPOS>MOLECULE
1skr_DAD_A_1.pdb
 29 31 0 0 0
SMALL
GASTEIGER

@<TRIPOS>ATOM
      1  PG        42.1100   24.4220   -6.9610 P.3   4004  DAD4004     0.5373
      2  O1G       43.5350   24.5400   -7.3040 O.3   4004  DAD4004    -0.1143
      3  O2G       41.3490   23.2190   -7.3780 O.3   4004  DAD4004    -0.1143
      4  O3G       41.4650   25.6760   -7.5290 O.2   4004  DAD4004    -0.2221
      5  PB        42.4960   23.9640   -4.1040 P.3   4004  DAD4004     0.2277
      6  O1B       41.3660   23.4830   -3.2790 O.3   4004  DAD4004    -0.4368
      7  O2B       43.5750   23.0190   -4.4760 O.2   4004  DAD4004    -0.5168
      8  O3B       41.8970   24.6770   -5.3990 O.3   4004  DAD4004    -0.2258
      9  PA        44.4670   26.0570   -3.6550 P.3   4004  DAD4004     0.2189
     10  O1A       45.2630   25.4030   -4.7130 O.2   4004  DAD4004    -0.5170
     11  O2A       44.0920   27.4860   -3.7990 O.3   4004  DAD4004    -0.4371
     12  O3A       43.1410   25.2190   -3.3650 O.3   4004  DAD4004    -0.2700
     13  O5'       45.2020   25.8820   -2.2500 O.3   4004  DAD4004    -0.3113
     14  C5'       45.8490   24.6590   -1.8970 C.3   4004  DAD4004     0.1786
     15  C4'       45.4020   24.2020   -0.5230 C.3   4004  DAD4004     0.1493
     16  O4'       45.7320   25.2180    0.4630 O.3   4004  DAD4004    -0.3183
     17  C3'       43.9070   23.9890   -0.3560 C.3   4004  DAD4004     0.0392
     18  C2'       43.7260   24.1440    1.1490 C.3   4004  DAD4004     0.0823
     19  C1'       44.7330   25.2500    1.4680 C.3   4004  DAD4004     0.2847
     20  N9        44.1100   26.5750    1.4850 N.pl3 4004  DAD4004    -0.1461
     21  C8        43.8850   27.4380    0.4350 C.3   4004  DAD4004     0.3377
     22  N7        43.2510   28.5350    0.7800 N.2   4004  DAD4004    -0.2095
     23  C5        43.0530   28.3900    2.1480 C.2   4004  DAD4004     0.2526
     24  C6        42.4290   29.2080    3.1100 C.2   4004  DAD4004     0.4393
     25  N6        41.8510   30.3770    2.8250 N.pl3 4004  DAD4004     0.2180
     26  N1        42.4140   28.7720    4.3920 N.2   4004  DAD4004     0.0021
     27  C2        42.9810   27.5960    4.6750 C.3   4004  DAD4004     0.5254
     28  N3        43.5900   26.7360    3.8620 N.2   4004  DAD4004    -0.0055
     29  C4        43.5920   27.1950    2.5970 C.2   4004  DAD4004     0.3518
@<TRIPOS>BOND
     1     4     1    2
     2     3     1    1
     3     2     1    1
     4     1     8    1
     5     8     5    1
     6    10     9    2
     7     7     5    2
     8     5    12    1
     9     5     6    1
    10    11     9    1
    11     9    12    1
    12     9    13    1
    13    13    14    1
    14    14    15    1
    15    15    17    1
    16    15    16    1
    17    17    18    1
    18    21    22    1
    19    21    20    1
    20    16    19    1
    21    22    23    2
    22    18    19    1
    23    19    20    1
    24    20    29    1
    25    23    29    1
    26    23    24    1
    27    29    28    2
    28    25    24    1
    29    24    26    2
    30    28    27    1
    31    26    27    1
