@<TRIPOS>MOLECULE
1sl0_DAD_A_1.pdb
 29 31 0 0 0
SMALL
GASTEIGER

@<TRIPOS>ATOM
      1  PG       -12.7850   85.3050   27.4030 P.3   4004  DAD4004     0.5373
      2  O1G      -13.2590   83.9850   27.9030 O.3   4004  DAD4004    -0.1143
      3  O2G      -13.2310   86.5500   28.0830 O.3   4004  DAD4004    -0.1143
      4  O3G      -13.2670   85.4090   25.9620 O.2   4004  DAD4004    -0.2221
      5  PB       -10.1120   84.1390   27.5270 P.3   4004  DAD4004     0.2277
      6  O1B       -8.8440   84.6160   26.9080 O.2   4004  DAD4004    -0.5168
      7  O2B      -10.1110   83.7420   28.9640 O.3   4004  DAD4004    -0.4368
      8  O3B      -11.1850   85.3120   27.3430 O.3   4004  DAD4004    -0.2258
      9  PA       -10.3680   82.6320   25.1160 P.3   4004  DAD4004     0.2189
     10  O1A       -9.7950   83.8630   24.5140 O.2   4004  DAD4004    -0.5170
     11  O2A      -11.6220   82.0650   24.5580 O.3   4004  DAD4004    -0.4371
     12  O3A      -10.6130   82.8830   26.6740 O.3   4004  DAD4004    -0.2700
     13  O5'       -9.2290   81.5230   25.0130 O.3   4004  DAD4004    -0.3113
     14  C5'       -9.5100   80.1370   25.2060 C.3   4004  DAD4004     0.1786
     15  C4'       -8.3390   79.4590   25.8800 C.3   4004  DAD4004     0.1493
     16  O4'       -7.1680   79.5140   25.0230 O.3   4004  DAD4004    -0.3183
     17  C3'       -7.9190   80.0890   27.2120 C.3   4004  DAD4004     0.0392
     18  C2'       -6.6620   80.8650   26.8610 C.3   4004  DAD4004     0.0823
     19  C1'       -6.0620   79.9930   25.7770 C.3   4004  DAD4004     0.2847
     20  N9        -5.1290   80.6690   24.8710 N.pl3 4004  DAD4004    -0.1461
     21  C8        -5.2810   81.8640   24.2050 C.3   4004  DAD4004     0.3377
     22  N7        -4.2430   82.2000   23.4760 N.2   4004  DAD4004    -0.2095
     23  C5        -3.3470   81.1560   23.6720 C.2   4004  DAD4004     0.2526
     24  C6        -2.0530   80.9110   23.1720 C.2   4004  DAD4004     0.4393
     25  N6        -1.4130   81.7350   22.3380 N.pl3 4004  DAD4004     0.2180
     26  N1        -1.4320   79.7720   23.5610 N.2   4004  DAD4004     0.0021
     27  C2        -2.0760   78.9440   24.3940 C.3   4004  DAD4004     0.5254
     28  N3        -3.2890   79.0640   24.9310 N.2   4004  DAD4004    -0.0055
     29  C4        -3.8790   80.2060   24.5260 C.2   4004  DAD4004     0.3518
@<TRIPOS>BOND
     1    25    24    1
     2    24    26    2
     3    24    23    1
     4    22    23    2
     5    22    21    1
     6    26    27    1
     7    23    29    1
     8    21    20    1
     9    27    28    1
    10    10     9    2
    11    29    20    1
    12    29    28    2
    13    11     9    1
    14    20    19    1
    15    13     9    1
    16    13    14    1
    17    16    19    1
    18    16    15    1
    19     9    12    1
    20    14    15    1
    21    19    18    1
    22    15    17    1
    23     4     1    2
    24    12     5    1
    25    18    17    1
    26     6     5    2
    27     8     1    1
    28     8     5    1
    29     1     2    1
    30     1     3    1
    31     5     7    1
