@<TRIPOS>MOLECULE
1sl2_DAD_A_1.pdb
 29 31 0 0 0
SMALL
GASTEIGER

@<TRIPOS>ATOM
      1  PG        41.6970   24.1200   -6.7060 P.3   4004  DAD4004     0.5373
      2  O1G       43.1370   23.8280   -6.9370 O.3   4004  DAD4004    -0.1143
      3  O2G       40.6850   23.0510   -6.9030 O.3   4004  DAD4004    -0.1143
      4  O3G       41.2960   25.3030   -7.5770 O.2   4004  DAD4004    -0.2221
      5  PB        41.5530   24.2860   -3.7450 P.3   4004  DAD4004     0.2277
      6  O1B       40.5970   25.1470   -2.9910 O.3   4004  DAD4004    -0.4368
      7  O2B       41.3720   22.8200   -3.7260 O.2   4004  DAD4004    -0.5168
      8  O3B       41.5150   24.7820   -5.2640 O.3   4004  DAD4004    -0.2258
      9  PA        43.9340   25.8200   -3.3980 P.3   4004  DAD4004     0.2189
     10  O1A       44.6870   25.5460   -4.6450 O.2   4004  DAD4004    -0.5170
     11  O2A       43.1670   27.0840   -3.2600 O.3   4004  DAD4004    -0.4371
     12  O3A       42.9860   24.5710   -3.1160 O.3   4004  DAD4004    -0.2700
     13  O5'       44.8940   25.6880   -2.1300 O.3   4004  DAD4004    -0.3113
     14  C5'       45.5210   24.4460   -1.7960 C.3   4004  DAD4004     0.1786
     15  C4'       45.0340   23.9540   -0.4490 C.3   4004  DAD4004     0.1493
     16  O4'       45.3420   24.9490    0.5630 O.3   4004  DAD4004    -0.3183
     17  C3'       43.5310   23.7410   -0.3310 C.3   4004  DAD4004     0.0392
     18  C2'       43.2890   23.8990    1.1650 C.3   4004  DAD4004     0.0823
     19  C1'       44.3190   24.9660    1.5420 C.3   4004  DAD4004     0.2847
     20  N9        43.7650   26.3190    1.6220 N.pl3 4004  DAD4004    -0.1461
     21  C8        43.6080   27.2420    0.6160 C.3   4004  DAD4004     0.3377
     22  N7        43.0780   28.3740    1.0140 N.2   4004  DAD4004    -0.2095
     23  C5        42.8720   28.1850    2.3740 C.2   4004  DAD4004     0.2526
     24  C6        42.3300   29.0160    3.3770 C.2   4004  DAD4004     0.4393
     25  N6        41.8800   30.2550    3.1530 N.pl3 4004  DAD4004     0.2180
     26  N1        42.2650   28.5200    4.6350 N.2   4004  DAD4004     0.0021
     27  C2        42.7100   27.2770    4.8570 C.3   4004  DAD4004     0.5254
     28  N3        43.2350   26.4030    4.0000 N.2   4004  DAD4004    -0.0055
     29  C4        43.2890   26.9240    2.7620 C.2   4004  DAD4004     0.3518
@<TRIPOS>BOND
     1     4     1    2
     2     2     1    1
     3     3     1    1
     4     1     8    1
     5     8     5    1
     6    10     9    2
     7     5     7    2
     8     5    12    1
     9     5     6    1
    10     9    11    1
    11     9    12    1
    12     9    13    1
    13    13    14    1
    14    14    15    1
    15    15    17    1
    16    15    16    1
    17    17    18    1
    18    16    19    1
    19    21    22    1
    20    21    20    1
    21    22    23    2
    22    18    19    1
    23    19    20    1
    24    20    29    1
    25    23    29    1
    26    23    24    1
    27    29    28    2
    28    25    24    1
    29    24    26    2
    30    28    27    1
    31    26    27    1
