@<TRIPOS>MOLECULE
1sl3_170_A_1.pdb
 37 40 0 0 0
SMALL
GASTEIGER

@<TRIPOS>ATOM
      1  C8        19.8850  -14.4930   26.0920 C.2   1001  1701001     0.0039
      2  C2        19.8090  -15.8920   25.7160 C.3   1001  1701001     0.1970
      3  N1        20.8840  -16.4990   25.0550 N.4   1001  1701001    -0.1976
      4  C4        22.0630  -15.8640   24.6980 C.2   1001  1701001     0.1032
      5  C5        22.1840  -14.4770   25.0450 C.2   1001  1701001     0.0205
      6  C6        21.0990  -13.8170   25.7440 C.2   1001  1701001    -0.0009
      7  C11       18.5420  -16.7220   25.9220 C.3   1001  1701001     0.3080
      8  C1        17.9270  -17.1560   24.6050 C.3   1001  1701001     0.1826
      9  N18       17.2390  -16.0490   23.9180 N.pl3 1001  1701001    -0.2104
     10  C21       17.9430  -15.3750   22.8840 C.ar  1001  1701001     0.2051
     11  C22       17.4220  -14.1380   22.2760 C.ar  1001  1701001     0.2951
     12  N23       18.1450  -13.5090   21.2900 N.ar  1001  1701001    -0.2737
     13  C24       19.4450  -13.9240   20.8140 C.ar  1001  1701001     0.1410
     14  C25       19.9520  -15.0780   21.4460 C.ar  1001  1701001     0.1295
     15  N3        19.2190  -15.7850   22.3930 N.ar  1001  1701001    -0.2210
     16  O28       16.3470  -13.6760   22.6470 O.2   1001  1701001    -0.2638
     17 CL2        20.2940  -13.0680   19.6270 Cl    1001  1701001    -0.0614
     18  C33       17.6120  -12.2700   20.6890 C.3   1001  1701001     0.1966
     19  C34       16.1360  -12.4120   20.3520 C.2   1001  1701001     0.2649
     20  N37       15.3990  -11.3120   20.5550 N.am  1001  1701001    -0.1989
     21  O38       15.6960  -13.4630   19.8970 O.2   1001  1701001    -0.2712
     22  C39       13.9620  -11.3520   20.2480 C.3   1001  1701001     0.1430
     23  C40       13.1050  -11.3550   21.5070 C.ar  1001  1701001     0.0181
     24  C43       13.0960  -10.1610   22.3090 C.ar  1001  1701001     0.0103
     25  C44       12.2840  -10.1950   23.4950 C.ar  1001  1701001     0.0575
     26  C45       11.5040  -11.3370   23.8990 C.ar  1001  1701001     0.0129
     27  C50       12.3340  -12.4970   21.9000 C.ar  1001  1701001     0.0840
     28  C47       11.5100  -12.5220   23.0980 C.ar  1001  1701001     0.0199
     29  F1        18.8320  -17.8780   26.5420 F     1001  1701001    -0.1999
     30  F2        17.6180  -16.0780   26.6550 F     1001  1701001    -0.1999
     31 CL1        12.2380   -8.7570   24.4850 Cl    1001  1701001    -0.0823
     32  O1        20.7720  -17.8030   24.7230 O.3   1001  1701001    -0.0837
     33  N14       13.2350  -15.7030   20.5450 N.ar  1001  1701001    -0.1045
     34  N13       12.3840  -15.2320   19.8030 N.ar  1001  1701001    -0.0222
     35  N12       11.9670  -14.1020   20.2010 N.ar  1001  1701001    -0.0385
     36  N11       12.4750  -13.6680   21.2150 N.ar  1001  1701001    -0.1888
     37  C46       13.3510  -14.7260   21.5840 C.ar  1001  1701001     0.2258
@<TRIPOS>BOND
     1    17    13    1
     2    34    35   ar
     3    34    33   ar
     4    21    19    2
     5    35    36   ar
     6    22    20    1
     7    22    23    1
     8    19    20   am
     9    19    18    1
    10    33    37   ar
    11    18    12    1
    12    13    12   ar
    13    13    14   ar
    14    36    37   ar
    15    36    27    1
    16    12    11   ar
    17    14    15   ar
    18    23    27   ar
    19    23    24   ar
    20    27    28   ar
    21    11    16    2
    22    11    10   ar
    23    24    25   ar
    24    15    10   ar
    25    10     9    1
    26    28    26   ar
    27    25    26   ar
    28    25    31    1
    29     9     8    1
    30     8     7    1
    31     4     5    2
    32     4     3    1
    33    32     3    1
    34     5     6    1
    35     3     2    1
    36     2     7    1
    37     2     1    1
    38     6     1    2
    39     7    29    1
    40     7    30    1
