@<TRIPOS>MOLECULE
1sl4_MAN_A_1.pdb
 11 11 0 0 0
SMALL
GASTEIGER

@<TRIPOS>ATOM
      1  C1        43.8410   26.3680   17.7000 C.3     3  MAN3        0.1777
      2  C2        45.3680   26.4260   17.8080 C.3     3  MAN3        0.2141
      3  C3        45.9890   25.8540   16.5340 C.3     3  MAN3        0.2173
      4  C4        45.4910   24.4290   16.3180 C.3     3  MAN3        0.2142
      5  C5        43.9570   24.4130   16.2870 C.3     3  MAN3        0.1810
      6  C6        43.3810   23.0150   16.1950 C.3     3  MAN3        0.2141
      7  O2        45.7920   25.6570   18.9230 O.3     3  MAN3       -0.2176
      8  O3        47.4040   25.8540   16.6440 O.3     3  MAN3       -0.2175
      9  O4        46.0040   23.9270   15.0920 O.3     3  MAN3       -0.2176
     10  O5        43.4300   25.0190   17.4920 O.3     3  MAN3       -0.3481
     11  O6        43.8040   22.2070   17.2840 O.3     3  MAN3       -0.2176
@<TRIPOS>BOND
     1     9     4    1
     2     6     5    1
     3     6    11    1
     4     5     4    1
     5     5    10    1
     6     4     3    1
     7     3     8    1
     8     3     2    1
     9    10     1    1
    10     1     2    1
    11     2     7    1
