@<TRIPOS>MOLECULE
1sl5_FUC_A_1.pdb
 10 10 0 0 0
SMALL
GASTEIGER

@<TRIPOS>ATOM
      1  C1        30.2460   -5.8250   -1.4160 C.3     3  FUC3        0.1776
      2  C2        29.7470   -4.4970   -0.8400 C.3     3  FUC3        0.2141
      3  C3        28.3590   -4.6640   -0.2060 C.3     3  FUC3        0.2172
      4  C4        28.3620   -5.8180    0.7960 C.3     3  FUC3        0.2116
      5  C5        28.8110   -7.0840    0.0760 C.3     3  FUC3        0.1483
      6  C6        28.8780   -8.2890    0.9960 C.3     3  FUC3        0.0349
      7  O2        29.6550   -3.5570   -1.9030 O.3     3  FUC3       -0.2176
      8  O3        27.9830   -3.4630    0.4500 O.3     3  FUC3       -0.2175
      9  O4        29.2610   -5.5220    1.8570 O.3     3  FUC3       -0.2177
     10  O5        30.1340   -6.8840   -0.4620 O.3     3  FUC3       -0.3508
@<TRIPOS>BOND
     1     7     2    1
     2     1     2    1
     3     1    10    1
     4     2     3    1
     5    10     5    1
     6     3     8    1
     7     3     4    1
     8     5     4    1
     9     5     6    1
    10     4     9    1
