@<TRIPOS>MOLECULE
1sl5_GAL_A_1.pdb
 11 11 0 0 0
SMALL
GASTEIGER

@<TRIPOS>ATOM
      1  C1        26.3400   -7.6990   -3.0690 C.3     1  GAL1        0.1777
      2  C2        25.3990   -8.5240   -2.2010 C.3     1  GAL1        0.2141
      3  C3        23.9920   -7.9340   -2.2490 C.3     1  GAL1        0.2173
      4  C4        24.0250   -6.4440   -1.8840 C.3     1  GAL1        0.2142
      5  C5        25.0430   -5.7160   -2.7640 C.3     1  GAL1        0.1810
      6  C6        25.1990   -4.2540   -2.3970 C.3     1  GAL1        0.2141
      7  O2        25.3780   -9.8640   -2.6710 O.3     1  GAL1       -0.2176
      8  O3        23.1580   -8.6320   -1.3380 O.3     1  GAL1       -0.2175
      9  O4        24.3820   -6.2920   -0.5150 O.3     1  GAL1       -0.2176
     10  O5        26.3400   -6.3330   -2.6310 O.3     1  GAL1       -0.3481
     11  O6        24.0310   -3.5230   -2.7390 O.3     1  GAL1       -0.2176
@<TRIPOS>BOND
     1     1    10    1
     2     1     2    1
     3     5    10    1
     4     5     6    1
     5     5     4    1
     6    11     6    1
     7     7     2    1
     8     3     2    1
     9     3     4    1
    10     3     8    1
    11     4     9    1
