@<TRIPOS>MOLECULE
1sl6_GAL_F_1.pdb
 11 11 0 0 0
SMALL
GASTEIGER

@<TRIPOS>ATOM
      1  C1       108.3690   35.6860   19.8850 C.3    11  GAL11       0.1777
      2  C2       108.7770   35.9050   18.4310 C.3    11  GAL11       0.2141
      3  C3       107.8650   35.1020   17.4960 C.3    11  GAL11       0.2173
      4  C4       107.7710   33.6290   17.9340 C.3    11  GAL11       0.2142
      5  C5       107.4730   33.5090   19.4380 C.3    11  GAL11       0.1810
      6  C6       107.5740   32.0780   19.9400 C.3    11  GAL11       0.2141
      7  O2       108.6910   37.2870   18.1170 O.3    11  GAL11      -0.2176
      8  O3       108.3700   35.1700   16.1690 O.3    11  GAL11      -0.2175
      9  O4       108.9790   32.9510   17.6310 O.3    11  GAL11      -0.2176
     10  O5       108.4200   34.2880   20.2010 O.3    11  GAL11      -0.3481
     11  O6       106.6540   31.2240   19.2710 O.3    11  GAL11      -0.2176
@<TRIPOS>BOND
     1     8     3    1
     2     3     4    1
     3     3     2    1
     4     9     4    1
     5     4     5    1
     6     7     2    1
     7     2     1    1
     8    11     6    1
     9     5     6    1
    10     5    10    1
    11     1    10    1
