@<TRIPOS>MOLECULE
1sl6_FUC_A_1.pdb
 10 10 0 0 0
SMALL
GASTEIGER

@<TRIPOS>ATOM
      1  C1        98.2910   43.1680   57.0380 C.3    13  FUC13       0.1776
      2  C2        98.4260   41.9820   58.0080 C.3    13  FUC13       0.2141
      3  C3        98.6820   40.6770   57.2510 C.3    13  FUC13       0.2172
      4  C4        99.8660   40.8400   56.3080 C.3    13  FUC13       0.2116
      5  C5        99.6300   42.0360   55.3780 C.3    13  FUC13       0.1483
      6  C6       100.7970   42.3080   54.4480 C.3    13  FUC13       0.0349
      7  O2        97.2380   41.8560   58.7780 O.3    13  FUC13      -0.2176
      8  O3        98.9690   39.6460   58.1810 O.3    13  FUC13      -0.2175
      9  O4       101.0430   41.0450   57.0720 O.3    13  FUC13      -0.2177
     10  O5        99.4150   43.2310   56.1590 O.3    13  FUC13      -0.3508
@<TRIPOS>BOND
     1     6     5    1
     2     5    10    1
     3     5     4    1
     4    10     1    1
     5     4     9    1
     6     4     3    1
     7     1     2    1
     8     3     2    1
     9     3     8    1
    10     2     7    1
