@<TRIPOS>MOLECULE
1sl9_CZH_A_1.pdb
 33 37 0 0 0
SMALL
GASTEIGER

@<TRIPOS>ATOM
      1  N1         7.8520    6.2860   33.1300 N.2   201  CZH201     -0.0275
      2  C2         8.2390    6.2720   34.5040 C.3   201  CZH201      0.3915
      3  C3         6.9270    5.6070   35.1590 C.2   201  CZH201      0.3887
      4  N4         6.1610    5.2220   34.1670 N.am  201  CZH201     -0.1262
      5  C5         4.8990    4.5550   34.2010 C.3   201  CZH201      0.2691
      6  C6         4.2270    4.4320   32.9780 C.2   201  CZH201      0.1563
      7  N7         4.7350    4.9300   31.8740 N.2   201  CZH201     -0.3986
      8  C8         5.8460    5.5390   31.8070 C.2   201  CZH201      0.1948
      9  C9         6.6640    5.6940   32.9640 C.2   201  CZH201      0.3543
     10  C10        9.5420    5.6820   34.6730 C.3   201  CZH201      0.1200
     11  C11        9.9920    5.6240   35.9710 C.ar  201  CZH201     -0.0147
     12  C12       10.5230    6.8310   36.5720 C.ar  201  CZH201     -0.0040
     13  C13       11.0910    6.8100   38.0070 C.ar  201  CZH201     -0.0003
     14  C14       10.8360    5.6550   38.6990 C.ar  201  CZH201     -0.0000
     15  C15       10.3000    4.5240   38.2040 C.ar  201  CZH201     -0.0003
     16  C16        9.9140    4.5390   36.8920 C.ar  201  CZH201     -0.0040
     17  O18        6.7040    5.3040   36.2470 O.2   201  CZH201     -0.2391
     18  C19        2.9220    3.8060   32.9200 C.ar  201  CZH201      0.0297
     19  C20        2.5040    3.2400   31.7560 C.ar  201  CZH201      0.0056
     20  C21        1.1810    2.7220   31.6600 C.ar  201  CZH201      0.0421
     21  C22        0.3380    2.7180   32.8370 C.ar  201  CZH201      0.1957
     22  C23        0.7890    3.3210   33.9770 C.ar  201  CZH201      0.0421
     23  C24        2.0690    3.8260   34.0390 C.ar  201  CZH201      0.0056
     24  O25       -0.9080    2.1910   32.7140 O.3   201  CZH201     -0.2866
     25  C26        6.3900    6.1230   30.4830 C.3   201  CZH201      0.0931
     26  C27        6.9430    4.9220   29.6720 C.ar  201  CZH201     -0.0149
     27  C28        8.2970    4.7760   29.4310 C.ar  201  CZH201     -0.0038
     28  C29        8.8160    3.7450   28.6700 C.ar  201  CZH201     -0.0003
     29  C30        7.9660    2.8710   28.1480 C.ar  201  CZH201     -0.0000
     30  C31        6.6080    2.9600   28.3060 C.ar  201  CZH201     -0.0003
     31  C32        6.0930    4.0650   29.1080 C.ar  201  CZH201     -0.0038
     32  O33        8.2710    7.5780   34.9990 O.3   201  CZH201     -0.1337
     33  O34        7.0870    8.2730   34.6970 O.3   201  CZH201     -0.0302
@<TRIPOS>BOND
     1    29    30   ar
     2    29    28   ar
     3    30    31   ar
     4    28    27   ar
     5    31    26   ar
     6    27    26   ar
     7    26    25    1
     8    25     8    1
     9    20    19   ar
    10    20    21   ar
    11    19    18   ar
    12     8     7    2
    13     8     9    1
    14     7     6    2
    15    24    21    1
    16    21    22   ar
    17    18     6    1
    18    18    23   ar
    19     9     1    2
    20     9     4    1
    21     6     5    1
    22     1     2    1
    23    22    23   ar
    24     4     5    1
    25     4     3   am
    26     2    10    1
    27     2    32    1
    28     2     3    1
    29    10    11    1
    30    33    32    1
    31     3    17    2
    32    11    12   ar
    33    11    16   ar
    34    12    13   ar
    35    16    15   ar
    36    13    14   ar
    37    15    14   ar
