@<TRIPOS>MOLECULE
1sla_GAL_A_1.pdb
 11 11 0 0 0
SMALL
GASTEIGER

@<TRIPOS>ATOM
      1  C1        35.3580   62.5650    7.7610 C.3   402  GAL402      0.1777
      2  C2        35.8020   63.7020    8.6860 C.3   402  GAL402      0.2141
      3  C3        36.7350   63.1770    9.7840 C.3   402  GAL402      0.2173
      4  C4        36.1040   61.9970   10.5090 C.3   402  GAL402      0.2142
      5  C5        35.6140   60.9510    9.5090 C.3   402  GAL402      0.1810
      6  C6        34.8570   59.8320   10.1930 C.3   402  GAL402      0.2141
      7  O2        36.4750   64.6980    7.9310 O.3   402  GAL402     -0.2176
      8  O3        36.9990   64.2080   10.7250 O.3   402  GAL402     -0.2175
      9  O4        35.0250   62.4470   11.3140 O.3   402  GAL402     -0.2176
     10  O5        34.7180   61.5460    8.5370 O.3   402  GAL402     -0.3481
     11  O6        34.6920   58.7290    9.3190 O.3   402  GAL402     -0.2176
@<TRIPOS>BOND
     1     1    10    1
     2     1     2    1
     3     7     2    1
     4    10     5    1
     5     2     3    1
     6    11     6    1
     7     5     6    1
     8     5     4    1
     9     3     4    1
    10     3     8    1
    11     4     9    1
