@<TRIPOS>MOLECULE
1slb_GAL_A_1.pdb
 11 11 0 0 0
SMALL
GASTEIGER

@<TRIPOS>ATOM
      1  C1        45.9700    0.7160   33.7690 C.3   352  GAL352      0.1777
      2  C2        45.3920    1.7280   34.7450 C.3   352  GAL352      0.2141
      3  C3        45.2810    1.1080   36.1260 C.3   352  GAL352      0.2173
      4  C4        44.4410   -0.1570   36.0570 C.3   352  GAL352      0.2142
      5  C5        44.9680   -1.1040   34.9880 C.3   352  GAL352      0.1810
      6  C6        43.9890   -2.2370   34.7920 C.3   352  GAL352      0.2141
      7  O2        46.2130    2.8830   34.8090 O.3   352  GAL352     -0.2176
      8  O3        44.6710    2.0370   37.0110 O.3   352  GAL352     -0.2175
      9  O4        43.0870    0.1650   35.7800 O.3   352  GAL352     -0.2176
     10  O5        45.1040   -0.4290   33.7120 O.3   352  GAL352     -0.3481
     11  O6        44.6520   -3.4250   34.4120 O.3   352  GAL352     -0.2176
@<TRIPOS>BOND
     1    10     1    1
     2    10     5    1
     3     1     2    1
     4    11     6    1
     5     2     7    1
     6     2     3    1
     7     6     5    1
     8     5     4    1
     9     9     4    1
    10     4     3    1
    11     3     8    1
