@<TRIPOS>MOLECULE
1slc_GAL_A_1.pdb
 11 11 0 0 0
SMALL
GASTEIGER

@<TRIPOS>ATOM
      1  C1        26.0970   25.9480  -17.4840 C.3   352  GAL352      0.1777
      2  C2        24.6280   26.3220  -17.3260 C.3   352  GAL352      0.2141
      3  C3        24.3570   26.6990  -15.8880 C.3   352  GAL352      0.2173
      4  C4        24.7240   25.5210  -14.9920 C.3   352  GAL352      0.2142
      5  C5        26.1850   25.1200  -15.2280 C.3   352  GAL352      0.1810
      6  C6        26.5300   23.8550  -14.4740 C.3   352  GAL352      0.2141
      7  O2        24.3050   27.4180  -18.1690 O.3   352  GAL352     -0.2176
      8  O3        22.9890   27.0250  -15.7430 O.3   352  GAL352     -0.2175
      9  O4        23.8720   24.4160  -15.2740 O.3   352  GAL352     -0.2176
     10  O5        26.4150   24.8410  -16.6240 O.3   352  GAL352     -0.3481
     11  O6        27.9110   23.5660  -14.5630 O.3   352  GAL352     -0.2176
@<TRIPOS>BOND
     1     7     2    1
     2     1     2    1
     3     1    10    1
     4     2     3    1
     5    10     5    1
     6     3     8    1
     7     3     4    1
     8     9     4    1
     9     5     4    1
    10     5     6    1
    11    11     6    1
