@<TRIPOS>MOLECULE
1slh_DUD_A_1.pdb
 24 25 0 0 0
SMALL
GASTEIGER

@<TRIPOS>ATOM
      1  N1        75.5830   12.6150   21.5870 N.am  2170  DUD2170    -0.1790
      2  C2        75.5450   13.7360   22.4390 C.1   2170  DUD2170     0.2844
      3  N3        74.5720   14.6770   22.0970 N.2   2170  DUD2170    -0.2452
      4  C4        73.6670   14.6110   20.9990 C.1   2170  DUD2170     0.2182
      5  C5        73.7780   13.4360   20.1740 C.2   2170  DUD2170     0.1242
      6  C6        74.7010   12.5300   20.4890 C.2   2170  DUD2170     0.0928
      7  O2        76.2780   13.8970   23.4190 O.2   2170  DUD2170    -0.1918
      8  O4        72.8540   15.4880   20.7880 O.2   2170  DUD2170    -0.2085
      9  C1'       76.5710   11.5310   21.8370 C.3   2170  DUD2170     0.2090
     10  C2'       75.9240   10.4390   22.6550 C.3   2170  DUD2170     0.0874
     11  C3'       75.5560    9.3210   21.6910 C.3   2170  DUD2170     0.1857
     12  C4'       76.5870    9.5420   20.6570 C.3   2170  DUD2170     0.1773
     13  O4'       76.9910   10.9210   20.6260 O.3   2170  DUD2170    -0.3339
     14  O3'       75.6780    8.0040   22.2830 O.3   2170  DUD2170    -0.2203
     15  C5'       75.9080    9.1800   19.3710 C.3   2170  DUD2170     0.1812
     16  O5'       76.7000    9.3850   18.2660 O.3   2170  DUD2170    -0.3111
     17  PA        75.9150    9.5440   16.8330 P.3   2170  DUD2170     0.2231
     18  O1A       75.7390    8.1950   16.1670 O.2   2170  DUD2170    -0.5169
     19  O2A       74.7060   10.5040   16.9130 O.3   2170  DUD2170    -0.4370
     20  O3A       77.1920   10.2850   16.0900 O.3   2170  DUD2170    -0.2261
     21  PB        78.2000    9.9550   14.8890 P.3   2170  DUD2170     0.5373
     22  O1B       78.0840   10.9990   13.8540 O.2   2170  DUD2170    -0.2221
     23  O2B       77.8090    8.6470   14.3610 O.3   2170  DUD2170    -0.1143
     24  O3B       79.5360    9.9770   15.5680 O.3   2170  DUD2170    -0.1143
@<TRIPOS>BOND
     1    22    21    2
     2    23    21    1
     3    21    24    1
     4    21    20    1
     5    20    17    1
     6    18    17    2
     7    17    19    1
     8    17    16    1
     9    16    15    1
    10    15    12    1
    11     5     6    2
    12     5     4    1
    13     6     1    1
    14    13    12    1
    15    13     9    1
    16    12    11    1
    17     8     4    2
    18     4     3    2
    19     1     9    1
    20     1     2   am
    21    11    14    1
    22    11    10    1
    23     9    10    1
    24     3     2    2
    25     2     7    2
