@<TRIPOS>MOLECULE
1sli_DAN_A_1.pdb
 20 20 0 0 0
SMALL
GASTEIGER

@<TRIPOS>ATOM
      1  C1         1.8630    7.3170   35.7800 C.2   760  DAN760      0.4208
      2  C2         3.1300    7.5020   36.5750 C.2   760  DAN760      0.2163
      3  C3         4.3430    7.4030   35.9720 C.2   760  DAN760      0.0518
      4  C4         5.6450    7.5920   36.7280 C.3   760  DAN760      0.2007
      5  C5         5.3970    7.2880   38.2250 C.3   760  DAN760      0.1722
      6  C6         4.1490    8.0950   38.7300 C.3   760  DAN760      0.2215
      7  C7         3.7810    7.8410   40.2130 C.3   760  DAN760      0.2261
      8  C8         2.6030    8.6310   40.8760 C.3   760  DAN760      0.2185
      9  C9         1.3580    8.9310   40.0250 C.3   760  DAN760      0.2175
     10  C10        7.1780    6.9910   39.9870 C.2   760  DAN760      0.2420
     11  C11        8.5190    7.5940   40.4260 C.3   760  DAN760      0.0964
     12  N5         6.6360    7.6410   38.9340 N.am  760  DAN760     -0.2004
     13  O1A        1.8450    6.7970   34.6740 O.co2 760  DAN760     -0.2371
     14  O1B        0.7920    7.7110   36.2600 O.co2 760  DAN760     -0.2371
     15  O4         6.7160    6.8490   36.1150 O.3   760  DAN760     -0.2162
     16  O6         3.0230    7.7900   37.9060 O.2   760  DAN760     -0.4684
     17  O7         3.7850    6.4400   40.5670 O.3   760  DAN760     -0.2164
     18  O8         2.2570    8.2990   42.2420 O.3   760  DAN760     -0.2174
     19  O9         0.6560    7.7740   39.5460 O.3   760  DAN760     -0.2175
     20  O10        6.7010    6.0120   40.5690 O.2   760  DAN760     -0.2733
@<TRIPOS>BOND
     1    13     1   ar
     2     1    14   ar
     3     1     2    1
     4     3     2    2
     5     3     4    1
     6    15     4    1
     7     2    16    1
     8     4     5    1
     9    16     6    1
    10     5     6    1
    11     5    12    1
    12     6     7    1
    13    12    10   am
    14    19     9    1
    15    10    11    1
    16    10    20    2
    17     9     8    1
    18     7    17    1
    19     7     8    1
    20     8    18    1
