@<TRIPOS>MOLECULE
1sln_INH_A_1.pdb
 44 45 0 0 0
SMALL
GASTEIGER

@<TRIPOS>ATOM
      1  C1       -20.8810   92.7570   80.0450 C.3   256  INH256     -0.0119
      2  C2       -20.6740   91.7610   81.2030 C.3   256  INH256      0.0449
      3  C3       -21.4490   92.1930   82.4460 C.2   256  INH256      0.3453
      4  O4       -22.5710   92.6880   82.2780 O.co2 256  INH256     -0.2480
      5  O5       -20.9680   92.0520   83.6000 O.co2 256  INH256     -0.2480
      6  N6       -19.2180   91.5520   81.4010 N.4   256  INH256      0.3991
      7  C7       -18.4830   92.7610   81.7960 C.3   256  INH256      0.0179
      8  C8       -17.6010   92.4470   83.0160 C.3   256  INH256     -0.0078
      9  C9       -16.6970   93.5990   83.4310 C.3   256  INH256      0.0247
     10  C10      -15.9460   93.4590   84.7170 C.ar  256  INH256     -0.0222
     11  C11      -16.1080   94.3990   85.7320 C.ar  256  INH256     -0.0043
     12  C12      -15.4040   94.2980   86.9130 C.ar  256  INH256     -0.0003
     13  C13      -14.5200   93.2530   87.1000 C.ar  256  INH256     -0.0000
     14  C14      -14.3430   92.3040   86.0990 C.ar  256  INH256     -0.0003
     15  C15      -15.0570   92.4120   84.9130 C.ar  256  INH256     -0.0043
     16  C16      -17.6120   93.1920   80.6250 C.2   256  INH256      0.2027
     17  O17      -17.0520   92.3480   79.9240 O.2   256  INH256     -0.2773
     18  N18      -17.5090   94.4990   80.4140 N.am  256  INH256     -0.3000
     19  C19      -16.6880   95.0260   79.3340 C.3   256  INH256      0.1489
     20  C20      -17.3250   96.2500   78.7240 C.3   256  INH256      0.0326
     21  C21      -18.7080   96.0660   78.2300 C.3   256  INH256      0.0450
     22  C22      -19.1180   97.3930   77.7240 C.3   256  INH256      0.1739
     23  N23      -20.4800   97.4260   77.2320 N.pl3 256  INH256     -0.2651
     24  C24      -21.2060   98.5430   77.2000 C.cat 256  INH256      0.3417
     25  N25      -22.4510   98.5220   76.7260 N.pl3 256  INH256     -0.2918
     26  N26      -20.6810   99.6840   77.6540 N.pl3 256  INH256     -0.2918
     27  C27      -15.3180   95.4410   79.8410 C.2   256  INH256      0.2440
     28  O28      -15.1850   95.8800   80.9810 O.2   256  INH256     -0.2730
     29  N29      -14.3380   95.4060   78.9360 N.am  256  INH256     -0.2826
     30  C30      -13.0100   95.7090   79.0520 C.ar  256  INH256      0.0503
     31  C31      -12.1430   95.2530   78.0650 C.ar  256  INH256      0.0147
     32  C32      -10.7660   95.4940   78.1530 C.ar  256  INH256      0.0013
     33  C33      -10.2570   96.1960   79.2290 C.ar  256  INH256      0.0001
     34  C34      -11.1100   96.6600   80.2160 C.ar  256  INH256      0.0013
     35  C35      -12.4840   96.4150   80.1230 C.ar  256  INH256      0.0147
     36  H40      -18.8260   91.2430   80.4660 H     256  INH256     -0.0829
     37  H51      -17.9370   95.1500   81.0050 H     256  INH256      0.1497
     38  H59      -20.8280   96.5600   76.9110 H     256  INH256      0.2586
     39  H60      -22.8140   99.3850   76.3890 H     256  INH256      0.2545
     40  H61      -22.7610   97.6900   76.2700 H     256  INH256      0.2545
     41  H62      -21.0950  100.3790   78.2530 H     256  INH256      0.2545
     42  H63      -19.8190   99.9660   77.2200 H     256  INH256      0.2545
     43  H64      -14.6110   95.0740   78.0490 H     256  INH256      0.1549
     44  H70      -19.0850   90.8310   82.0820 H     256  INH256     -0.0829
@<TRIPOS>BOND
     1    40    25    1
     2    39    25    1
     3    25    24    2
     4    38    23    1
     5    24    23    1
     6    24    26    1
     7    42    26    1
     8    23    22    1
     9    26    41    1
    10    22    21    1
    11    43    29    1
    12    31    32   ar
    13    31    30   ar
    14    32    33   ar
    15    21    20    1
    16    20    19    1
    17    29    30    1
    18    29    27   am
    19    30    35   ar
    20    33    34   ar
    21    19    27    1
    22    19    18    1
    23    27    28    2
    24    17    16    2
    25     1     2    1
    26    35    34   ar
    27    18    16   am
    28    18    37    1
    29    36     6    1
    30    16     7    1
    31     2     6    1
    32     2     3    1
    33     6     7    1
    34     6    44    1
    35     7     8    1
    36     4     3   ar
    37     3     5   ar
    38     8     9    1
    39     9    10    1
    40    10    15   ar
    41    10    11   ar
    42    15    14   ar
    43    11    12   ar
    44    14    13   ar
    45    12    13   ar
