@<TRIPOS>MOLECULE
1slt_GAL_A_1.pdb
 11 11 0 0 0
SMALL
GASTEIGER

@<TRIPOS>ATOM
      1  C1        -2.1580   20.7950   22.6350 C.3   402  GAL402      0.1777
      2  C2        -1.8310   21.6330   23.8420 C.3   402  GAL402      0.2141
      3  C3        -1.7280   23.1220   23.5280 C.3   402  GAL402      0.2173
      4  C4        -0.8320   23.3590   22.3440 C.3   402  GAL402      0.2142
      5  C5        -1.1590   22.3980   21.2290 C.3   402  GAL402      0.1810
      6  C6        -0.1460   22.3660   20.1290 C.3   402  GAL402      0.2141
      7  O2        -2.7320   21.3660   24.8910 O.3   402  GAL402     -0.2176
      8  O3        -1.0220   23.6790   24.6270 O.3   402  GAL402     -0.2175
      9  O4         0.4560   22.9680   22.8070 O.3   402  GAL402     -0.2176
     10  O5        -1.0670   21.0910   21.7820 O.3   402  GAL402     -0.3481
     11  O6        -0.7660   21.8140   18.9710 O.3   402  GAL402     -0.2176
@<TRIPOS>BOND
     1    11     6    1
     2     6     5    1
     3     5    10    1
     4     5     4    1
     5    10     1    1
     6     4     9    1
     7     4     3    1
     8     1     2    1
     9     3     2    1
    10     3     8    1
    11     2     7    1
