@<TRIPOS>MOLECULE
1sly_BLG_A_1.pdb
 35 36 0 0 0
SMALL
GASTEIGER

@<TRIPOS>ATOM
      1  C1        12.4200   49.1890   43.5190 C.3   619  BLG619      0.2585
      2  C2        12.1870   50.3050   42.4870 C.3   619  BLG619      0.1842
      3  C3        12.7500   49.8200   41.1460 C.3   619  BLG619      0.2085
      4  C4        14.1880   49.3040   41.3020 C.3   619  BLG619      0.2048
      5  C5        14.3250   48.2830   42.4500 C.3   619  BLG619      0.1826
      6  O5        13.7800   48.8120   43.6500 O.3   619  BLG619     -0.3263
      7  O1        11.9340   49.6940   44.7020 O.3   619  BLG619     -0.3301
      8  N2        10.7800   50.6720   42.4180 N.am  619  BLG619     -0.1992
      9  C7        10.2780   51.8680   42.6560 C.2   619  BLG619      0.2420
     10  O7        10.9630   52.8550   42.9130 O.2   619  BLG619     -0.2733
     11  C8         8.7870   51.9970   42.4930 C.3   619  BLG619      0.0964
     12  O3        12.7590   50.8470   40.1680 O.3   619  BLG619     -0.2183
     13  O4        14.5090   48.6800   40.0600 O.3   619  BLG619     -0.2384
     14  S4        15.6230   49.2760   39.1190 S.3   619  BLG619     -0.0001
     15  O41       15.7920   50.7000   39.3740 O.3   619  BLG619     -0.2682
     16  O42       15.1900   49.1120   37.7490 O.2   619  BLG619     -0.3452
     17  O43       16.8430   48.5230   39.3290 O.2   619  BLG619     -0.3452
     18  C6        15.7640   47.9240   42.7650 C.3   619  BLG619      0.2142
     19  O6        16.6980   48.7670   42.1180 O.3   619  BLG619     -0.2176
     20  CA        10.5760   49.4740   46.4660 C.3   619  BLG619      0.1333
     21  CB        11.6780   48.8050   45.6760 C.3   619  BLG619      0.1382
     22  CG        12.7580   48.7220   46.7210 C.3   619  BLG619      0.0579
     23  CD        11.9290   48.1430   47.9080 C.3   619  BLG619      0.1530
     24  N         10.5190   48.6500   47.6640 N.3   619  BLG619     -0.2064
     25  C9         9.2710   49.6410   45.7180 C.3   619  BLG619      0.2018
     26  O9         8.6370   48.3820   45.9140 O.3   619  BLG619     -0.2188
     27  C10       12.3950   48.5360   49.3120 C.2   619  BLG619      0.2573
     28  O10       12.5460   49.6780   49.7620 O.2   619  BLG619     -0.2718
     29  N3        12.4670   47.4480   50.0490 N.am  619  BLG619     -0.2025
     30  C11       12.8180   47.4050   51.4360 C.3   619  BLG619      0.1366
     31  C12       14.3280   47.3620   51.5510 C.3   619  BLG619      0.1286
     32  S         14.5860   46.9410   53.3000 S.3   619  BLG619     -0.1942
     33  OS1       16.0400   47.2970   53.5870 O.3   619  BLG619     -0.3074
     34  OS2       13.5560   47.6500   54.1550 O.3   619  BLG619     -0.3074
     35  OS3       14.3010   45.4690   53.5260 O.3   619  BLG619     -0.3074
@<TRIPOS>BOND
     1    16    14    2
     2    14    17    2
     3    14    15    1
     4    14    13    1
     5    13     4    1
     6    12     3    1
     7     3     4    1
     8     3     2    1
     9     4     5    1
    10    19    18    1
    11     8     2    1
    12     8     9   am
    13     5    18    1
    14     5     6    1
    15     2     1    1
    16    11     9    1
    17     9    10    2
    18     1     6    1
    19     1     7    1
    20     7    21    1
    21    21    20    1
    22    21    22    1
    23    25    26    1
    24    25    20    1
    25    20    24    1
    26    22    23    1
    27    24    23    1
    28    23    27    1
    29    27    28    2
    30    27    29   am
    31    29    30    1
    32    30    31    1
    33    31    32    1
    34    32    35    1
    35    32    33    1
    36    32    34    1
