@<TRIPOS>MOLECULE
1sm2_STU_A_1.pdb
 35 42 0 0 0
SMALL
GASTEIGER

@<TRIPOS>ATOM
      1  O4        22.4260  -11.1890    7.8080 O.3   301  STU301     -0.3186
      2  C25       23.8440  -10.9380    7.6170 C.3   301  STU301      0.2078
      3  C24       24.3480  -10.0430    8.7580 C.3   301  STU301      0.0739
      4  C23       23.3260   -9.7630    9.8150 C.3   301  STU301      0.1086
      5  C22       22.0880   -9.1060    9.1770 C.3   301  STU301      0.1761
      6  C21       21.5030  -10.1570    8.1460 C.3   301  STU301      0.1915
      7  C26       20.3860  -10.8800    8.9030 C.3   301  STU301      0.0566
      8  N2        21.0820   -9.4370    6.9110 N.ar  301  STU301     -0.3054
      9  C18       21.8600   -9.1270    5.8050 C.ar  301  STU301      0.0774
     10  C19       23.2560   -9.5090    5.5120 C.ar  301  STU301      0.0783
     11  C6        23.7960   -9.0280    4.2670 C.ar  301  STU301      0.0293
     12  C7        23.1030   -8.2380    3.3520 C.ar  301  STU301      0.0822
     13  C10       21.8090   -7.8830    3.6240 C.ar  301  STU301      0.0154
     14  C11       21.1230   -8.3110    4.8590 C.ar  301  STU301      0.0173
     15  C12       19.9010   -8.1440    5.4320 C.ar  301  STU301      0.0171
     16  C17       19.8470   -8.8110    6.6630 C.ar  301  STU301      0.0617
     17  C16       18.6170   -8.7030    7.4300 C.ar  301  STU301      0.0172
     18  C15       17.4940   -7.9160    6.9180 C.ar  301  STU301      0.0015
     19  C14       17.5880   -7.2530    5.6540 C.ar  301  STU301      0.0001
     20  C13       18.8100   -7.3760    4.9010 C.ar  301  STU301      0.0015
     21  C9        21.2840   -6.9790    2.4990 C.3   301  STU301      0.1650
     22  N1        22.4740   -6.8630    1.6170 N.2   301  STU301     -0.1976
     23  C8        23.4810   -7.6410    2.0720 C.1   301  STU301      0.1501
     24  O5        24.5440   -7.7940    1.4950 O.2   301  STU301     -0.2222
     25  C5        25.0620   -9.5960    4.3330 C.ar  301  STU301      0.0180
     26  C20       25.2500  -10.3760    5.5560 C.ar  301  STU301      0.0618
     27  C1        26.4660  -11.0660    5.7820 C.ar  301  STU301      0.0172
     28  C2        27.5050  -10.9830    4.7960 C.ar  301  STU301      0.0015
     29  C3        27.3300  -10.2110    3.5960 C.ar  301  STU301      0.0001
     30  C4        26.1080   -9.5100    3.3490 C.ar  301  STU301      0.0015
     31  N3        24.0750  -10.3030    6.3160 N.ar  301  STU301     -0.3039
     32  O6        22.6120   -7.9060    8.5450 O.3   301  STU301     -0.3478
     33  C27       21.8530   -6.7100    8.5560 C.3   301  STU301      0.1743
     34  N4        23.8930   -8.8670   10.8230 N.3   301  STU301     -0.2152
     35  C28       24.7340   -9.5330   11.8500 C.3   301  STU301      0.1075
@<TRIPOS>BOND
     1    24    23    2
     2    22    23    2
     3    22    21    1
     4    23    12    1
     5    21    13    1
     6    30    29   ar
     7    30    25   ar
     8    12    13   ar
     9    12    11   ar
    10    29    28   ar
    11    13    14   ar
    12    11    25   ar
    13    11    10   ar
    14    25    26   ar
    15    28    27   ar
    16    14    15   ar
    17    14     9   ar
    18    20    15   ar
    19    20    19   ar
    20    15    16   ar
    21    10     9   ar
    22    10    31   ar
    23    26    27   ar
    24    26    31   ar
    25    19    18   ar
    26     9     8   ar
    27    31     2    1
    28    16     8   ar
    29    16    17   ar
    30     8     6    1
    31    18    17   ar
    32     2     1    1
    33     2     3    1
    34     1     6    1
    35     6     7    1
    36     6     5    1
    37    32    33    1
    38    32     5    1
    39     3     4    1
    40     5     4    1
    41     4    34    1
    42    34    35    1
