@<TRIPOS>MOLECULE
1sm8_DUT_B_1.pdb
 28 29 0 0 0
SMALL
GASTEIGER

@<TRIPOS>ATOM
      1  N1        -2.5250   -1.3900   -3.8030 N.am  2170  DUT2170    -0.1790
      2  C2        -2.8180   -0.8310   -2.5960 C.1   2170  DUT2170     0.2844
      3  N3        -1.8340   -0.8420   -1.6240 N.2   2170  DUT2170    -0.2452
      4  C4        -0.5550   -1.3950   -1.7700 C.1   2170  DUT2170     0.2182
      5  C5        -0.2220   -2.0020   -3.0480 C.2   2170  DUT2170     0.1242
      6  C6        -1.1590   -2.0120   -4.0300 C.2   2170  DUT2170     0.0928
      7  O2        -3.8740   -0.3370   -2.3840 O.2   2170  DUT2170    -0.1918
      8  O4         0.3280   -1.3120   -0.6510 O.2   2170  DUT2170    -0.2085
      9  C1'       -3.3250   -1.5610   -5.0820 C.3   2170  DUT2170     0.2090
     10  C2'       -3.0880   -0.3600   -5.9040 C.3   2170  DUT2170     0.0874
     11  C3'       -2.4330   -0.8060   -7.1860 C.3   2170  DUT2170     0.1857
     12  C4'       -2.9790   -2.1880   -7.3950 C.3   2170  DUT2170     0.1773
     13  O4'       -3.2360   -2.6520   -6.0580 O.3   2170  DUT2170    -0.3339
     14  O3'       -1.5130   -0.3890   -8.1930 O.3   2170  DUT2170    -0.2203
     15  C5'       -2.2200   -3.5110   -7.6880 C.3   2170  DUT2170     0.1812
     16  O5'       -0.9510   -3.6230   -6.7820 O.3   2170  DUT2170    -0.3112
     17  PA         0.0660   -4.6270   -7.4860 P.3   2170  DUT2170     0.2189
     18  O1A        0.3130   -4.3870   -8.9520 O.2   2170  DUT2170    -0.5170
     19  O2A        1.3080   -4.6070   -6.6500 O.3   2170  DUT2170    -0.4371
     20  O3A       -0.1850   -6.1780   -7.0810 O.3   2170  DUT2170    -0.2700
     21  PB        -0.7380   -7.3070   -8.0740 P.3   2170  DUT2170     0.2277
     22  O1B        0.3020   -7.5140   -9.1350 O.2   2170  DUT2170    -0.5168
     23  O2B       -0.9030   -8.5290   -7.2570 O.3   2170  DUT2170    -0.4368
     24  O3B       -2.1290   -6.8560   -8.7310 O.3   2170  DUT2170    -0.2258
     25  PG        -2.8490   -6.0770  -10.0080 P.3   2170  DUT2170     0.5373
     26  O1G       -3.1100   -7.3990  -10.6490 O.3   2170  DUT2170    -0.1143
     27  O2G       -1.8360   -5.3600  -10.8320 O.2   2170  DUT2170    -0.2221
     28  O3G       -4.1900   -5.3070   -9.9470 O.3   2170  DUT2170    -0.1143
@<TRIPOS>BOND
     1    27    25    2
     2    26    25    1
     3    25    28    1
     4    25    24    1
     5    22    21    2
     6    18    17    2
     7    24    21    1
     8    14    11    1
     9    21    23    1
    10    21    20    1
    11    15    12    1
    12    15    16    1
    13    17    20    1
    14    17    16    1
    15    17    19    1
    16    12    11    1
    17    12    13    1
    18    11    10    1
    19    13     9    1
    20    10     9    1
    21     9     1    1
    22     6     1    1
    23     6     5    2
    24     1     2   am
    25     5     4    1
    26     2     7    2
    27     2     3    2
    28     4     3    2
    29     4     8    2
