@<TRIPOS>MOLECULE
1sm9_NAD_A_1.pdb
 44 48 0 0 0
SMALL
GASTEIGER

@<TRIPOS>ATOM
      1  PA       112.5790   11.3390    7.7010 P.3   1350  NAD1350     0.2189
      2  O1A      112.3390   11.8960    6.4340 O.2   1350  NAD1350    -0.5170
      3  O2A      112.8790   11.7450    9.0970 O.3   1350  NAD1350    -0.4371
      4  O5B      113.2280    9.8780    7.4380 O.3   1350  NAD1350    -0.3112
      5  C5B      113.7600    9.1330    8.5080 C.3   1350  NAD1350     0.1813
      6  C4B      113.6650    7.5930    8.2650 C.3   1350  NAD1350     0.1821
      7  O4B      112.3300    6.9310    8.0720 O.3   1350  NAD1350    -0.3135
      8  C3B      114.5880    6.9630    7.1950 C.3   1350  NAD1350     0.2184
      9  O3B      115.9120    6.8500    7.6740 O.3   1350  NAD1350    -0.2174
     10  C2B      113.9490    5.6380    6.9070 C.3   1350  NAD1350     0.2570
     11  O2B      114.4360    4.6200    7.7570 O.3   1350  NAD1350    -0.2130
     12  C1B      112.4580    5.8360    7.1670 C.3   1350  NAD1350     0.3186
     13  N9A      111.5860    6.0220    6.0070 N.pl3 1350  NAD1350    -0.1439
     14  C8A      111.6940    6.7780    4.8680 C.3   1350  NAD1350     0.3377
     15  N7A      110.6930    6.6260    4.0060 N.2   1350  NAD1350    -0.2095
     16  C5A      109.8740    5.6990    4.6400 C.2   1350  NAD1350     0.2526
     17  C6A      108.6530    5.1400    4.2250 C.2   1350  NAD1350     0.4393
     18  N6A      107.9930    5.3900    3.0900 N.pl3 1350  NAD1350     0.2180
     19  N1A      108.0460    4.2220    5.0800 N.2   1350  NAD1350     0.0021
     20  C2A      108.6400    3.8770    6.3120 C.3   1350  NAD1350     0.5254
     21  N3A      109.8430    4.4150    6.7490 N.2   1350  NAD1350    -0.0055
     22  C4A      110.4250    5.3260    5.8760 C.2   1350  NAD1350     0.3518
     23  O3       114.0300   11.9670    7.4630 O.3   1350  NAD1350    -0.2703
     24  PN       115.2900   12.4790    8.3190 P.3   1350  NAD1350     0.2189
     25  O1N      115.2610   13.3900    9.4570 O.3   1350  NAD1350    -0.4371
     26  O2N      116.4970   12.3250    7.4710 O.2   1350  NAD1350    -0.5170
     27  O5D      114.9350   13.8950    7.6560 O.3   1350  NAD1350    -0.3112
     28  C5D      114.6370   14.0710    6.2130 C.3   1350  NAD1350     0.1813
     29  C4D      115.6820   14.9190    5.5300 C.3   1350  NAD1350     0.1799
     30  O4D      115.5820   16.3500    5.8320 O.3   1350  NAD1350    -0.3327
     31  C3D      117.2060   14.5720    5.7460 C.3   1350  NAD1350     0.2158
     32  O3D      117.7070   13.5160    4.9220 O.3   1350  NAD1350    -0.2175
     33  C2D      117.9100   15.9010    5.5420 C.3   1350  NAD1350     0.2309
     34  O2D      118.2680   16.1370    4.2000 O.3   1350  NAD1350    -0.2158
     35  C1D      116.9290   16.9190    6.0310 C.3   1350  NAD1350     0.2263
     36  N1N      117.1660   17.3780    7.4440 N.pl3 1350  NAD1350    -0.2787
     37  C2N      117.4860   18.7380    7.7140 C.3   1350  NAD1350     0.1244
     38  C3N      117.7560   19.1070    9.0270 C.2   1350  NAD1350     0.0544
     39  C7N      118.1110   20.5580    9.3350 C.2   1350  NAD1350     0.2818
     40  O7N      118.3650   20.8140   10.4980 O.2   1350  NAD1350    -0.2670
     41  N7N      118.1470   21.4670    8.3960 N.am  1350  NAD1350    -0.0839
     42  C4N      117.7210   18.1350   10.1190 C.2   1350  NAD1350     0.0033
     43  C5N      117.3860   16.7800    9.8120 C.2   1350  NAD1350     0.0157
     44  C6N      117.1060   16.3770    8.4800 C.2   1350  NAD1350     0.0633
@<TRIPOS>BOND
     1    18    17    1
     2    15    16    2
     3    15    14    1
     4    34    33    1
     5    17    16    1
     6    17    19    2
     7    16    22    1
     8    14    13    1
     9    32    31    1
    10    19    20    1
    11    29    31    1
    12    29    30    1
    13    29    28    1
    14    33    31    1
    15    33    35    1
    16    30    35    1
    17    22    13    1
    18    22    21    2
    19    13    12    1
    20    35    36    1
    21    28    27    1
    22    20    21    1
    23     2     1    2
    24    10    12    1
    25    10     8    1
    26    10    11    1
    27    12     7    1
    28     8     9    1
    29     8     6    1
    30     4     1    1
    31     4     5    1
    32    36    37    1
    33    36    44    1
    34    23     1    1
    35    23    24    1
    36    26    24    2
    37    27    24    1
    38     1     3    1
    39    37    38    1
    40     7     6    1
    41     6     5    1
    42    24    25    1
    43    41    39   am
    44    44    43    2
    45    38    39    1
    46    38    42    2
    47    39    40    2
    48    43    42    1
