@<TRIPOS>MOLECULE
1smc_DUT_A_1.pdb
 28 29 0 0 0
SMALL
GASTEIGER

@<TRIPOS>ATOM
      1  N1        -0.8360   -1.0610   -3.5390 N.am  2170  DUT2170    -0.1790
      2  C2        -1.1520   -0.6410   -2.2660 C.1   2170  DUT2170     0.2844
      3  N3        -0.2890   -0.7520   -1.2370 N.2   2170  DUT2170    -0.2452
      4  C4         0.9450   -1.3000   -1.4640 C.1   2170  DUT2170     0.2182
      5  C5         1.3010   -1.7340   -2.7440 C.2   2170  DUT2170     0.1242
      6  C6         0.3970   -1.5880   -3.7380 C.2   2170  DUT2170     0.0928
      7  O2        -2.2440   -0.1130   -1.9490 O.2   2170  DUT2170    -0.1918
      8  O4         1.8360   -1.4620   -0.4850 O.2   2170  DUT2170    -0.2085
      9  C1'       -1.7470   -0.8830   -4.7290 C.3   2170  DUT2170     0.2090
     10  C2'       -1.0130    0.0500   -5.6630 C.3   2170  DUT2170     0.0874
     11  C3'       -0.6730   -0.6000   -7.0000 C.3   2170  DUT2170     0.1857
     12  C4'       -1.4890   -1.8790   -6.9140 C.3   2170  DUT2170     0.1773
     13  O4'       -1.9790   -1.9920   -5.5560 O.3   2170  DUT2170    -0.3339
     14  O3'       -0.6990    0.1490   -8.2100 O.3   2170  DUT2170    -0.2203
     15  C5'       -0.7740   -3.1380   -7.4250 C.3   2170  DUT2170     0.1812
     16  O5'        0.5150   -3.4550   -6.8470 O.3   2170  DUT2170    -0.3112
     17  PA         1.5020   -4.6720   -7.3490 P.3   2170  DUT2170     0.2189
     18  O1A        1.6790   -4.5540   -8.8780 O.2   2170  DUT2170    -0.5170
     19  O2A        2.7070   -4.6120   -6.4380 O.3   2170  DUT2170    -0.4371
     20  O3A        0.6540   -5.9800   -6.9450 O.3   2170  DUT2170    -0.2700
     21  PB        -0.0270   -7.0780   -7.9100 P.3   2170  DUT2170     0.2277
     22  O1B        0.8960   -7.1490   -9.1220 O.2   2170  DUT2170    -0.5168
     23  O2B       -0.1730   -8.3600   -7.0870 O.3   2170  DUT2170    -0.4368
     24  O3B       -1.5080   -6.4360   -8.1830 O.3   2170  DUT2170    -0.2258
     25  PG        -1.9580   -5.6850   -9.5630 P.3   2170  DUT2170     0.5373
     26  O1G       -2.4500   -6.7680  -10.5290 O.2   2170  DUT2170    -0.2221
     27  O2G       -0.6690   -5.0610  -10.0930 O.3   2170  DUT2170    -0.1143
     28  O3G       -3.0470   -4.7260   -9.1060 O.3   2170  DUT2170    -0.1143
@<TRIPOS>BOND
     1    26    25    2
     2    27    25    1
     3    25    28    1
     4    25    24    1
     5    22    21    2
     6    18    17    2
     7    14    11    1
     8    24    21    1
     9    21    23    1
    10    21    20    1
    11    15    12    1
    12    15    16    1
    13    17    20    1
    14    17    16    1
    15    17    19    1
    16    11    12    1
    17    11    10    1
    18    12    13    1
    19    10     9    1
    20    13     9    1
    21     9     1    1
    22     6     1    1
    23     6     5    2
    24     1     2   am
    25     5     4    1
    26     2     7    2
    27     2     3    2
    28     4     3    2
    29     4     8    2
