@<TRIPOS>MOLECULE
1smh_MG8_A_1.pdb
 10 9 0 0 0
SMALL
GASTEIGER

@<TRIPOS>ATOM
      1  C1        20.9490   27.5080   30.1580 C.3   1000  MG81000     0.0000
      2  C2        22.4220   27.1000   30.2520 C.3   1000  MG81000     0.0000
      3  C3        23.3560   28.2660   30.6390 C.3   1000  MG81000     0.0000
      4  C4        24.4850   27.6820   31.4830 C.3   1000  MG81000     0.0000
      5  C5        25.8710   28.1210   31.0200 C.3   1000  MG81000     0.0005
      6  C6        26.8500   27.8740   32.1770 C.3   1000  MG81000     0.0097
      7  C7        28.1170   27.1310   31.7270 C.3   1000  MG81000     0.0885
      8  C8        29.2640   27.4550   32.6550 C.2   1000  MG81000     0.2607
      9  O8        30.2690   28.0750   32.2790 O.2   1000  MG81000    -0.2717
     10  N         29.1640   27.0290   33.9810 N.am  1000  MG81000    -0.0878
@<TRIPOS>BOND
     1     1     2    1
     2     2     3    1
     3     3     4    1
     4     5     4    1
     5     5     6    1
     6     7     6    1
     7     7     8    1
     8     9     8    2
     9     8    10   am
