@<TRIPOS>MOLECULE
1smi_HEM_A_1.pdb
 43 50 0 0 0
SMALL
GASTEIGER

@<TRIPOS>ATOM
      1 FE         12.0760   38.5630   15.2660 Fe    472  HEM472      0.0000
      2  CHA       14.2810   39.9340   12.8570 C.2   472  HEM472      0.0000
      3  CHB        9.5200   38.6770   13.0540 C.2   472  HEM472      0.0000
      4  CHC        9.9170   37.1950   17.6420 C.2   472  HEM472      0.0000
      5  CHD       14.3960   38.9690   17.5740 C.2   472  HEM472      0.0000
      6  NA        11.9590   39.1890   13.3480 N.ar  472  HEM472      0.0000
      7  C1A       12.9490   39.6440   12.4930 C.ar  472  HEM472      0.0000
      8  C2A       12.3810   39.8610   11.2150 C.ar  472  HEM472      0.0000
      9  C3A       11.0610   39.4890   11.2590 C.ar  472  HEM472      0.0000
     10  C4A       10.7590   39.1070   12.6040 C.ar  472  HEM472      0.0000
     11  CMA       10.0840   39.5300   10.0540 C.3   472  HEM472      0.0000
     12  CAA       13.1150   40.3470    9.9630 C.3   472  HEM472      0.0000
     13  CBA       13.2380   41.8890   10.0030 C.3   472  HEM472      0.0000
     14  CGA       13.6430   42.5370    8.7230 C.2   472  HEM472      0.0000
     15  O1A       13.9070   41.8370    7.7160 O.co2 472  HEM472      0.0000
     16  O2A       13.8080   43.8210    8.6800 O.co2 472  HEM472      0.0000
     17  NB        10.0110   38.0610   15.3730 N.2   472  HEM472      0.0000
     18  C1B        9.1870   38.1470   14.2830 C.2   472  HEM472      0.0000
     19  C2B        7.8980   37.5520   14.7000 C.2   472  HEM472      0.0000
     20  C3B        8.0460   37.1430   15.9760 C.2   472  HEM472      0.0000
     21  C4B        9.4030   37.4730   16.4120 C.2   472  HEM472      0.0000
     22  CMB        6.6130   37.4440   13.7970 C.3   472  HEM472      0.0000
     23  CAB        7.0540   36.4750   16.9220 C.2   472  HEM472      0.0000
     24  CBB        6.0220   35.7710   16.3990 C.2   472  HEM472      0.0000
     25  NC        12.0700   38.1590   17.1790 N.ar  472  HEM472      0.0000
     26  C1C       11.1780   37.4880   18.0270 C.ar  472  HEM472      0.0000
     27  C2C       11.8010   37.1750   19.2930 C.ar  472  HEM472      0.0000
     28  C3C       13.0340   37.7470   19.2690 C.ar  472  HEM472      0.0000
     29  C4C       13.2070   38.3700   17.9890 C.ar  472  HEM472      0.0000
     30  CMC       11.1290   36.4570   20.4870 C.3   472  HEM472      0.0000
     31  CAC       14.1300   37.7250   20.3760 C.2   472  HEM472      0.0000
     32  CBC       14.0320   36.9840   21.4610 C.2   472  HEM472      0.0000
     33  ND        14.0350   39.3820   15.1920 N.2   472  HEM472      0.0000
     34  C1D       14.7800   39.3870   16.3470 C.2   472  HEM472      0.0000
     35  C2D       16.1260   39.9000   16.0390 C.2   472  HEM472      0.0000
     36  C3D       16.0850   40.2260   14.5850 C.2   472  HEM472      0.0000
     37  C4D       14.7430   39.8520   14.1320 C.2   472  HEM472      0.0000
     38  CMD       17.3040   40.1250   17.0210 C.3   472  HEM472      0.0000
     39  CAD       17.1790   40.7390   13.6140 C.3   472  HEM472      0.0000
     40  CBD       17.8670   39.4740   13.1350 C.3   472  HEM472      0.0000
     41  CGD       19.1100   39.8110   12.3290 C.2   472  HEM472      0.0000
     42  O1D       20.1810   39.2670   12.6890 O.co2 472  HEM472      0.0000
     43  O2D       18.9880   40.5590   11.3680 O.co2 472  HEM472      0.0000
@<TRIPOS>BOND
     1    15    14   ar
     2    16    14   ar
     3    14    13    1
     4    12    13    1
     5    12     8    1
     6    11     9    1
     7     8     9   ar
     8     8     7   ar
     9     9    10   ar
    10    43    41   ar
    11    41    42   ar
    12    41    40    1
    13     7     2    2
    14     7     6   ar
    15    10     3    2
    16    10     6   ar
    17     2    37    1
    18     3    18    1
    19    40    39    1
    20     6     1    1
    21    39    36    1
    22    22    19    1
    23    37    36    1
    24    37    33    2
    25    18    19    1
    26    18    17    2
    27    36    35    2
    28    19    20    2
    29    33     1    1
    30    33    34    1
    31     1    17    1
    32     1    25    1
    33    17    21    1
    34    20    21    1
    35    20    23    1
    36    35    34    1
    37    35    38    1
    38    34     5    2
    39    24    23    2
    40    21     4    2
    41    25    29   ar
    42    25    26   ar
    43     5    29    1
    44     4    26    1
    45    29    28   ar
    46    26    27   ar
    47    28    27   ar
    48    28    31    1
    49    27    30    1
    50    31    32    2
