@<TRIPOS>MOLECULE
1smj_HEM_A_1.pdb
 43 50 0 0 0
SMALL
GASTEIGER

@<TRIPOS>ATOM
      1 FE         48.3460   75.4030   29.2400 Fe    472  HEM472      0.0000
      2  CHA       45.2170   76.5800   28.6870 C.2   472  HEM472      0.0000
      3  CHB       47.4980   74.2000   32.2500 C.2   472  HEM472      0.0000
      4  CHC       51.5070   74.1250   29.6160 C.2   472  HEM472      0.0000
      5  CHD       49.3170   76.9040   26.4620 C.2   472  HEM472      0.0000
      6  NA        46.7890   75.3450   30.1460 N.2   472  HEM472      0.0000
      7  C1A       45.5780   75.9280   29.8210 C.2   472  HEM472      0.0000
      8  C2A       44.6470   75.8600   30.9480 C.2   472  HEM472      0.0000
      9  C3A       45.2620   75.2130   31.9650 C.2   472  HEM472      0.0000
     10  C4A       46.6110   74.8930   31.4620 C.2   472  HEM472      0.0000
     11  CMA       44.6920   74.8070   33.3520 C.3   472  HEM472      0.0000
     12  CAA       43.2230   76.4130   30.9120 C.3   472  HEM472      0.0000
     13  CBA       43.1370   77.6690   31.7400 C.3   472  HEM472      0.0000
     14  CGA       41.6510   77.9120   31.7420 C.2   472  HEM472      0.0000
     15  O1A       41.0190   76.9360   31.2540 O.co2 472  HEM472      0.0000
     16  O2A       41.0810   78.9790   32.1510 O.co2 472  HEM472      0.0000
     17  NB        49.3370   74.3270   30.6160 N.ar  472  HEM472      0.0000
     18  C1B       48.7940   73.9980   31.8490 C.ar  472  HEM472      0.0000
     19  C2B       49.7940   73.4030   32.6780 C.ar  472  HEM472      0.0000
     20  C3B       50.9180   73.3810   31.9520 C.ar  472  HEM472      0.0000
     21  C4B       50.6330   73.9520   30.6520 C.ar  472  HEM472      0.0000
     22  CMB       49.4090   72.9340   34.1000 C.3   472  HEM472      0.0000
     23  CAB       52.3100   72.8680   32.3540 C.3   472  HEM472      0.0000
     24  CBB       52.1440   71.7500   33.0270 C.3   472  HEM472      0.0000
     25  NC        50.0360   75.5330   28.3220 N.2   472  HEM472      0.0000
     26  C1C       51.1910   74.8200   28.5210 C.2   472  HEM472      0.0000
     27  C2C       51.9900   74.8330   27.3160 C.2   472  HEM472      0.0000
     28  C3C       51.4450   75.7650   26.5060 C.2   472  HEM472      0.0000
     29  C4C       50.1880   76.1380   27.1010 C.2   472  HEM472      0.0000
     30  CMC       53.4310   74.4200   27.2470 C.3   472  HEM472      0.0000
     31  CAC       51.9700   76.1740   25.1350 C.2   472  HEM472      0.0000
     32  CBC       53.2860   76.0540   24.7690 C.2   472  HEM472      0.0000
     33  ND        47.4220   76.6320   27.7430 N.ar  472  HEM472      0.0000
     34  C1D       48.0040   77.1200   26.6640 C.ar  472  HEM472      0.0000
     35  C2D       47.0970   77.8820   25.8410 C.ar  472  HEM472      0.0000
     36  C3D       45.8220   77.7790   26.5520 C.ar  472  HEM472      0.0000
     37  C4D       46.1120   76.9880   27.7330 C.ar  472  HEM472      0.0000
     38  CMD       47.2220   78.6730   24.5190 C.3   472  HEM472      0.0000
     39  CAD       44.5140   78.4500   26.0590 C.3   472  HEM472      0.0000
     40  CBD       43.8240   77.6440   24.9700 C.3   472  HEM472      0.0000
     41  CGD       42.3790   78.0110   25.1710 C.2   472  HEM472      0.0000
     42  O1D       41.8480   78.3290   24.0750 O.co2 472  HEM472      0.0000
     43  O2D       41.8070   77.9490   26.3520 O.co2 472  HEM472      0.0000
@<TRIPOS>BOND
     1    42    41   ar
     2    38    35    1
     3    32    31    2
     4    40    41    1
     5    40    39    1
     6    31    28    1
     7    41    43   ar
     8    35    36   ar
     9    35    34   ar
    10    39    36    1
    11     5    34    2
    12     5    29    1
    13    28    29    1
    14    28    27    2
    15    36    37   ar
    16    34    33   ar
    17    29    25    2
    18    30    27    1
    19    27    26    1
    20    37    33   ar
    21    37     2    2
    22    33     1    1
    23    25    26    1
    24    25     1    1
    25    26     4    2
    26     2     7    1
    27     1     6    1
    28     1    17    1
    29     4    21    1
    30     7     6    2
    31     7     8    1
    32     6    10    1
    33    17    21   ar
    34    17    18   ar
    35    21    20   ar
    36    12     8    1
    37    12    13    1
    38     8     9    2
    39    15    14   ar
    40    10     9    1
    41    10     3    2
    42    13    14    1
    43    14    16   ar
    44    18     3    1
    45    18    19   ar
    46    20    23    1
    47    20    19   ar
    48     9    11    1
    49    23    24    1
    50    19    22    1
