@<TRIPOS>MOLECULE
1smy_G4P_N_1.pdb
 36 38 0 0 0
SMALL
GASTEIGER

@<TRIPOS>ATOM
      1  PB       131.6020  -47.7990   51.4500 P.3   9101  G4P9101     0.5373
      2  O1B      131.9480  -48.8140   52.5450 O.3   9101  G4P9101    -0.1143
      3  O2B      131.8200  -48.3330   50.0130 O.2   9101  G4P9101    -0.2221
      4  O3B      130.2550  -47.0930   51.6030 O.3   9101  G4P9101    -0.1143
      5  O3A      132.6380  -46.5830   51.6180 O.3   9101  G4P9101    -0.2261
      6  PA       132.2170  -45.0240   51.6370 P.3   9101  G4P9101     0.2231
      7  O1A      131.2630  -44.7130   50.4990 O.2   9101  G4P9101    -0.5169
      8  O2A      131.8280  -44.5810   53.0170 O.3   9101  G4P9101    -0.4370
      9  O5'      133.5570  -44.3000   51.2240 O.3   9101  G4P9101    -0.3111
     10  C5'      133.5660  -43.4100   50.1160 C.3   9101  G4P9101     0.1812
     11  C4'      133.0960  -42.0470   50.5620 C.3   9101  G4P9101     0.1771
     12  O4'      134.2230  -41.4880   51.2860 O.3   9101  G4P9101    -0.3327
     13  C3'      132.8160  -41.0150   49.4360 C.3   9101  G4P9101     0.1857
     14  O3'      131.5760  -40.3050   49.2410 O.3   9101  G4P9101    -0.3109
     15  C2'      134.1230  -40.2430   49.1900 C.3   9101  G4P9101     0.2282
     16  O2'      134.0330  -38.8420   49.1020 O.3   9101  G4P9101    -0.2159
     17  C1'      135.0330  -40.7310   50.3360 C.3   9101  G4P9101     0.2292
     18  N9       136.0950  -41.5440   49.6980 N.pl3 9101  G4P9101    -0.2354
     19  C8       135.9790  -42.3730   48.5730 C.3   9101  G4P9101     0.2246
     20  N7       137.1080  -42.7220   48.0480 N.2   9101  G4P9101    -0.2322
     21  C5       138.0450  -42.1430   48.8950 C.2   9101  G4P9101     0.2182
     22  C6       139.4340  -42.0790   48.7590 C.1   9101  G4P9101     0.2372
     23  O6       140.0900  -42.4520   47.7640 O.2   9101  G4P9101    -0.2069
     24  N1       140.0520  -41.4410   49.8750 N.2   9101  G4P9101    -0.2485
     25  C2       139.3550  -40.8590   50.9370 C.1   9101  G4P9101     0.2531
     26  N2       140.0950  -40.2610   51.9360 N.pl3 9101  G4P9101    -0.0226
     27  N3       138.0160  -40.8550   51.0150 N.2   9101  G4P9101    -0.3074
     28  C4       137.4360  -41.5030   49.9750 C.2   9101  G4P9101     0.2300
     29  PC       131.2730  -39.6930   47.7630 P.3   9101  G4P9101     0.2231
     30  O1C      132.3330  -40.2820   46.8100 O.2   9101  G4P9101    -0.5169
     31  O2C      131.1360  -38.2130   47.8530 O.3   9101  G4P9101    -0.4370
     32  O3C      129.8850  -40.3090   47.3100 O.3   9101  G4P9101    -0.2261
     33  PD       129.2830  -39.6780   45.9970 P.3   9101  G4P9101     0.5373
     34  O1D      128.6640  -38.3370   46.3790 O.3   9101  G4P9101    -0.1143
     35  O2D      128.3770  -40.6620   45.2580 O.3   9101  G4P9101    -0.1143
     36  O3D      130.6500  -39.4200   45.1370 O.2   9101  G4P9101    -0.2221
@<TRIPOS>BOND
     1    36    33    2
     2    35    33    1
     3    33    34    1
     4    33    32    1
     5    30    29    2
     6    32    29    1
     7    29    31    1
     8    29    14    1
     9    23    22    2
    10    20    19    1
    11    20    21    2
    12    19    18    1
    13    22    21    1
    14    22    24    2
    15    21    28    1
    16    16    15    1
    17    15    13    1
    18    15    17    1
    19    14    13    1
    20    13    11    1
    21    18    28    1
    22    18    17    1
    23    24    25    2
    24    28    27    2
    25     3     1    2
    26    10    11    1
    27    10     9    1
    28    17    12    1
    29     7     6    2
    30    11    12    1
    31    25    27    2
    32    25    26    1
    33     9     6    1
    34     1     4    1
    35     1     5    1
    36     1     2    1
    37     5     6    1
    38     6     8    1
