@<TRIPOS>MOLECULE
1sn0_T44_B_1.pdb
 24 25 0 0 0
SMALL
GASTEIGER

@<TRIPOS>ATOM
      1  C1       -73.7880  -23.9670  -17.8400 C.ar  602  T44602     -0.0191
      2  C2       -73.2600  -23.3480  -18.9910 C.ar  602  T44602      0.0047
      3  C3       -72.0240  -23.7510  -19.4550 C.ar  602  T44602      0.0647
      4  C4       -71.3500  -24.7830  -18.7100 C.ar  602  T44602      0.1558
      5  C5       -71.8910  -25.4340  -17.5190 C.ar  602  T44602      0.0647
      6  C6       -73.1330  -24.9790  -17.1170 C.ar  602  T44602      0.0047
      7  C7       -75.1370  -23.5380  -17.3280 C.3   602  T44602      0.0570
      8  C8       -76.1800  -24.6240  -17.6000 C.3   602  T44602      0.1986
      9  C9       -76.7590  -25.2070  -16.3380 C.2   602  T44602      0.3822
     10  C1'      -69.0320  -24.8960  -18.8660 C.ar  602  T44602      0.1464
     11  C2'      -68.4680  -23.8670  -17.9400 C.ar  602  T44602      0.0465
     12  C3'      -67.0330  -23.8860  -17.7830 C.ar  602  T44602      0.0724
     13  C4'      -66.1100  -24.8120  -18.4980 C.ar  602  T44602      0.2064
     14  C5'      -66.6910  -25.7260  -19.3640 C.ar  602  T44602      0.0724
     15  C6'      -68.1460  -25.7460  -19.5310 C.ar  602  T44602      0.0465
     16  N8       -77.2070  -23.9470  -18.3840 N.3   602  T44602     -0.1205
     17  O4       -70.2240  -25.1440  -19.2270 O.3   602  T44602     -0.4526
     18  O4'      -64.7900  -24.7790  -18.3300 O.3   602  T44602     -0.2857
     19  O9       -76.2180  -25.0110  -15.2610 O.co2 602  T44602     -0.2440
     20  O10      -77.7880  -25.8940  -16.3930 O.co2 602  T44602     -0.2440
     21  I3       -70.8980  -23.0920  -21.0980 I     602  T44602     -0.0393
     22  I3'      -66.0050  -22.5580  -16.5320 I     602  T44602     -0.0391
     23  I5       -70.7930  -26.9260  -16.5390 I     602  T44602     -0.0393
     24  I5'      -65.7000  -27.1450  -20.4950 I     602  T44602     -0.0391
@<TRIPOS>BOND
     1    21     3    1
     2    24    14    1
     3    15    14   ar
     4    15    10   ar
     5     3     2   ar
     6     3     4   ar
     7    14    13   ar
     8    17    10    1
     9    17     4    1
    10     2     1   ar
    11    10    11   ar
    12     4     5   ar
    13    13    18    1
    14    13    12   ar
    15    16     8    1
    16    11    12   ar
    17     1     7    1
    18     1     6   ar
    19    12    22    1
    20     8     7    1
    21     8     9    1
    22     5     6   ar
    23     5    23    1
    24    20     9   ar
    25     9    19   ar
