@<TRIPOS>MOLECULE
1sn5_T3_C_1.pdb
 24 26 0 0 0
SMALL
GASTEIGER

@<TRIPOS>ATOM
      1  C1       -40.6330  -24.5920  -17.0280 C.3   601  T3601       0.0257
      2  C1       -40.7520  -23.0330  -17.3770 C.3   601  T3601       0.0097
      3  C2       -45.6210  -24.5190  -17.2490 C.2   601  T3601       0.1423
      4  C3       -41.3260  -23.6680  -16.2620 C.3   601  T3601       0.0349
      5  C4       -46.8860  -24.0270  -17.4820 C.2   601  T3601       0.0292
      6  C5       -42.6480  -23.4190  -16.5330 C.2   601  T3601       0.0427
      7  C6       -47.9930  -24.6350  -16.9420 C.3   601  T3601       0.1391
      8  C7       -43.3260  -24.1290  -17.6160 C.2   601  T3601       0.1515
      9  C8       -47.7990  -25.8490  -16.0960 C.2   601  T3601       0.1867
     10  C9       -42.5860  -25.1130  -18.4200 C.2   601  T3601       0.0604
     11  C10      -46.4840  -26.3140  -15.8930 C.2   601  T3601       0.0417
     12  C11      -41.2410  -25.3050  -18.0820 C.2   601  T3601      -0.0175
     13  C12      -45.3990  -25.6500  -16.4700 C.2   601  T3601       0.0402
     14  C13      -39.1770  -24.8020  -16.6690 C.3   601  T3601       0.0350
     15  C15      -38.2660  -23.6570  -17.1490 C.3   601  T3601       0.1947
     16  C17      -38.9050  -22.3020  -17.2750 C.2   601  T3601       0.3819
     17  I1       -43.7370  -22.0180  -15.4620 I     601  T3601      -0.0440
     18  I2       -49.8190  -23.7040  -17.3700 I     601  T3601      -0.0620
     19  I3       -43.6080  -26.1380  -19.9450 I     601  T3601      -0.0397
     20  N1       -37.2010  -23.5940  -16.1530 N.3   601  T3601      -0.1208
     21  O1       -48.7860  -26.4470  -15.5810 O.2   601  T3601      -0.2902
     22  O2       -44.6180  -23.8380  -17.8450 O.2   601  T3601      -0.4533
     23  O3       -38.8190  -21.5160  -16.3440 O.co2 601  T3601      -0.2441
     24  O4       -39.4800  -21.9570  -18.3140 O.co2 601  T3601      -0.2441
@<TRIPOS>BOND
     1    19    10    1
     2    10    12    2
     3    10     8    1
     4    24    16   ar
     5    12     1    1
     6    22     8    1
     7    22     3    1
     8     8     6    2
     9     5     3    2
    10     5     7    1
    11     2     1    1
    12     2     4    1
    13    18     7    1
    14    16    15    1
    15    16    23   ar
    16     3    13    1
    17    15    14    1
    18    15    20    1
    19     1    14    1
    20     1     4    1
    21     7     9    1
    22     6     4    1
    23     6    17    1
    24    13    11    2
    25     9    11    1
    26     9    21    2
