@<TRIPOS>MOLECULE
1snc_THP_A_1.pdb
 25 26 0 0 0
SMALL
GASTEIGER

@<TRIPOS>ATOM
      1  P2         6.2350   13.8860   20.5750 P.3   151  THP151      0.5327
      2  O4P        5.2980   13.8280   19.4370 O.2   151  THP151     -0.2224
      3  O5P        7.4840   14.6290   20.2790 O.3   151  THP151     -0.1145
      4  O6P        6.5180   12.4030   21.0720 O.3   151  THP151     -0.1145
      5  P1         4.7990   11.6290   26.2900 P.3   151  THP151      0.5326
      6  O1P        4.3660   11.1280   27.5990 O.3   151  THP151     -0.1145
      7  O2P        6.2080   11.4670   25.8810 O.3   151  THP151     -0.1145
      8  O3P        3.8920   10.9670   25.1500 O.2   151  THP151     -0.2224
      9  O5'        5.6640   14.5700   21.8730 O.3   151  THP151     -0.2675
     10  C5'        4.4780   14.2320   22.5880 C.3   151  THP151      0.1857
     11  C4'        4.8490   14.2570   24.0510 C.3   151  THP151      0.1748
     12  O4'        5.1100   15.5860   24.4560 O.3   151  THP151     -0.3340
     13  C3'        3.7890   13.7860   25.0280 C.3   151  THP151      0.1600
     14  O3'        4.4680   13.2100   26.1900 O.3   151  THP151     -0.2700
     15  C2'        2.9870   15.0950   25.2900 C.3   151  THP151      0.0847
     16  C1'        4.1490   16.0590   25.3990 C.3   151  THP151      0.2089
     17  N1         3.8380   17.4430   24.8980 N.am  151  THP151     -0.1794
     18  C2         3.4490   18.3000   25.8740 C.1   151  THP151      0.2844
     19  O2         3.6100   17.9890   27.0660 O.2   151  THP151     -0.1918
     20  N3         2.8620   19.4500   25.4840 N.2   151  THP151     -0.2455
     21  C4         2.7130   19.7880   24.1550 C.1   151  THP151      0.2134
     22  O4         2.1580   20.8790   24.0040 O.2   151  THP151     -0.2088
     23  C5         3.1610   18.9090   23.1710 C.2   151  THP151      0.0891
     24  C5M        3.0120   19.2700   21.7100 C.3   151  THP151      0.0462
     25  C6         3.7140   17.6860   23.5510 C.2   151  THP151      0.0877
@<TRIPOS>BOND
     1     2     1    2
     2     3     1    1
     3     1     4    1
     4     1     9    1
     5    24    23    1
     6     9    10    1
     7    10    11    1
     8    23    25    2
     9    23    21    1
    10    25    17    1
    11    22    21    2
    12    11    12    1
    13    11    13    1
    14    21    20    2
    15    12    16    1
    16    17    16    1
    17    17    18   am
    18    13    15    1
    19    13    14    1
    20     8     5    2
    21    15    16    1
    22    20    18    2
    23    18    19    2
    24     7     5    1
    25    14     5    1
    26     5     6    1
