@<TRIPOS>MOLECULE
1snf_UMP_A_1.pdb
 20 21 0 0 0
SMALL
GASTEIGER

@<TRIPOS>ATOM
      1  N1        20.8630  -10.0180   -7.6890 N.am  1170  UMP1170    -0.1790
      2  C2        19.8330  -10.7830   -8.2330 C.1   1170  UMP1170     0.2844
      3  N3        18.5430  -10.6580   -7.7340 N.2   1170  UMP1170    -0.2452
      4  C4        18.2550   -9.7650   -6.6980 C.1   1170  UMP1170     0.2182
      5  C5        19.2840   -9.0000   -6.1400 C.2   1170  UMP1170     0.1242
      6  C6        20.5700   -9.1420   -6.6560 C.2   1170  UMP1170     0.0928
      7  O2        19.9320  -11.6030   -9.1370 O.2   1170  UMP1170    -0.1918
      8  O4        17.1090   -9.6730   -6.2760 O.2   1170  UMP1170    -0.2085
      9  C1'       22.2750  -10.0430   -8.1470 C.3   1170  UMP1170     0.2090
     10  C2'       22.4820   -8.7030   -8.8750 C.3   1170  UMP1170     0.0874
     11  C3'       23.4470   -7.8320   -8.0830 C.3   1170  UMP1170     0.1857
     12  C4'       24.2710   -8.9590   -7.4390 C.3   1170  UMP1170     0.1774
     13  O3'       24.1190   -6.8410   -8.8500 O.3   1170  UMP1170    -0.2203
     14  O4'       23.3690  -10.0530   -7.2440 O.3   1170  UMP1170    -0.3339
     15  C5'       24.9520   -8.4340   -6.1710 C.3   1170  UMP1170     0.1858
     16  O5'       24.1270   -8.4660   -5.0160 O.3   1170  UMP1170    -0.2675
     17  P         24.0820   -7.4660   -3.7210 P.3   1170  UMP1170     0.5327
     18  OP1       25.0580   -7.8940   -2.6590 O.3   1170  UMP1170    -0.1145
     19  OP2       22.6270   -7.2780   -3.2200 O.3   1170  UMP1170    -0.1145
     20  OP3       24.3830   -6.0330   -4.2350 O.2   1170  UMP1170    -0.2224
@<TRIPOS>BOND
     1     7     2    2
     2    10     9    1
     3    10    11    1
     4    13    11    1
     5     2     3    2
     6     2     1   am
     7     9     1    1
     8     9    14    1
     9    11    12    1
    10     3     4    2
    11     1     6    1
    12    12    14    1
    13    12    15    1
    14     4     8    2
    15     4     5    1
    16     6     5    2
    17    15    16    1
    18    16    17    1
    19    20    17    2
    20    17    19    1
    21    17    18    1
