@<TRIPOS>MOLECULE
1snk_MYE_A_1.pdb
 27 27 0 0 0
SMALL
GASTEIGER

@<TRIPOS>ATOM
      1  C2       -17.2420   30.7340   76.3180 C.3     1  MYE1        0.0001
      2  C3       -17.0590   31.4290   77.6750 C.3     1  MYE1        0.0018
      3  C4       -15.7270   32.2230   77.6910 C.3     1  MYE1        0.0244
      4  C5       -15.6540   33.1020   78.9830 C.3     1  MYE1        0.1282
      5  N6       -16.6100   34.1840   78.8960 N.am    1  MYE1       -0.2031
      6  C7       -17.4310   34.4170   79.9100 C.2     1  MYE1        0.2614
      7  O8       -17.3960   33.6950   80.8890 O.2     1  MYE1       -0.2715
      8  C9       -18.4200   35.5780   79.8510 C.3     1  MYE1        0.1761
      9  C10      -17.9180   36.6880   80.7920 C.3     1  MYE1        0.0312
     10  C11      -18.0650   38.0980   80.1720 C.3     1  MYE1        0.0022
     11  C12      -18.2100   39.1170   81.2920 C.3     1  MYE1        0.0001
     12  C13      -19.2760   38.1740   79.2560 C.3     1  MYE1        0.0001
     13  N14      -19.6880   35.1180   80.3480 N.am    1  MYE1       -0.1611
     14  C15      -20.5120   34.3410   79.6060 C.2     1  MYE1        0.4218
     15  O16      -20.1100   33.7820   78.5810 O.2     1  MYE1       -0.2245
     16  O17      -21.7600   34.1870   79.9990 O.3     1  MYE1       -0.4285
     17  C18      -22.3260   32.9870   79.5440 C.3     1  MYE1        0.2368
     18  C19      -23.1770   32.3890   80.6330 C.ar    1  MYE1        0.0214
     19  C20      -23.8470   31.2070   80.4030 C.ar    1  MYE1       -0.0002
     20  C21      -24.6260   30.6500   81.3960 C.ar    1  MYE1        0.0065
     21  C22      -24.7420   31.2800   82.6310 C.ar    1  MYE1        0.0345
     22 BR2       -25.8320   30.4850   84.0100 Br      1  MYE1       -0.0490
     23  C24      -24.0700   32.4700   82.8660 C.ar    1  MYE1        0.0065
     24  C25      -23.2890   33.0270   81.8690 C.ar    1  MYE1       -0.0002
     25  C26      -14.2840   33.6910   79.1250 C.3     1  MYE1        0.2036
     26  O27      -13.3350   32.6870   79.0380 O.3     1  MYE1       -0.2185
     27  C1       -16.5350   29.3660   76.3400 C.3     1  MYE1        0.0000
@<TRIPOS>BOND
     1     1    27    1
     2     1     2    1
     3     2     3    1
     4     3     4    1
     5    15    14    2
     6     5     4    1
     7     5     6   am
     8     4    25    1
     9    26    25    1
    10    12    10    1
    11    17    16    1
    12    17    18    1
    13    14    16    1
    14    14    13   am
    15     8     6    1
    16     8    13    1
    17     8     9    1
    18     6     7    2
    19    10     9    1
    20    10    11    1
    21    19    18   ar
    22    19    20   ar
    23    18    24   ar
    24    20    21   ar
    25    24    23   ar
    26    21    23   ar
    27    21    22    1
