@<TRIPOS>MOLECULE
1snm_THP_A_1.pdb
 25 26 0 0 0
SMALL
GASTEIGER

@<TRIPOS>ATOM
      1  P2         6.4740   14.1720   20.9530 P.3   151  THP151      0.5327
      2  O4P        5.4050   14.1370   19.9120 O.2   151  THP151     -0.2224
      3  O5P        7.6620   14.8920   20.5090 O.3   151  THP151     -0.1145
      4  O6P        6.6390   12.6590   21.3970 O.3   151  THP151     -0.1145
      5  P1         5.0410   11.7590   26.6250 P.3   151  THP151      0.5326
      6  O1P        4.7640   11.6380   28.0170 O.3   151  THP151     -0.1145
      7  O2P        6.3970   11.6600   26.0370 O.3   151  THP151     -0.1145
      8  O3P        4.0940   10.9810   25.5680 O.2   151  THP151     -0.2224
      9  O5'        5.8570   14.6930   22.2660 O.3   151  THP151     -0.2675
     10  C5'        4.6120   14.4140   22.9090 C.3   151  THP151      0.1857
     11  C4'        4.9510   14.3300   24.3730 C.3   151  THP151      0.1748
     12  O4'        5.2280   15.6290   24.8670 O.3   151  THP151     -0.3340
     13  C3'        3.8830   13.9040   25.3320 C.3   151  THP151      0.1600
     14  O3'        4.6040   13.3750   26.5130 O.3   151  THP151     -0.2700
     15  C2'        3.0460   15.1980   25.6320 C.3   151  THP151      0.0847
     16  C1'        4.1680   16.1740   25.6680 C.3   151  THP151      0.2089
     17  N1         3.8610   17.5630   25.1570 N.am  151  THP151     -0.1794
     18  C2         3.4940   18.4270   26.1650 C.1   151  THP151      0.2844
     19  O2         3.7910   18.1440   27.3390 O.2   151  THP151     -0.1918
     20  N3         2.8450   19.5950   25.8700 N.2   151  THP151     -0.2455
     21  C4         2.7920   19.9340   24.5350 C.1   151  THP151      0.2134
     22  O4         2.0970   20.9130   24.3020 O.2   151  THP151     -0.2088
     23  C5         3.1670   19.0740   23.4740 C.2   151  THP151      0.0891
     24  C5M        3.0360   19.6320   22.0860 C.3   151  THP151      0.0462
     25  C6         3.7350   17.8320   23.8090 C.2   151  THP151      0.0877
@<TRIPOS>BOND
     1     2     1    2
     2     3     1    1
     3     1     4    1
     4     1     9    1
     5    24    23    1
     6     9    10    1
     7    10    11    1
     8    23    25    2
     9    23    21    1
    10    25    17    1
    11    22    21    2
    12    11    12    1
    13    11    13    1
    14    21    20    2
    15    12    16    1
    16    17    16    1
    17    17    18   am
    18    13    15    1
    19    13    14    1
    20     8     5    2
    21    15    16    1
    22    20    18    2
    23     7     5    1
    24    18    19    2
    25    14     5    1
    26     5     6    1
