@<TRIPOS>MOLECULE
1snn_5RP_A_1.pdb
 14 13 0 0 0
SMALL
GASTEIGER

@<TRIPOS>ATOM
      1  C2         2.1170   -3.2120   15.0490 C.3   401  5RP401      0.2486
      2  C3         1.3570   -4.4210   14.5800 C.2   401  5RP401      0.2165
      3  C5        -0.1310   -4.3180   14.4210 C.3   401  5RP401      0.2439
      4  O13       -0.7010   -5.6170   14.1580 O.3   401  5RP401     -0.2122
      5  C6        -0.5280   -3.3250   13.2910 C.3   401  5RP401      0.2194
      6  O14       -1.9270   -3.3330   13.1630 O.3   401  5RP401     -0.2172
      7  C7         0.1350   -3.6600   11.9330 C.3   401  5RP401      0.1896
      8  O8         0.2230   -5.0700   11.7270 O.3   401  5RP401     -0.2674
      9  P9        -0.7240   -5.8850   10.7140 P.3   401  5RP401      0.5327
     10  O12       -0.5430   -5.3280    9.2500 O.2   401  5RP401     -0.2224
     11  O11       -0.2560   -7.3770   10.8290 O.3   401  5RP401     -0.1145
     12  O10       -2.1300   -5.7370   11.1160 O.3   401  5RP401     -0.1145
     13  O4         1.9320   -5.4780   14.3010 O.2   401  5RP401     -0.2905
     14  O1         3.5100   -3.5200   15.0670 O.3   401  5RP401     -0.2118
@<TRIPOS>BOND
     1    10     9    2
     2     9    11    1
     3     9    12    1
     4     9     8    1
     5     8     7    1
     6     7     5    1
     7     6     5    1
     8     5     3    1
     9     4     3    1
    10    13     2    2
    11     3     2    1
    12     2     1    1
    13     1    14    1
