@<TRIPOS>MOLECULE
1snu_STU_A_1.pdb
 35 42 0 0 0
SMALL
GASTEIGER

@<TRIPOS>ATOM
      1  O4        22.5330  -11.4070    7.6990 O.3   301  STU301     -0.3186
      2  C25       24.0010  -11.0610    7.5060 C.3   301  STU301      0.2078
      3  C24       24.4720   -9.9900    8.6040 C.3   301  STU301      0.0739
      4  C23       23.4400   -9.8360    9.7780 C.3   301  STU301      0.1086
      5  C22       22.0630   -9.2870    9.2080 C.3   301  STU301      0.1761
      6  C21       21.5410  -10.4020    8.1230 C.3   301  STU301      0.1915
      7  C26       20.4860  -11.2450    8.8830 C.3   301  STU301      0.0566
      8  N2        21.0880   -9.6310    6.8830 N.ar  301  STU301     -0.3054
      9  C18       21.8860   -9.2500    5.7560 C.ar  301  STU301      0.0774
     10  C19       23.3390   -9.5970    5.4240 C.ar  301  STU301      0.0783
     11  C6        23.8680   -9.0550    4.1910 C.ar  301  STU301      0.0293
     12  C7        23.1010   -8.2980    3.3170 C.ar  301  STU301      0.0822
     13  C10       21.7770   -7.9760    3.5970 C.ar  301  STU301      0.0154
     14  C11       21.1000   -8.4470    4.8080 C.ar  301  STU301      0.0173
     15  C12       19.8770   -8.3480    5.4140 C.ar  301  STU301      0.0171
     16  C17       19.8380   -9.0510    6.6290 C.ar  301  STU301      0.0617
     17  C16       18.6360   -9.0450    7.3860 C.ar  301  STU301      0.0172
     18  C15       17.4650   -8.3340    6.9180 C.ar  301  STU301      0.0015
     19  C14       17.5420   -7.6270    5.6610 C.ar  301  STU301      0.0001
     20  C13       18.7570   -7.6410    4.8980 C.ar  301  STU301      0.0015
     21  C9        21.2140   -7.1440    2.4870 C.3   301  STU301      0.1650
     22  N1        22.3910   -7.0150    1.6130 N.2   301  STU301     -0.1976
     23  C8        23.4740   -7.6880    2.1060 C.1   301  STU301      0.1501
     24  O5        24.5780   -7.7670    1.6140 O.2   301  STU301     -0.2222
     25  C5        25.1610   -9.6020    4.1980 C.ar  301  STU301      0.0180
     26  C20       25.3920  -10.3990    5.4150 C.ar  301  STU301      0.0618
     27  C1        26.6210  -11.0930    5.6280 C.ar  301  STU301      0.0172
     28  C2        27.6290  -10.9600    4.6080 C.ar  301  STU301      0.0015
     29  C3        27.4230  -10.1730    3.4130 C.ar  301  STU301      0.0001
     30  C4        26.2050   -9.4720    3.1870 C.ar  301  STU301      0.0015
     31  N3        24.2170  -10.3900    6.2010 N.ar  301  STU301     -0.3039
     32  O6        22.3260   -7.9960    8.5290 O.3   301  STU301     -0.3478
     33  C27       21.5720   -6.7760    8.7570 C.3   301  STU301      0.1743
     34  N4        23.9700   -8.9280   10.8010 N.3   301  STU301     -0.2152
     35  C28       24.7850   -9.5270   11.8860 C.3   301  STU301      0.1075
@<TRIPOS>BOND
     1    22    23    2
     2    22    21    1
     3    24    23    2
     4    23    12    1
     5    21    13    1
     6    30    29   ar
     7    30    25   ar
     8    12    13   ar
     9    12    11   ar
    10    29    28   ar
    11    13    14   ar
    12    11    25   ar
    13    11    10   ar
    14    25    26   ar
    15    28    27   ar
    16    14    15   ar
    17    14     9   ar
    18    20    15   ar
    19    20    19   ar
    20    15    16   ar
    21    26    27   ar
    22    26    31   ar
    23    10     9   ar
    24    10    31   ar
    25    19    18   ar
    26     9     8   ar
    27    31     2    1
    28    16     8   ar
    29    16    17   ar
    30     8     6    1
    31    18    17   ar
    32     2     1    1
    33     2     3    1
    34     1     6    1
    35     6     7    1
    36     6     5    1
    37    32    33    1
    38    32     5    1
    39     3     4    1
    40     5     4    1
    41     4    34    1
    42    34    35    1
