@<TRIPOS>MOLECULE
1sny_NAP_A_1.pdb
 48 52 0 0 0
SMALL
GASTEIGER

@<TRIPOS>ATOM
      1  PA        19.7420   20.7990   46.9370 P.3   400  NAP400      0.2189
      2  O1A       19.1020   21.6510   47.8590 O.3   400  NAP400     -0.4371
      3  O2A       21.2060   20.4130   46.9640 O.2   400  NAP400     -0.5170
      4  O5B       19.5010   21.3390   45.4510 O.3   400  NAP400     -0.3112
      5  C5B       18.1930   21.8470   45.0790 C.3   400  NAP400      0.1813
      6  C4B       18.4990   22.4690   43.6800 C.3   400  NAP400      0.1820
      7  O4B       17.1980   23.0240   43.1730 O.3   400  NAP400     -0.3136
      8  C3B       19.4410   23.7140   43.6960 C.3   400  NAP400      0.2157
      9  O3B       20.2130   23.6640   42.4860 O.3   400  NAP400     -0.2175
     10  C2B       18.4680   24.8720   43.7650 C.3   400  NAP400      0.2314
     11  O2B       18.9590   26.1420   43.3580 O.3   400  NAP400     -0.2630
     12  C1B       17.3170   24.3890   42.8540 C.3   400  NAP400      0.3158
     13  N9A       16.1290   25.1790   43.1330 N.pl3 400  NAP400     -0.1439
     14  C8A       15.3370   25.3040   44.2570 C.3   400  NAP400      0.3377
     15  N7A       14.3280   26.1560   44.1160 N.2   400  NAP400     -0.2095
     16  C5A       14.4780   26.6120   42.8150 C.2   400  NAP400      0.2526
     17  C6A       13.7120   27.5400   42.0870 C.2   400  NAP400      0.4393
     18  N6A       12.6180   28.2190   42.5170 N.pl3 400  NAP400      0.2180
     19  N1A       14.1160   27.8010   40.7640 N.2   400  NAP400      0.0021
     20  C2A       15.2350   27.1610   40.2050 C.3   400  NAP400      0.5254
     21  N3A       16.0090   26.2460   40.9040 N.2   400  NAP400     -0.0055
     22  C4A       15.5900   26.0050   42.2040 C.2   400  NAP400      0.3518
     23  O3        18.9760   19.4180   46.9050 O.3   400  NAP400     -0.2703
     24  PN        19.2160   18.0650   46.1340 P.3   400  NAP400      0.2189
     25  O1N       19.4810   16.9730   47.0850 O.3   400  NAP400     -0.4371
     26  O2N       20.2700   18.3400   45.1200 O.2   400  NAP400     -0.5170
     27  O5D       17.7940   17.7990   45.4890 O.3   400  NAP400     -0.3112
     28  C5D       17.6850   17.4420   44.0680 C.3   400  NAP400      0.1813
     29  C4D       16.3170   16.8240   43.8420 C.3   400  NAP400      0.1799
     30  O4D       16.2860   15.4870   44.4050 O.3   400  NAP400     -0.3327
     31  C3D       15.1130   17.5700   44.5030 C.3   400  NAP400      0.2158
     32  O3D       13.9720   17.5920   43.6120 O.3   400  NAP400     -0.2175
     33  C2D       14.8820   16.7670   45.7740 C.3   400  NAP400      0.2309
     34  O2D       13.5870   16.9220   46.3110 O.3   400  NAP400     -0.2158
     35  C1D       15.1480   15.3810   45.3230 C.3   400  NAP400      0.2263
     36  N1N       15.6110   14.4100   46.3390 N.pl3 400  NAP400     -0.2787
     37  C2N       16.8210   14.5200   47.0970 C.3   400  NAP400      0.1244
     38  C3N       17.1010   13.5000   48.0200 C.2   400  NAP400      0.0544
     39  C7N       18.3850   13.5660   48.8580 C.2   400  NAP400      0.2818
     40  O7N       18.5690   12.6500   49.6380 O.2   400  NAP400     -0.2670
     41  N7N       19.2270   14.5560   48.7310 N.am  400  NAP400     -0.0839
     42  C4N       16.1930   12.3610   48.2050 C.2   400  NAP400      0.0033
     43  C5N       15.0120   12.3090   47.4250 C.2   400  NAP400      0.0157
     44  C6N       14.7040   13.3270   46.4860 C.2   400  NAP400      0.0633
     45  P2B       19.6380   27.2180   44.3960 P.3   400  NAP400      0.5328
     46  O1X       21.0780   26.7400   44.6040 O.3   400  NAP400     -0.1145
     47  O2X       19.5310   28.4800   43.6060 O.2   400  NAP400     -0.2224
     48  O3X       18.8370   27.1720   45.6890 O.3   400  NAP400     -0.1145
@<TRIPOS>BOND
     1    20    19    1
     2    20    21    1
     3    19    17    2
     4    21    22    2
     5    17    18    1
     6    17    16    1
     7    22    16    1
     8    22    13    1
     9     9     8    1
    10    16    15    2
    11    12    13    1
    12    12     7    1
    13    12    10    1
    14    13    14    1
    15     7     6    1
    16    11    10    1
    17    11    45    1
    18    47    45    2
    19    32    31    1
    20     6     8    1
    21     6     5    1
    22     8    10    1
    23    29    28    1
    24    29    30    1
    25    29    31    1
    26    28    27    1
    27    15    14    1
    28    45    46    1
    29    45    48    1
    30    30    35    1
    31    31    33    1
    32     5     4    1
    33    26    24    2
    34    35    33    1
    35    35    36    1
    36     4     1    1
    37    27    24    1
    38    33    34    1
    39    24    23    1
    40    24    25    1
    41    36    44    1
    42    36    37    1
    43    44    43    2
    44    23     1    1
    45     1     3    2
    46     1     2    1
    47    37    38    1
    48    43    42    1
    49    38    42    2
    50    38    39    1
    51    41    39   am
    52    39    40    2
