@<TRIPOS>MOLECULE
1so0_GAL_A_1.pdb
 12 12 0 0 0
SMALL
GASTEIGER

@<TRIPOS>ATOM
      1  C1        -5.1000   -6.0200    0.5220 C.3   500  GAL500      0.3024
      2  C2        -6.4520   -6.6020    0.8740 C.3   500  GAL500      0.2434
      3  C3        -6.2970   -8.1160    0.9120 C.3   500  GAL500      0.2199
      4  C4        -6.0060   -8.5780   -0.5060 C.3   500  GAL500      0.2144
      5  C5        -4.6660   -7.9360   -0.8940 C.3   500  GAL500      0.1836
      6  C6        -4.2450   -8.3020   -2.3200 C.3   500  GAL500      0.2142
      7  O1        -5.1070   -4.5920    0.5940 O.3   500  GAL500     -0.1869
      8  O2        -7.0300   -6.0990    2.0990 O.3   500  GAL500     -0.2148
      9  O3        -7.5340   -8.7040    1.3220 O.3   500  GAL500     -0.2174
     10  O4        -7.0460   -8.1980   -1.4170 O.3   500  GAL500     -0.2176
     11  O5        -4.7260   -6.4910   -0.7910 O.3   500  GAL500     -0.3236
     12  O6        -3.9320   -9.6820   -2.3030 O.3   500  GAL500     -0.2176
@<TRIPOS>BOND
     1     6    12    1
     2     6     5    1
     3    10     4    1
     4     5    11    1
     5     5     4    1
     6    11     1    1
     7     4     3    1
     8     1     7    1
     9     1     2    1
    10     2     3    1
    11     2     8    1
    12     3     9    1
