@<TRIPOS>MOLECULE
1so2_HG9_A_1.pdb
 24 23 0 0 0
SMALL
GASTEIGER

@<TRIPOS>ATOM
      1  C9        50.8880   -3.5510    1.1820 C.3   453  HG9453      0.0000
      2  C12       50.9280   -2.3280    0.2470 C.3   453  HG9453      0.0000
      3  C15       51.7940   -1.1820    0.8080 C.3   453  HG9453      0.0000
      4  C18       52.5440   -0.4300   -0.2940 C.3   453  HG9453      0.0000
      5  C21       51.9810    0.9690   -0.5470 C.3   453  HG9453      0.0005
      6  C24       52.7240    1.6830   -1.6850 C.3   453  HG9453      0.0096
      7  C27       52.1230    3.0560   -1.9570 C.3   453  HG9453      0.0853
      8  C30       52.7830    3.8270   -3.1950 C.2   453  HG9453      0.2258
      9  N33       52.2530    5.0770   -3.5320 N.am  453  HG9453     -0.2741
     10  O34       53.7190    3.3100   -3.8380 O.2   453  HG9453     -0.2749
     11  C35       52.8590    5.7280   -4.7420 C.3   453  HG9453      0.1290
     12  C36       51.1320    5.7660   -2.7910 C.3   453  HG9453      0.1290
     13  C37       51.1510    6.8320   -1.6350 C.3   453  HG9453      0.2044
     14  C40       50.2660    8.0860   -1.8700 C.3   453  HG9453      0.2166
     15  C41       48.7300    7.8450   -1.7070 C.3   453  HG9453      0.2175
     16  C42       47.9010    9.1300   -1.9730 C.3   453  HG9453      0.2175
     17  C43       46.3730    8.9510   -1.8640 C.3   453  HG9453      0.2175
     18  O44       45.7790   10.2170   -2.1380 O.3   453  HG9453     -0.2175
     19  O47       52.4860    7.2450   -1.4800 O.3   453  HG9453     -0.2185
     20  O49       50.4960    8.5220   -3.1950 O.3   453  HG9453     -0.2175
     21  O51       48.4390    7.4250   -0.3670 O.3   453  HG9453     -0.2175
     22  O53       48.1110    9.6390   -3.2750 O.3   453  HG9453     -0.2175
     23  C60       54.0130    6.6970   -4.6140 C.3   453  HG9453      0.2035
     24  O63       54.3240    7.1240   -5.9190 O.3   453  HG9453     -0.2185
@<TRIPOS>BOND
     1    24    23    1
     2    11    23    1
     3    11     9    1
     4    10     8    2
     5     9     8   am
     6     9    12    1
     7    22    16    1
     8     8     7    1
     9    20    14    1
    10    12    13    1
    11    18    17    1
    12    16    17    1
    13    16    15    1
    14     7     6    1
    15    14    15    1
    16    14    13    1
    17    15    21    1
    18     6     5    1
    19    13    19    1
    20     5     4    1
    21     4     3    1
    22     2     3    1
    23     2     1    1
