@<TRIPOS>MOLECULE
1so2_666_A_1.pdb
 30 33 0 0 0
SMALL
GASTEIGER

@<TRIPOS>ATOM
      1  C1        64.6380    1.7810    7.4770 C.ar  461  666461      0.0001
      2  C2        64.4330    2.4140    8.7490 C.ar  461  666461     -0.0042
      3  C3        64.6860    1.7000    9.9980 C.ar  461  666461     -0.0210
      4  C4        65.1560    0.3260    9.9120 C.ar  461  666461      0.0015
      5  C5        65.3740   -0.3470    8.6080 C.ar  461  666461      0.0298
      6  C6        65.1080    0.4050    7.4120 C.ar  461  666461      0.0058
      7  C11       64.4640    2.3950   11.3560 C.3   461  666461      0.0393
      8  C12       63.2160    3.2920   11.3690 C.3   461  666461      0.0978
      9  C15       61.9440    2.8970   11.5700 C.2   461  666461      0.0437
     10  C16       60.9490    3.6210   12.5240 C.3   461  666461      0.0422
     11  C17       60.9380    5.1950   12.2730 C.3   461  666461      0.0137
     12  C18       62.5770    5.6440   12.4410 C.3   461  666461      0.0653
     13  C19       63.6500    4.5510   12.2220 C.2   461  666461      0.1558
     14  N26       61.5800    1.6900   10.7750 N.2   461  666461     -0.2535
     15  C27       60.4780    0.9210   10.6330 C.ar  461  666461      0.0806
     16  C28       59.4320    0.8880   11.5990 C.ar  461  666461      0.0191
     17  C29       58.3200    0.0610   11.4530 C.ar  461  666461      0.0028
     18  C30       58.2080   -0.7880   10.3090 C.ar  461  666461      0.0154
     19  C31       59.2420   -0.7720    9.3010 C.ar  461  666461      0.0028
     20  C32       60.3820    0.0900    9.4650 C.ar  461  666461      0.0191
     21  C37       57.0610   -1.6940   10.2260 C.2   461  666461      0.0820
     22  N38       56.9590   -2.6250    9.2070 N.2   461  666461     -0.1424
     23  N39       56.0280   -3.4790    9.0970 N.2   461  666461     -0.0774
     24  C40       54.8330   -3.4740    9.7710 C.1   461  666461      0.1494
     25  C41       54.6200   -2.2900   10.7390 C.3   461  666461      0.1295
     26  C42       55.9320   -1.7220   11.3300 C.3   461  666461      0.0587
     27  O45       64.7330    4.7000   12.7050 O.2   461  666461     -0.2957
     28  O46       54.0100   -4.3150    9.6430 O.2   461  666461     -0.2252
     29  C47       56.4010   -2.5900   12.5490 C.3   461  666461      0.0075
     30  I54       66.0770   -2.3830    8.4970 I     461  666461     -0.0425
@<TRIPOS>BOND
     1     6     1   ar
     2     6     5   ar
     3     1     2   ar
     4    30     5    1
     5     5     4   ar
     6     2     3   ar
     7    23    22    1
     8    23    24    2
     9    22    21    2
    10    19    20   ar
    11    19    18   ar
    12    20    15   ar
    13    28    24    2
    14    24    25    1
    15     4     3   ar
    16     3     7    1
    17    21    18    1
    18    21    26    1
    19    18    17   ar
    20    15    14    1
    21    15    16   ar
    22    25    26    1
    23    14     9    2
    24    26    29    1
    25     7     8    1
    26     8     9    1
    27     8    13    1
    28    17    16   ar
    29     9    10    1
    30    13    12    1
    31    13    27    2
    32    11    12    1
    33    11    10    1
