@<TRIPOS>MOLECULE
1so3_TX4_A_1.pdb
 14 13 0 0 0
SMALL
GASTEIGER

@<TRIPOS>ATOM
      1  O7        64.1220   23.6590   24.7900 O.3   2301  TX42301    -0.1145
      2  P         65.3550   23.3720   23.9560 P.3   2301  TX42301     0.5327
      3  O5        65.5430   24.4260   22.8410 O.2   2301  TX42301    -0.2224
      4  O6        66.5960   23.1820   24.8370 O.3   2301  TX42301    -0.1145
      5  O4        65.0760   21.9930   23.1780 O.3   2301  TX42301    -0.2674
      6  C4        64.9880   20.7230   23.8070 C.3   2301  TX42301     0.1895
      7  C3        63.5210   20.3800   24.0750 C.3   2301  TX42301     0.2182
      8  O3        63.4550   19.1010   24.7040 O.3   2301  TX42301    -0.2172
      9  C2        62.7710   20.3620   22.7420 C.3   2301  TX42301     0.2291
     10  O2        63.3730   19.5260   21.7540 O.3   2301  TX42301    -0.2134
     11  C1        61.3840   19.8410   22.9600 C.2   2301  TX42301     0.1201
     12  O1        61.0890   18.5890   22.6210 O.2   2301  TX42301    -0.5373
     13  N         60.5630   20.6340   23.4770 N.am  2301  TX42301    -0.2003
     14  ON        59.2180   20.1840   23.6990 O.3   2301  TX42301    -0.4026
@<TRIPOS>BOND
     1    10     9    1
     2    12    11    2
     3     9    11    1
     4     9     7    1
     5     3     2    2
     6    11    13   am
     7     5     6    1
     8     5     2    1
     9    13    14    1
    10     6     7    1
    11     2     1    1
    12     2     4    1
    13     7     8    1
