@<TRIPOS>MOLECULE
1so4_TX4_A_1.pdb
 14 13 0 0 0
SMALL
GASTEIGER

@<TRIPOS>ATOM
      1  O7        64.0610   23.5480   24.9020 O.3   1301  TX41301    -0.1145
      2  P         65.3130   23.2980   24.0660 P.3   1301  TX41301     0.5327
      3  O5        65.4740   24.2960   22.9360 O.2   1301  TX41301    -0.2224
      4  O6        66.5740   23.0530   24.9160 O.3   1301  TX41301    -0.1145
      5  O4        64.9870   21.9470   23.2670 O.3   1301  TX41301    -0.2674
      6  C4        64.8370   20.6460   23.8620 C.3   1301  TX41301     0.1895
      7  C3        63.3590   20.3090   23.9980 C.3   1301  TX41301     0.2182
      8  O3        63.3620   19.0440   24.6520 O.3   1301  TX41301    -0.2172
      9  C2        62.6620   20.2570   22.6380 C.3   1301  TX41301     0.2291
     10  O2        63.3150   19.3210   21.7450 O.3   1301  TX41301    -0.2134
     11  C1        61.2340   19.7880   22.8620 C.2   1301  TX41301     0.1201
     12  O1        60.9400   18.5380   22.6040 O.2   1301  TX41301    -0.5373
     13  N         60.3870   20.6350   23.2740 N.am  1301  TX41301    -0.2003
     14  ON        59.0600   20.0950   23.4560 O.3   1301  TX41301    -0.4026
@<TRIPOS>BOND
     1    10     9    1
     2    12    11    2
     3     9    11    1
     4     9     7    1
     5    11    13   am
     6     3     2    2
     7     5     6    1
     8     5     2    1
     9    13    14    1
    10     6     7    1
    11     7     8    1
    12     2     1    1
    13     2     4    1
