@<TRIPOS>MOLECULE
1so5_TX4_A_1.pdb
 14 13 0 0 0
SMALL
GASTEIGER

@<TRIPOS>ATOM
      1  O7        63.8450   23.4920   25.0700 O.3   2301  TX42301    -0.1145
      2  P         64.9770   23.1430   24.1580 P.3   2301  TX42301     0.5327
      3  O5        65.1220   24.1890   23.0310 O.2   2301  TX42301    -0.2224
      4  O6        66.2620   22.8590   24.9070 O.3   2301  TX42301    -0.1145
      5  O4        64.5310   21.8310   23.3460 O.3   2301  TX42301    -0.2674
      6  C4        64.4590   20.5390   23.9630 C.3   2301  TX42301     0.1895
      7  C3        63.0060   20.0850   24.0710 C.3   2301  TX42301     0.2182
      8  O3        62.9830   18.8400   24.7530 O.3   2301  TX42301    -0.2172
      9  C2        62.3600   20.0210   22.6920 C.3   2301  TX42301     0.2291
     10  O2        63.1070   19.1920   21.8080 O.3   2301  TX42301    -0.2134
     11  C1        60.9460   19.5150   22.7420 C.2   2301  TX42301     0.1201
     12  O1        60.7520   18.2220   22.5820 O.2   2301  TX42301    -0.5373
     13  N         60.0190   20.3540   22.9120 N.am  2301  TX42301    -0.2003
     14  ON        58.6730   19.9270   22.9140 O.3   2301  TX42301    -0.4026
@<TRIPOS>BOND
     1    10     9    1
     2    12    11    2
     3     9    11    1
     4     9     7    1
     5    11    13   am
     6    13    14    1
     7     3     2    2
     8     5     6    1
     9     5     2    1
    10     6     7    1
    11     7     8    1
    12     2     4    1
    13     2     1    1
