@<TRIPOS>MOLECULE
1so6_TX4_A_1.pdb
 14 13 0 0 0
SMALL
GASTEIGER

@<TRIPOS>ATOM
      1  O7        63.9230   23.4800   24.7450 O.3   2301  TX42301    -0.1145
      2  P         65.1600   23.2240   23.9230 P.3   2301  TX42301     0.5327
      3  O5        65.3170   24.2170   22.7780 O.2   2301  TX42301    -0.2224
      4  O6        66.3660   23.0150   24.8360 O.3   2301  TX42301    -0.1145
      5  O4        64.8580   21.8650   23.1560 O.3   2301  TX42301    -0.2674
      6  C4        64.7720   20.6160   23.8590 C.3   2301  TX42301     0.1895
      7  C3        63.3210   20.1720   24.0770 C.3   2301  TX42301     0.2182
      8  O3        63.3280   18.8440   24.6060 O.3   2301  TX42301    -0.2172
      9  C2        62.5510   20.1270   22.7610 C.3   2301  TX42301     0.2291
     10  O2        63.1890   19.2640   21.8130 O.3   2301  TX42301    -0.2134
     11  C1        61.1860   19.5650   22.9930 C.2   2301  TX42301     0.1201
     12  O1        60.9570   18.3190   22.6580 O.2   2301  TX42301    -0.5373
     13  N         60.3180   20.3250   23.5170 N.am  2301  TX42301    -0.2003
     14  ON        59.0180   19.8220   23.7370 O.3   2301  TX42301    -0.4026
@<TRIPOS>BOND
     1    10     9    1
     2    12    11    2
     3     9    11    1
     4     9     7    1
     5     3     2    2
     6    11    13   am
     7     5     6    1
     8     5     2    1
     9    13    14    1
    10     6     7    1
    11     2     1    1
    12     2     4    1
    13     7     8    1
