@<TRIPOS>MOLECULE
1sof_HEM_B_1.pdb
 43 50 0 0 0
SMALL
GASTEIGER

@<TRIPOS>ATOM
      1  CHA       22.8210   36.1000   95.5340 C.2   1200  HEM1200     0.0000
      2  CHB       19.3840   39.5480   95.7250 C.2   1200  HEM1200     0.0000
      3  CHC       15.9100   36.0870   95.4600 C.2   1200  HEM1200     0.0000
      4  CHD       19.3520   32.6450   95.2350 C.2   1200  HEM1200     0.0000
      5  C1A       22.2250   37.3510   95.6000 C.2   1200  HEM1200     0.0000
      6  C2A       22.9270   38.6410   95.6620 C.2   1200  HEM1200     0.0000
      7  C3A       21.9560   39.6200   95.7180 C.2   1200  HEM1200     0.0000
      8  C4A       20.6560   38.9260   95.6870 C.2   1200  HEM1200     0.0000
      9  CMA       22.1440   41.1170   95.7920 C.3   1200  HEM1200     0.0000
     10  CAA       24.4310   38.8200   95.6620 C.3   1200  HEM1200     0.0000
     11  CBA       24.9690   38.8810   94.2330 C.3   1200  HEM1200     0.0000
     12  CGA       26.4830   39.0550   94.0610 C.2   1200  HEM1200     0.0000
     13  O1A       27.0730   39.9790   94.6960 O.co2 1200  HEM1200     0.0000
     14  O2A       27.0770   38.2630   93.2740 O.co2 1200  HEM1200     0.0000
     15  C1B       18.1120   38.9280   95.6840 C.ar  1200  HEM1200     0.0000
     16  C2B       16.8130   39.6200   95.7260 C.ar  1200  HEM1200     0.0000
     17  C3B       15.8630   38.6350   95.6500 C.ar  1200  HEM1200     0.0000
     18  C4B       16.5450   37.3550   95.5640 C.ar  1200  HEM1200     0.0000
     19  CMB       16.6040   41.1160   95.8270 C.3   1200  HEM1200     0.0000
     20  CAB       14.4040   38.7640   95.6440 C.2   1200  HEM1200     0.0000
     21  CBB       13.6320   38.9070   96.6950 C.2   1200  HEM1200     0.0000
     22  C1C       16.5000   34.8270   95.3620 C.2   1200  HEM1200     0.0000
     23  C2C       15.7880   33.5580   95.2210 C.2   1200  HEM1200     0.0000
     24  C3C       16.7480   32.5700   95.1490 C.2   1200  HEM1200     0.0000
     25  C4C       18.0690   33.2530   95.2520 C.2   1200  HEM1200     0.0000
     26  CMC       14.2830   33.4290   95.1670 C.3   1200  HEM1200     0.0000
     27  CAC       16.5390   31.1050   94.9970 C.2   1200  HEM1200     0.0000
     28  CBC       16.7930   30.1520   95.8890 C.2   1200  HEM1200     0.0000
     29  C1D       20.6320   33.2620   95.3140 C.ar  1200  HEM1200     0.0000
     30  C2D       21.9200   32.5720   95.3110 C.ar  1200  HEM1200     0.0000
     31  C3D       22.8980   33.5640   95.3990 C.ar  1200  HEM1200     0.0000
     32  C4D       22.2070   34.8400   95.4490 C.ar  1200  HEM1200     0.0000
     33  CMD       22.1170   31.0780   95.2280 C.3   1200  HEM1200     0.0000
     34  CAD       24.3950   33.3830   95.4330 C.3   1200  HEM1200     0.0000
     35  CBD       25.0080   33.7160   96.8170 C.3   1200  HEM1200     0.0000
     36  CGD       26.5300   33.5500   96.7650 C.2   1200  HEM1200     0.0000
     37  O1D       27.1840   34.1580   95.8590 O.co2 1200  HEM1200     0.0000
     38  O2D       27.0570   32.8210   97.6620 O.co2 1200  HEM1200     0.0000
     39  NA        20.8440   37.5630   95.6080 N.2   1200  HEM1200     0.0000
     40  NB        17.9110   37.5560   95.5890 N.ar  1200  HEM1200     0.0000
     41  NC        17.8560   34.6050   95.3670 N.2   1200  HEM1200     0.0000
     42  ND        20.8500   34.6310   95.4120 N.ar  1200  HEM1200     0.0000
     43 FE         19.3720   36.0590   95.4940 Fe    1200  HEM1200     0.0000
@<TRIPOS>BOND
     1    14    12   ar
     2    12    11    1
     3    12    13   ar
     4    11    10    1
     5    27    24    1
     6    27    28    2
     7    24    23    2
     8    24    25    1
     9    26    23    1
    10    23    22    1
    11    33    30    1
    12     4    25    1
    13     4    29    2
    14    25    41    2
    15    30    29   ar
    16    30    31   ar
    17    29    42   ar
    18    22    41    1
    19    22     3    2
    20    41    43    1
    21    31    34    1
    22    31    32   ar
    23    42    32   ar
    24    42    43    1
    25    34    35    1
    26    32     1    2
    27     3    18    1
    28    43    40    1
    29    43    39    1
    30     1     5    1
    31    18    40   ar
    32    18    17   ar
    33    40    15   ar
    34     5    39    2
    35     5     6    1
    36    39     8    1
    37    20    17    1
    38    20    21    2
    39    17    16   ar
    40    10     6    1
    41     6     7    2
    42    15     2    1
    43    15    16   ar
    44     8     7    1
    45     8     2    2
    46     7     9    1
    47    16    19    1
    48    37    36   ar
    49    36    35    1
    50    36    38   ar
