@<TRIPOS>MOLECULE
1sog_HEM_A_1.pdb
 43 50 0 0 0
SMALL
GASTEIGER

@<TRIPOS>ATOM
      1 FE         28.3090   92.1390   52.3420 Fe    296  HEM296      0.0000
      2  CHA       27.9630   94.3130   49.7160 C.2   296  HEM296      0.0000
      3  CHB       30.7290   94.1970   53.7000 C.2   296  HEM296      0.0000
      4  CHC       28.5360   90.1050   55.0840 C.2   296  HEM296      0.0000
      5  CHD       25.5490   90.4150   51.2700 C.2   296  HEM296      0.0000
      6  NA        29.1260   93.9400   51.8560 N.2   296  HEM296      0.0000
      7  C1A       28.8890   94.6530   50.6980 C.2   296  HEM296      0.0000
      8  C2A       29.7220   95.8290   50.6710 C.2   296  HEM296      0.0000
      9  C3A       30.5090   95.7870   51.7680 C.2   296  HEM296      0.0000
     10  C4A       30.1380   94.6090   52.5110 C.2   296  HEM296      0.0000
     11  CMA       31.5890   96.7930   52.1650 C.3   296  HEM296      0.0000
     12  CAA       29.6910   96.9170   49.6070 C.3   296  HEM296      0.0000
     13  CBA       28.5150   97.8700   49.7540 C.3   296  HEM296      0.0000
     14  CGA       28.5090   98.9480   48.6900 C.2   296  HEM296      0.0000
     15  O1A       29.5360   99.6430   48.5410 O.co2 296  HEM296      0.0000
     16  O2A       27.4780   99.1020   48.0040 O.co2 296  HEM296      0.0000
     17  NB        29.3970   92.1670   54.0630 N.ar  296  HEM296      0.0000
     18  C1B       30.3900   93.0560   54.4170 C.ar  296  HEM296      0.0000
     19  C2B       31.0540   92.6070   55.6160 C.ar  296  HEM296      0.0000
     20  C3B       30.4830   91.4330   55.9710 C.ar  296  HEM296      0.0000
     21  C4B       29.4200   91.1780   55.0250 C.ar  296  HEM296      0.0000
     22  CMB       32.1680   93.3640   56.3360 C.3   296  HEM296      0.0000
     23  CAB       30.8070   90.6170   57.0740 C.3   296  HEM296      0.0000
     24  CBB       32.1110   90.5220   57.7030 C.3   296  HEM296      0.0000
     25  NC        27.2090   90.6140   53.0770 N.2   296  HEM296      0.0000
     26  C1C       27.4970   89.8530   54.1900 C.2   296  HEM296      0.0000
     27  C2C       26.4700   88.8490   54.3740 C.2   296  HEM296      0.0000
     28  C3C       25.5860   88.9930   53.3550 C.2   296  HEM296      0.0000
     29  C4C       26.1100   90.0260   52.4860 C.2   296  HEM296      0.0000
     30  CMC       26.4000   87.8810   55.5680 C.3   296  HEM296      0.0000
     31  CAC       24.3490   88.3540   53.1840 C.3   296  HEM296      0.0000
     32  CBC       24.0410   86.9440   53.4110 C.3   296  HEM296      0.0000
     33  ND        27.0060   92.3370   50.7990 N.ar  296  HEM296      0.0000
     34  C1D       25.9780   91.4780   50.4750 C.ar  296  HEM296      0.0000
     35  C2D       25.5030   91.7630   49.1360 C.ar  296  HEM296      0.0000
     36  C3D       26.2070   92.8310   48.6840 C.ar  296  HEM296      0.0000
     37  C4D       27.0970   93.2280   49.7530 C.ar  296  HEM296      0.0000
     38  CMD       24.4350   90.9600   48.3910 C.3   296  HEM296      0.0000
     39  CAD       26.0940   93.5040   47.2950 C.3   296  HEM296      0.0000
     40  CBD       25.2470   94.7710   47.3400 C.3   296  HEM296      0.0000
     41  CGD       25.0940   95.4450   45.9850 C.2   296  HEM296      0.0000
     42  O1D       24.3690   96.4580   45.9200 O.co2 296  HEM296      0.0000
     43  O2D       25.6900   94.9700   44.9900 O.co2 296  HEM296      0.0000
@<TRIPOS>BOND
     1    43    41   ar
     2    42    41   ar
     3    41    40    1
     4    39    40    1
     5    39    36    1
     6    16    14   ar
     7    38    35    1
     8    15    14   ar
     9    36    35   ar
    10    36    37   ar
    11    14    13    1
    12    35    34   ar
    13    12    13    1
    14    12     8    1
    15     2    37    2
    16     2     7    1
    17    37    33   ar
    18    34    33   ar
    19    34     5    2
    20     8     7    1
    21     8     9    2
    22     7     6    2
    23    33     1    1
    24     5    29    1
    25     9    11    1
    26     9    10    1
    27     6     1    1
    28     6    10    1
    29     1    25    1
    30     1    17    1
    31    29    25    2
    32    29    28    1
    33    10     3    2
    34    25    26    1
    35    31    28    1
    36    31    32    1
    37    28    27    2
    38     3    18    1
    39    17    18   ar
    40    17    21   ar
    41    26    27    1
    42    26     4    2
    43    27    30    1
    44    18    19   ar
    45    21     4    1
    46    21    20   ar
    47    19    20   ar
    48    19    22    1
    49    20    23    1
    50    23    24    1
