@<TRIPOS>MOLECULE
1soj_IBM_A_1.pdb
 16 17 0 0 0
SMALL
GASTEIGER

@<TRIPOS>ATOM
      1  N9       114.4950   -2.4400   13.2200 N.2   2111  IBM2111    -0.2256
      2  C8       114.3200   -1.8640   12.0120 C.3   2111  IBM2111     0.2523
      3  N7       113.4190   -0.8650   11.9970 N.2   2111  IBM2111    -0.2364
      4  C5       112.9490   -0.7670   13.3580 C.ar  2111  IBM2111     0.1681
      5  C4       113.5620   -1.6960   14.0840 C.ar  2111  IBM2111     0.1667
      6  N3       113.2670   -1.8060   15.5430 N.ar  2111  IBM2111    -0.2651
      7  C2       112.3230   -0.9710   16.1560 C.ar  2111  IBM2111     0.3350
      8  N1       111.7000   -0.0140   15.3480 N.ar  2111  IBM2111    -0.2454
      9  C6       111.9440    0.1280   13.9820 C.ar  2111  IBM2111     0.2846
     10  O6       111.4190    0.9550   13.2310 O.2   2111  IBM2111    -0.2651
     11  O2       112.0830   -1.0680   17.3540 O.2   2111  IBM2111    -0.2461
     12  C10      110.7100    0.8770   16.0020 C.3   2111  IBM2111     0.1383
     13  C11      113.9690   -2.8230   16.3440 C.3   2111  IBM2111     0.1119
     14  C12      115.5020   -2.5450   16.3940 C.3   2111  IBM2111     0.0228
     15  C13      116.2430   -3.5970   17.2330 C.3   2111  IBM2111     0.0020
     16  C14      115.7970   -1.1140   16.9250 C.3   2111  IBM2111     0.0020
@<TRIPOS>BOND
     1     3     2    1
     2     3     4    2
     3     2     1    1
     4     1     5    2
     5    10     9    2
     6     4     9   ar
     7     4     5   ar
     8     9     8   ar
     9     5     6   ar
    10     8    12    1
    11     8     7   ar
    12     6     7   ar
    13     6    13    1
    14     7    11    2
    15    13    14    1
    16    14    16    1
    17    14    15    1
