@<TRIPOS>MOLECULE
1son_AMP_A_1.pdb
 23 25 0 0 0
SMALL
GASTEIGER

@<TRIPOS>ATOM
      1  P          6.9350   77.5120   59.3930 P.3   453  AMP453      0.5327
      2  O1P        7.2770   78.9540   59.3890 O.3   453  AMP453     -0.1145
      3  O2P        5.5380   77.3000   59.0180 O.3   453  AMP453     -0.1145
      4  O3P        8.0000   76.7050   58.7610 O.2   453  AMP453     -0.2224
      5  O5'        7.0460   77.1690   60.9050 O.3   453  AMP453     -0.2675
      6  C5'        6.1470   76.3390   61.5820 C.3   453  AMP453      0.1860
      7  C4'        6.7900   75.7210   62.8140 C.3   453  AMP453      0.1823
      8  O4'        8.0910   75.2180   62.4650 O.3   453  AMP453     -0.3135
      9  C3'        7.0580   76.6290   64.0370 C.3   453  AMP453      0.2184
     10  O3'        7.0530   75.7290   65.1730 O.3   453  AMP453     -0.2174
     11  C2'        8.4590   77.0680   63.7160 C.3   453  AMP453      0.2570
     12  O2'        9.1470   77.4970   64.8400 O.3   453  AMP453     -0.2130
     13  C1'        9.0940   75.8070   63.2800 C.3   453  AMP453      0.3186
     14  N9        10.3140   76.0410   62.5260 N.pl3 453  AMP453     -0.1439
     15  C8        10.5000   76.5510   61.3070 C.3   453  AMP453      0.3377
     16  N7        11.7100   76.9410   61.0290 N.2   453  AMP453     -0.2095
     17  C5        12.4000   76.3870   62.0580 C.2   453  AMP453      0.2526
     18  C6        13.7590   76.3160   62.3080 C.2   453  AMP453      0.4393
     19  N6        14.6950   76.7260   61.4030 N.pl3 453  AMP453      0.2180
     20  N1        14.0840   75.8780   63.5290 N.2   453  AMP453      0.0021
     21  C2        13.1400   75.5070   64.3840 C.3   453  AMP453      0.5254
     22  N3        11.8390   75.3630   64.1910 N.2   453  AMP453     -0.0055
     23  C4        11.5400   75.8950   63.0080 C.2   453  AMP453      0.3518
@<TRIPOS>BOND
     1     4     1    2
     2     3     1    1
     3     2     1    1
     4     1     5    1
     5     5     6    1
     6    16    15    1
     7    16    17    2
     8    15    14    1
     9    19    18    1
    10     6     7    1
    11    17    18    1
    12    17    23    1
    13    18    20    2
    14     8     7    1
    15     8    13    1
    16    14    23    1
    17    14    13    1
    18     7     9    1
    19    23    22    2
    20    13    11    1
    21    20    21    1
    22    11     9    1
    23    11    12    1
    24     9    10    1
    25    22    21    1
