@<TRIPOS>MOLECULE
1soo_H5P_A_1.pdb
 19 20 0 0 0
SMALL
GASTEIGER

@<TRIPOS>ATOM
      1  C2        10.0590   75.8590   62.8650 C.1   453  H5P453      0.2421
      2  O2        10.0930   75.3430   63.9920 O.2   453  H5P453     -0.2089
      3  N3        11.2320   76.0850   62.1700 N.2   453  H5P453     -0.2424
      4  C4        10.8620   76.6570   60.9790 C.1   453  H5P453      0.3094
      5  O4        11.5950   77.0230   60.1270 O.2   453  H5P453     -0.1881
      6  N5         9.4870   76.7800   60.9430 N.2   453  H5P453     -0.1323
      7  C1'        8.9220   76.3060   62.0970 C.3   453  H5P453      0.3255
      8  C2'        8.1270   77.5140   62.6410 C.3   453  H5P453      0.2482
      9  O2'        8.8580   78.1880   63.6710 O.3   453  H5P453     -0.2143
     10  C3'        6.8540   76.8760   63.2480 C.3   453  H5P453      0.2173
     11  O3'        7.1910   76.2440   64.4880 O.3   453  H5P453     -0.2175
     12  C4'        6.5460   75.8310   62.1880 C.3   453  H5P453      0.1813
     13  O4'        7.8410   75.3300   61.8360 O.3   453  H5P453     -0.3201
     14  C5'        5.8620   76.4150   60.9550 C.3   453  H5P453      0.1859
     15  O5'        6.6310   77.4650   60.3940 O.3   453  H5P453     -0.2675
     16  P          6.7790   77.6940   58.8040 P.3   453  H5P453      0.5327
     17  O1P        7.9570   76.9680   58.3320 O.3   453  H5P453     -0.1145
     18  O2P        7.0210   79.1650   58.6140 O.3   453  H5P453     -0.1145
     19  O3P        5.6080   77.2680   58.0680 O.2   453  H5P453     -0.2224
@<TRIPOS>BOND
     1    19    16    2
     2    17    16    1
     3    18    16    1
     4    16    15    1
     5     5     4    2
     6    15    14    1
     7     6     4    2
     8     6     7    1
     9    14    12    1
    10     4     3    2
    11    13     7    1
    12    13    12    1
    13     7     8    1
    14     7     1    1
    15     3     1    2
    16    12    10    1
    17     8    10    1
    18     8     9    1
    19     1     2    2
    20    10    11    1
