@<TRIPOS>MOLECULE
1sow_NAD_A_1.pdb
 44 48 0 0 0
SMALL
GASTEIGER

@<TRIPOS>ATOM
      1  PA        36.7350   65.0540   64.9420 P.3   401  NAD401      0.2189
      2  O1A       36.5720   66.2970   64.2930 O.2   401  NAD401     -0.5170
      3  O2A       36.7260   65.0560   66.4560 O.3   401  NAD401     -0.4371
      4  O5B       35.6030   64.1020   64.4350 O.3   401  NAD401     -0.3112
      5  C5B       35.5260   62.6870   64.8310 C.3   401  NAD401      0.1813
      6  C4B       34.0200   62.5050   64.5550 C.3   401  NAD401      0.1821
      7  O4B       33.5650   61.0890   64.7460 O.3   401  NAD401     -0.3135
      8  C3B       33.0080   63.3250   65.4680 C.3   401  NAD401      0.2184
      9  O3B       32.0730   63.9840   64.6140 O.3   401  NAD401     -0.2174
     10  C2B       32.3520   62.2600   66.3580 C.3   401  NAD401      0.2570
     11  O2B       31.0030   62.5540   66.7220 O.3   401  NAD401     -0.2130
     12  C1B       32.3630   61.0540   65.4400 C.3   401  NAD401      0.3186
     13  N9A       32.0840   59.8160   66.1290 N.pl3 401  NAD401     -0.1439
     14  C8A       32.3960   59.3490   67.3830 C.3   401  NAD401      0.3377
     15  N7A       31.9290   58.1350   67.6340 N.2   401  NAD401     -0.2095
     16  C5A       31.2740   57.7960   66.4550 C.2   401  NAD401      0.2526
     17  C6A       30.5790   56.6350   66.1180 C.2   401  NAD401      0.4393
     18  N6A       30.3890   55.5480   66.9030 N.pl3 401  NAD401      0.2180
     19  N1A       30.0130   56.5780   64.8250 N.2   401  NAD401      0.0021
     20  C2A       30.1380   57.6510   63.9210 C.3   401  NAD401      0.5254
     21  N3A       30.8160   58.8100   64.2320 N.2   401  NAD401     -0.0055
     22  C4A       31.3690   58.8380   65.5210 C.2   401  NAD401      0.3518
     23  O3        38.0810   64.3620   64.4920 O.3   401  NAD401     -0.2703
     24  PN        39.0270   64.4780   63.2020 P.3   401  NAD401      0.2189
     25  O1N       39.9380   65.6470   63.3170 O.3   401  NAD401     -0.4371
     26  O2N       38.0970   64.4230   62.0450 O.2   401  NAD401     -0.5170
     27  O5D       39.9160   63.1560   63.3610 O.3   401  NAD401     -0.3112
     28  C5D       39.2260   61.8800   63.2330 C.3   401  NAD401      0.1813
     29  C4D       40.1750   60.7460   63.5320 C.3   401  NAD401      0.1799
     30  O4D       41.2770   60.7160   62.5880 O.3   401  NAD401     -0.3327
     31  C3D       40.8730   60.7350   64.9540 C.3   401  NAD401      0.2158
     32  O3D       40.9220   59.4010   65.4840 O.3   401  NAD401     -0.2175
     33  C2D       42.2450   61.2880   64.6340 C.3   401  NAD401      0.2309
     34  O2D       43.2180   60.9900   65.6290 O.3   401  NAD401     -0.2158
     35  C1D       42.5030   60.6000   63.3580 C.3   401  NAD401      0.2263
     36  N1N       43.5640   61.0950   62.4530 N.pl3 401  NAD401     -0.2787
     37  C2N       44.3270   60.1800   61.7050 C.3   401  NAD401      0.1244
     38  C3N       45.3120   60.6530   60.8710 C.2   401  NAD401      0.0544
     39  C7N       46.1280   59.6430   60.0830 C.2   401  NAD401      0.2818
     40  O7N       47.0310   60.0890   59.3710 O.2   401  NAD401     -0.2670
     41  N7N       45.8710   58.3620   60.1860 N.am  401  NAD401     -0.0839
     42  C4N       45.5770   62.0840   60.7490 C.2   401  NAD401      0.0033
     43  C5N       44.7780   62.9820   61.5210 C.2   401  NAD401      0.0157
     44  C6N       43.7580   62.5060   62.3900 C.2   401  NAD401      0.0633
@<TRIPOS>BOND
     1    40    39    2
     2    39    41   am
     3    39    38    1
     4    42    38    2
     5    42    43    1
     6    38    37    1
     7    43    44    2
     8    37    36    1
     9    26    24    2
    10    44    36    1
    11    36    35    1
    12    30    35    1
    13    30    29    1
    14    24    25    1
    15    24    27    1
    16    24    23    1
    17    28    27    1
    18    28    29    1
    19    35    33    1
    20    29    31    1
    21    20    21    1
    22    20    19    1
    23    21    22    2
    24     2     1    2
    25     4     5    1
    26     4     1    1
    27    23     1    1
    28     6     7    1
    29     6     5    1
    30     6     8    1
    31     9     8    1
    32    33    31    1
    33    33    34    1
    34     7    12    1
    35    19    17    2
    36     1     3    1
    37    31    32    1
    38    12    13    1
    39    12    10    1
    40     8    10    1
    41    22    13    1
    42    22    16    1
    43    17    16    1
    44    17    18    1
    45    13    14    1
    46    10    11    1
    47    16    15    2
    48    14    15    1
