@<TRIPOS>MOLECULE
1sox_HEM_A_1.pdb
 43 50 0 0 0
SMALL
GASTEIGER

@<TRIPOS>ATOM
      1  CHA        5.9360  119.7020   38.6870 C.2   502  HEM502      0.0000
      2  CHB        8.7890  123.6040   38.7300 C.2   502  HEM502      0.0000
      3  CHC       12.6240  120.8150   37.8910 C.2   502  HEM502      0.0000
      4  CHD        9.8030  116.9030   38.0680 C.2   502  HEM502      0.0000
      5  C1A        6.3640  121.0200   38.7180 C.2   502  HEM502      0.0000
      6  C2A        5.5100  122.1910   38.7990 C.2   502  HEM502      0.0000
      7  C3A        6.2920  123.2690   38.8130 C.2   502  HEM502      0.0000
      8  C4A        7.6670  122.8070   38.7360 C.2   502  HEM502      0.0000
      9  CMA        5.8830  124.7570   38.8920 C.3   502  HEM502      0.0000
     10  CAA        3.9570  122.0990   38.8120 C.3   502  HEM502      0.0000
     11  CBA        3.3870  122.1890   37.3770 C.3   502  HEM502      0.0000
     12  CGA        1.8950  122.2850   37.2000 C.2   502  HEM502      0.0000
     13  O1A        1.2590  121.2040   37.1190 O.co2 502  HEM502      0.0000
     14  O2A        1.3810  123.4250   37.1190 O.co2 502  HEM502      0.0000
     15  C1B       10.0860  123.1990   38.4880 C.ar  502  HEM502      0.0000
     16  C2B       11.2290  124.0710   38.3370 C.ar  502  HEM502      0.0000
     17  C3B       12.2890  123.3020   38.1180 C.ar  502  HEM502      0.0000
     18  C4B       11.8400  121.9270   38.1090 C.ar  502  HEM502      0.0000
     19  CMB       11.1620  125.6150   38.4390 C.3   502  HEM502      0.0000
     20  CAB       13.7690  123.7100   37.8930 C.2   502  HEM502      0.0000
     21  CBB       14.3470  124.5400   38.7750 C.2   502  HEM502      0.0000
     22  C1C       12.1890  119.5140   37.8130 C.2   502  HEM502      0.0000
     23  C2C       13.0150  118.3610   37.4590 C.2   502  HEM502      0.0000
     24  C3C       12.2420  117.2800   37.5050 C.2   502  HEM502      0.0000
     25  C4C       10.9110  117.7150   37.8910 C.2   502  HEM502      0.0000
     26  CMC       14.5100  118.4690   37.0860 C.3   502  HEM502      0.0000
     27  CAC       12.5690  115.8010   37.2120 C.2   502  HEM502      0.0000
     28  CBC       13.8110  115.3310   37.2260 C.2   502  HEM502      0.0000
     29  C1D        8.4940  117.3020   38.2990 C.ar  502  HEM502      0.0000
     30  C2D        7.3610  116.4200   38.4960 C.ar  502  HEM502      0.0000
     31  C3D        6.2670  117.1900   38.6780 C.ar  502  HEM502      0.0000
     32  C4D        6.7170  118.5700   38.5760 C.ar  502  HEM502      0.0000
     33  CMD        7.5000  114.8850   38.4860 C.3   502  HEM502      0.0000
     34  CAD        4.8220  116.7540   38.9000 C.3   502  HEM502      0.0000
     35  CBD        3.8930  116.9860   40.0610 C.3   502  HEM502      0.0000
     36  CGD        4.1450  116.2600   41.3540 C.2   502  HEM502      0.0000
     37  O1D        3.2170  115.6100   41.9000 O.co2 502  HEM502      0.0000
     38  O2D        5.3270  116.3800   41.7730 O.co2 502  HEM502      0.0000
     39  NA         7.6870  121.4280   38.6940 N.2   502  HEM502      0.0000
     40  NB        10.4720  121.8690   38.3410 N.ar  502  HEM502      0.0000
     41  NC        10.8990  119.0760   38.0690 N.2   502  HEM502      0.0000
     42  ND         8.0910  118.6270   38.3630 N.ar  502  HEM502      0.0000
     43 FE          9.2870  120.2530   38.3510 Fe    502  HEM502      0.0000
@<TRIPOS>BOND
     1    26    23    1
     2    14    12   ar
     3    13    12   ar
     4    12    11    1
     5    27    28    2
     6    27    24    1
     7    11    10    1
     8    23    24    2
     9    23    22    1
    10    24    25    1
    11    22     3    2
    12    22    41    1
    13    25     4    1
    14    25    41    2
    15     3    18    1
    16    20    17    1
    17    20    21    2
    18     4    29    2
    19    41    43    1
    20    18    17   ar
    21    18    40   ar
    22    17    16   ar
    23    29    42   ar
    24    29    30   ar
    25    16    19    1
    26    16    15   ar
    27    40    43    1
    28    40    15   ar
    29    43    42    1
    30    43    39    1
    31    42    32   ar
    32    33    30    1
    33    15     2    1
    34    30    31   ar
    35    32    31   ar
    36    32     1    2
    37    31    34    1
    38     1     5    1
    39    39     5    2
    40    39     8    1
    41     5     6    1
    42     2     8    2
    43     8     7    1
    44     6    10    1
    45     6     7    2
    46     7     9    1
    47    34    35    1
    48    35    36    1
    49    36    38   ar
    50    36    37   ar
