@<TRIPOS>MOLECULE
1soz_III_D_1.pdb
 40 41 0 0 0
SMALL
GASTEIGER

@<TRIPOS>ATOM
      1  N         24.6000  -11.3800   12.0670 N.3   407  VAL407     -0.1231
      2  CA        23.5140  -11.1010   13.0520 C.3   407  VAL407      0.1692
      3  C         22.2300  -10.7400   12.3070 C.2   407  VAL407      0.2592
      4  O         22.2810  -10.3540   11.1380 O.2   407  VAL407     -0.2718
      5  CB        23.8920   -9.9200   13.9790 C.3   407  VAL407      0.0266
      6  CG1       22.9650   -9.8820   15.1870 C.3   407  VAL407      0.0020
      7  CG2       25.3420  -10.0420   14.4130 C.3   407  VAL407      0.0020
      8  N         21.0900  -10.8800   12.9860 N.am  408  TYR408     -0.1962
      9  CA        19.7730  -10.5560   12.4230 C.3   408  TYR408      0.1771
     10  C         18.6180  -11.0370   13.3100 C.2   408  TYR408      0.2619
     11  O         18.8110  -11.8690   14.1950 O.2   408  TYR408     -0.2715
     12  CB        19.6160  -11.1430   11.0080 C.3   408  TYR408      0.0574
     13  CG        19.6590  -12.6550   10.9210 C.ar  408  TYR408     -0.0198
     14  CD1       18.6550  -13.4400   11.4930 C.ar  408  TYR408     -0.0009
     15  CD2       20.6980  -13.3000   10.2490 C.ar  408  TYR408     -0.0009
     16  CE1       18.6830  -14.8290   11.3970 C.ar  408  TYR408      0.0417
     17  CE2       20.7360  -14.6900   10.1460 C.ar  408  TYR408      0.0417
     18  CZ        19.7250  -15.4480   10.7210 C.ar  408  TYR408      0.1957
     19  OH        19.7560  -16.8200   10.6090 O.3   408  TYR408     -0.2866
     20  N         17.4210  -10.5040   13.0670 N.am  409  GLN409     -0.1963
     21  CA        16.2240  -10.8630   13.8330 C.3   409  GLN409      0.1733
     22  C         14.9840  -10.6440   12.9670 C.2   409  GLN409      0.2617
     23  O         14.5880   -9.5030   12.7210 O.2   409  GLN409     -0.2715
     24  CB        16.1240   -9.9950   15.0890 C.3   409  GLN409      0.0408
     25  CG        17.3360  -10.0760   15.9950 C.3   409  GLN409      0.0908
     26  CD        17.6430   -8.7540   16.6650 C.2   409  GLN409      0.2608
     27  OE1       16.8430   -8.2370   17.4460 O.2   409  GLN409     -0.2717
     28  NE2       18.8080   -8.1930   16.3570 N.am  409  GLN409     -0.0878
     29  N         14.3730  -11.7370   12.5150 N.am  410  PHE410     -0.1938
     30  CA        13.1840  -11.6660   11.6630 C.3   410  PHE410      0.2021
     31  C         11.8980  -12.0250   12.4060 C.2   410  PHE410      0.3845
     32  O         11.2310  -12.9910   11.9760 O.co2 410  PHE410     -0.2437
     33  CB        13.3430  -12.6010   10.4540 C.3   410  PHE410      0.0596
     34  CG        14.4140  -12.1760    9.4820 C.ar  410  PHE410     -0.0199
     35  CD1       15.7050  -11.8930    9.9190 C.ar  410  PHE410     -0.0042
     36  CD2       14.1340  -12.0880    8.1220 C.ar  410  PHE410     -0.0042
     37  CE1       16.7000  -11.5290    9.0180 C.ar  410  PHE410     -0.0003
     38  CE2       15.1220  -11.7280    7.2140 C.ar  410  PHE410     -0.0003
     39  CZ        16.4070  -11.4470    7.6620 C.ar  410  PHE410     -0.0000
     40  OXT       11.5690  -11.3390   13.3980 O.co2 410  PHE410     -0.2437
@<TRIPOS>BOND
     1    38    39   ar
     2    38    36   ar
     3    39    37   ar
     4    36    34   ar
     5    37    35   ar
     6    34    35   ar
     7    34    33    1
     8    17    15   ar
     9    17    18   ar
    10    15    13   ar
    11    33    30    1
    12    19    18    1
    13    18    16   ar
    14    13    12    1
    15    13    14   ar
    16    12     9    1
    17     4     3    2
    18    16    14   ar
    19    30    31    1
    20    30    29    1
    21    32    31   ar
    22     1     2    1
    23     3     8   am
    24     3     2    1
    25    31    40   ar
    26     9     8    1
    27     9    10    1
    28    29    22   am
    29    23    22    2
    30    22    21    1
    31     2     5    1
    32    20    10   am
    33    20    21    1
    34    10    11    2
    35    21    24    1
    36     5     7    1
    37     5     6    1
    38    24    25    1
    39    25    26    1
    40    28    26   am
    41    26    27    2
