@<TRIPOS>MOLECULE
1sp3_HEM_A_1.pdb
 43 50 0 0 0
SMALL
GASTEIGER

@<TRIPOS>ATOM
      1  CHA        6.7330   -2.5980   48.0500 C.2   801  HEM801      0.0000
      2  CHB        7.3880   -4.1220   43.5100 C.2   801  HEM801      0.0000
      3  CHC        8.6870   -8.4310   45.2420 C.2   801  HEM801      0.0000
      4  CHD        6.7440   -7.2170   49.5180 C.2   801  HEM801      0.0000
      5  C1A        6.8950   -2.5810   46.6730 C.ar  801  HEM801      0.0000
      6  C2A        6.7970   -1.4490   45.8000 C.ar  801  HEM801      0.0000
      7  C3A        6.9870   -1.8680   44.5370 C.ar  801  HEM801      0.0000
      8  C4A        7.1560   -3.2930   44.5700 C.ar  801  HEM801      0.0000
      9  CMA        7.0440   -0.9910   43.2580 C.3   801  HEM801      0.0000
     10  CAA        6.5850    0.0230   46.2770 C.3   801  HEM801      0.0000
     11  CBA        8.0460    0.5290   46.2870 C.3   801  HEM801      0.0000
     12  CGA        8.1390    1.9130   46.8190 C.2   801  HEM801      0.0000
     13  O1A        9.2900    2.4640   46.7830 O.co2 801  HEM801      0.0000
     14  O2A        7.0730    2.4320   47.2640 O.co2 801  HEM801      0.0000
     15  C1B        7.8250   -5.4130   43.5860 C.2   801  HEM801      0.0000
     16  C2B        8.2840   -6.2240   42.4670 C.2   801  HEM801      0.0000
     17  C3B        8.6470   -7.4100   42.9610 C.2   801  HEM801      0.0000
     18  C4B        8.4730   -7.3970   44.3840 C.2   801  HEM801      0.0000
     19  CMB        8.3150   -5.7570   40.9890 C.3   801  HEM801      0.0000
     20  CAB        9.3040   -8.5500   42.1870 C.3   801  HEM801      0.0000
     21  CBB       10.4700   -8.1340   41.6490 C.3   801  HEM801      0.0000
     22  C1C        8.1930   -8.4680   46.5310 C.ar  801  HEM801      0.0000
     23  C2C        8.1670   -9.6430   47.3560 C.ar  801  HEM801      0.0000
     24  C3C        7.6240   -9.3010   48.5450 C.ar  801  HEM801      0.0000
     25  C4C        7.2970   -7.8970   48.4900 C.ar  801  HEM801      0.0000
     26  CMC        8.6490  -11.0560   46.8660 C.3   801  HEM801      0.0000
     27  CAC        7.3360  -10.2190   49.8130 C.2   801  HEM801      0.0000
     28  CBC        8.2110  -11.1550   50.2530 C.2   801  HEM801      0.0000
     29  C1D        6.6210   -5.8550   49.5400 C.2   801  HEM801      0.0000
     30  C2D        6.1580   -5.0890   50.7030 C.2   801  HEM801      0.0000
     31  C3D        6.1860   -3.6860   50.2320 C.2   801  HEM801      0.0000
     32  C4D        6.6210   -3.7090   48.8640 C.2   801  HEM801      0.0000
     33  CMD        5.7290   -5.5710   52.1210 C.3   801  HEM801      0.0000
     34  CAD        5.7300   -2.4770   51.0660 C.3   801  HEM801      0.0000
     35  CBD        4.2180   -2.5200   50.9320 C.3   801  HEM801      0.0000
     36  CGD        3.5340   -1.5140   51.8700 C.2   801  HEM801      0.0000
     37  O1D        3.3510   -1.7770   53.1120 O.co2 801  HEM801      0.0000
     38  O2D        3.1910   -0.3960   51.3850 O.co2 801  HEM801      0.0000
     39  NA         7.0810   -3.6780   45.8790 N.ar  801  HEM801      0.0000
     40  NB         7.9640   -6.1900   44.7260 N.2   801  HEM801      0.0000
     41  NC         7.6880   -7.4130   47.2630 N.ar  801  HEM801      0.0000
     42  ND         6.8490   -4.9890   48.4990 N.2   801  HEM801      0.0000
     43 FE          7.4030   -5.5400   46.6280 Fe    801  HEM801      0.0000
@<TRIPOS>BOND
     1    19    16    1
     2    21    20    1
     3    20    17    1
     4    16    17    2
     5    16    15    1
     6    17    18    1
     7     9     7    1
     8     2    15    1
     9     2     8    2
    10    15    40    2
    11    18    40    1
    12    18     3    2
    13     7     8   ar
    14     7     6   ar
    15     8    39   ar
    16    40    43    1
    17     3    22    1
    18     6    10    1
    19     6     5   ar
    20    39    43    1
    21    39     5   ar
    22    10    11    1
    23    11    12    1
    24    22    41   ar
    25    22    23   ar
    26    43    41    1
    27    43    42    1
    28     5     1    2
    29    13    12   ar
    30    12    14   ar
    31    26    23    1
    32    41    25   ar
    33    23    24   ar
    34     1    32    1
    35    25    24   ar
    36    25     4    1
    37    42    32    2
    38    42    29    1
    39    24    27    1
    40    32    31    1
    41     4    29    2
    42    29    30    1
    43    27    28    2
    44    31    30    2
    45    31    34    1
    46    30    33    1
    47    35    34    1
    48    35    36    1
    49    38    36   ar
    50    36    37   ar
