@<TRIPOS>MOLECULE
1sp4_EP2_B_1.pdb
 41 41 0 0 0
SMALL
GASTEIGER

@<TRIPOS>ATOM
      1  CB        12.9790   20.2590   68.8650 C.3    48  EP248       0.2557
      2  OXT       14.4360   20.1950   69.1180 O.3    48  EP248      -0.4432
      3  N         17.2080   20.7140   67.9080 N.am   48  EP248      -0.1918
      4  CA        16.7800   20.9760   69.2690 C.3    48  EP248       0.2240
      5  C         15.2940   21.2140   69.3580 C.2    48  EP248       0.3395
      6  O         14.8650   22.3240   69.6030 O.2    48  EP248      -0.2481
      7  N1        18.8870   19.9150   65.7010 N.am   48  EP248      -0.1940
      8  CA1       18.2710   21.2290   65.7990 C.3    48  EP248       0.2014
      9  C1        17.9030   21.6150   67.2220 C.2    48  EP248       0.2640
     10  O1        18.3300   22.6620   67.7290 O.2    48  EP248      -0.2714
     11  N2        22.0430   18.3070   65.2790 N.am   48  EP248      -0.1956
     12  CA2       20.6830   18.3200   65.8500 C.3    48  EP248       0.1728
     13  C2        20.1640   19.7320   66.0170 C.2    48  EP248       0.2617
     14  O2        20.9140   20.6490   66.3530 O.2    48  EP248      -0.2715
     15  CB1       20.6480   17.6670   67.2100 C.3    48  EP248       0.0311
     16  CG        20.6070   16.1540   67.3090 C.3    48  EP248       0.0022
     17  CD1       20.6960   15.8070   68.7920 C.3    48  EP248       0.0001
     18  CD2       19.2980   15.5940   66.7400 C.3    48  EP248       0.0001
     19  O11       21.3730   17.6470   63.2430 O.2    48  EP248      -0.2706
     20  C11       22.2860   17.8680   64.0500 C.2    48  EP248       0.2727
     21  C21       23.7370   17.9270   63.5770 C.3    48  EP248       0.2381
     22  O21       24.5530   18.9680   64.1370 O.3    48  EP248      -0.2127
     23  C31       24.4690   16.5680   63.6730 C.3    48  EP248       0.1292
     24  C41       25.8400   16.8060   63.0690 C.2    48  EP248       0.2449
     25  O41       26.0460   16.6560   61.8650 O.2    48  EP248      -0.2732
     26  N3        26.7720   17.1970   63.9300 N.am   48  EP248      -0.1978
     27  CA3       28.0920   17.6180   63.5120 C.3    48  EP248       0.1712
     28  C3        28.9880   16.6400   62.7980 C.2    48  EP248       0.2459
     29  O3        28.8670   15.4300   62.9480 O.2    48  EP248      -0.2730
     30  CB2       28.8530   18.2090   64.7030 C.3    48  EP248       0.0310
     31  CG1       29.5700   17.2210   65.6250 C.3    48  EP248       0.0022
     32 CD11       30.4290   17.9620   66.6490 C.3    48  EP248       0.0001
     33 CD21       28.5680   16.3350   66.3340 C.3    48  EP248       0.0001
     34  N4        29.9120   17.1730   62.0030 N.am   48  EP248      -0.2699
     35  CA4       30.8760   16.3660   61.2500 C.3    48  EP248       0.1791
     36  C4        32.1590   16.1950   62.1090 C.2    48  EP248       0.3825
     37  O4        32.3380   16.9540   63.0680 O.co2  48  EP248      -0.2438
     38  CB3       31.1140   17.2280   60.0030 C.3    48  EP248       0.0332
     39  CG2       30.9970   18.6270   60.5070 C.3    48  EP248       0.0238
     40  CD        29.8530   18.5720   61.5060 C.3    48  EP248       0.0940
     41 OXT1       32.9540   15.2890   61.8460 O.co2  48  EP248      -0.2438
@<TRIPOS>BOND
     1    38    39    1
     2    38    35    1
     3    39    40    1
     4    35    34    1
     5    35    36    1
     6    40    34    1
     7    41    36   ar
     8    25    24    2
     9    34    28   am
    10    36    37   ar
    11    28    29    2
    12    28    27    1
    13    24    23    1
    14    24    26   am
    15    19    20    2
    16    27    26    1
    17    27    30    1
    18    21    23    1
    19    21    20    1
    20    21    22    1
    21    20    11   am
    22    30    31    1
    23    11    12    1
    24    31    33    1
    25    31    32    1
    26     7     8    1
    27     7    13   am
    28     8     9    1
    29    12    13    1
    30    12    15    1
    31    13    14    2
    32    18    16    1
    33    15    16    1
    34     9    10    2
    35     9     3   am
    36    16    17    1
    37     3     4    1
    38     1     2    1
    39     2     5    1
    40     4     5    1
    41     5     6    2
