@<TRIPOS>MOLECULE
1sp5_III_I_1.pdb
 46 46 0 0 0
SMALL
GASTEIGER

@<TRIPOS>ATOM
      1  N         22.6350   13.4840    9.7070 N.3    59  TYR59      -0.1227
      2  CA        21.6530   13.0200    8.6580 C.3    59  TYR59       0.1736
      3  C         21.4930   14.1280    7.6110 C.2    59  TYR59       0.2595
      4  O         21.9580   15.2540    7.8420 O.2    59  TYR59      -0.2718
      5  CB        20.2910   12.7000    9.3010 C.3    59  TYR59       0.0548
      6  CG        19.6300   13.9120    9.9370 C.ar   59  TYR59      -0.0200
      7  CD1       19.0130   14.8890    9.1460 C.ar   59  TYR59      -0.0009
      8  CD2       19.6950   14.1280   11.3190 C.ar   59  TYR59      -0.0009
      9  CE1       18.4870   16.0520    9.7050 C.ar   59  TYR59       0.0417
     10  CE2       19.1660   15.3060   11.8920 C.ar   59  TYR59       0.0417
     11  CZ        18.5660   16.2610   11.0690 C.ar   59  TYR59       0.1957
     12  OH        18.0520   17.4290   11.5930 O.3    59  TYR59      -0.2866
     13  N         20.8660   13.8020    6.4720 N.am   60  ASP60      -0.1960
     14  CA        20.6360   14.7670    5.3770 C.3    60  ASP60       0.1840
     15  C         19.4620   15.6330    5.8800 C.2    60  ASP60       0.2622
     16  O         18.3280   15.1610    6.0380 O.2    60  ASP60      -0.2715
     17  CB        20.2660   14.0030    4.0910 C.3    60  ASP60       0.1450
     18  CG        20.4250   14.8390    2.7920 C.2    60  ASP60       0.3671
     19  OD1       20.2600   16.0850    2.8000 O.co2  60  ASP60      -0.2456
     20  OD2       20.6760   14.2160    1.7330 O.co2  60  ASP60      -0.2456
     21  N         19.7510   16.9000    6.1370 N.am   61  GLN61      -0.1963
     22  CA        18.7700   17.8350    6.6780 C.3    61  GLN61       0.1733
     23  C         18.1210   18.7690    5.6220 C.2    61  GLN61       0.2616
     24  O         18.8040   19.5400    4.9310 O.2    61  GLN61      -0.2715
     25  CB        19.4800   18.6250    7.7850 C.3    61  GLN61       0.0408
     26  CG        18.7610   19.8120    8.3510 C.3    61  GLN61       0.0908
     27  CD        19.4980   20.3330    9.5750 C.2    61  GLN61       0.2608
     28  OE1       19.2810   19.8490   10.6960 O.2    61  GLN61      -0.2717
     29  NE2       20.4000   21.3040    9.3650 N.am   61  GLN61      -0.0878
     30  N         16.8030   18.7020    5.5040 N.am   62  ILE62      -0.1963
     31  CA        16.1100   19.5160    4.5320 C.3    62  ILE62       0.1727
     32  C         15.1530   20.4390    5.2740 C.2    62  ILE62       0.2617
     33  O         13.9980   20.0670    5.5800 O.2    62  ILE62      -0.2715
     34  CB        15.3140   18.6340    3.5270 C.3    62  ILE62       0.0290
     35  CG1       16.2090   17.5260    2.9540 C.3    62  ILE62       0.0022
     36  CG2       14.7710   19.4910    2.3960 C.3    62  ILE62       0.0023
     37  CD1       17.4540   18.0100    2.2750 C.3    62  ILE62       0.0001
     38  N         15.6350   21.6510    5.5580 N.am   63  LEU63      -0.1942
     39  CA        14.8480   22.6860    6.2640 C.3    63  LEU63       0.1978
     40  C         14.6100   23.9240    5.3890 C.2    63  LEU63       0.3842
     41  O         13.8300   24.8050    5.8140 O.co2  63  LEU63      -0.2437
     42  CB        15.5710   23.1140    7.5480 C.3    63  LEU63       0.0333
     43  CG        15.6830   22.0060    8.5610 C.3    63  LEU63       0.0023
     44  CD1       16.7920   22.3120    9.5290 C.3    63  LEU63       0.0001
     45  CD2       14.3220   21.8590    9.2560 C.3    63  LEU63       0.0001
     46  OXT       15.2060   24.0060    4.2890 O.co2  63  LEU63      -0.2437
@<TRIPOS>BOND
     1    20    18   ar
     2    37    35    1
     3    36    34    1
     4    18    19   ar
     5    18    17    1
     6    35    34    1
     7    34    31    1
     8    17    14    1
     9    46    40   ar
    10    31    32    1
    11    31    30    1
    12    24    23    2
    13    32    38   am
    14    32    33    2
    15    14    15    1
    16    14    13    1
    17    40    41   ar
    18    40    39    1
    19    30    23   am
    20    38    39    1
    21    23    22    1
    22    15    16    2
    23    15    21   am
    24    21    22    1
    25    39    42    1
    26    13     3   am
    27    22    25    1
    28    42    43    1
    29     3     4    2
    30     3     2    1
    31    25    26    1
    32    26    27    1
    33    43    45    1
    34    43    44    1
    35     2     5    1
    36     2     1    1
    37     7     9   ar
    38     7     6   ar
    39     5     6    1
    40    29    27   am
    41    27    28    2
    42     9    11   ar
    43     6     8   ar
    44    11    12    1
    45    11    10   ar
    46     8    10   ar
