@<TRIPOS>MOLECULE
1spa_NPL_A_1.pdb
 17 17 0 0 0
SMALL
GASTEIGER

@<TRIPOS>ATOM
      1  N1        26.0320    3.9390  -13.7670 N.pl3 413  NPL413     -0.3001
      2  C1        26.5090    2.5160  -13.8360 C.3   413  NPL413      0.1125
      3  C2        26.3670    4.8950  -14.7380 C.3   413  NPL413      0.1348
      4  C2A       27.1530    4.5280  -15.9650 C.3   413  NPL413      0.0299
      5  C3        25.8890    6.1830  -14.6690 C.2   413  NPL413      0.1881
      6  O3        26.3020    7.0990  -15.6400 O.2   413  NPL413     -0.2899
      7  C4        25.0440    6.5320  -13.6220 C.2   413  NPL413      0.0328
      8  C4A       24.4100    7.9230  -13.5350 C.3   413  NPL413      0.1383
      9  N4        24.9260    8.9750  -14.2320 N.3   413  NPL413     -0.1261
     10  C5        24.7020    5.5670  -12.6630 C.2   413  NPL413      0.0226
     11  C5A       23.7420    5.9150  -11.5130 C.3   413  NPL413      0.1813
     12  O4P       23.1200    4.7150  -11.0810 O.3   413  NPL413     -0.2653
     13  P         22.5140    4.6560   -9.6930 P.3   413  NPL413      0.5329
     14  O1P       23.5070    4.5370   -8.6170 O.3   413  NPL413     -0.1145
     15  O2P       21.6750    3.4990   -9.9620 O.2   413  NPL413     -0.2224
     16  O3P       21.7390    5.9680   -9.5130 O.3   413  NPL413     -0.1145
     17  C6        25.2050    4.2820  -12.7400 C.2   413  NPL413      0.0596
@<TRIPOS>BOND
     1     4     3    1
     2     6     5    1
     3     3     5    1
     4     3     1    1
     5     5     7    2
     6     9     8    1
     7     2     1    1
     8     1    17    1
     9     7     8    1
    10     7    10    1
    11    17    10    2
    12    10    11    1
    13    11    12    1
    14    12    13    1
    15    15    13    2
    16    13    16    1
    17    13    14    1
