@<TRIPOS>MOLECULE
1spe_HEM_A_1.pdb
 43 50 0 0 0
SMALL
GASTEIGER

@<TRIPOS>ATOM
      1 FE         14.8140   28.1260    4.8520 Fe    155  HEM155      0.0000
      2  CHA       15.9520   31.2220    5.1500 C.2   155  HEM155      0.0000
      3  CHB       13.9410   28.0090    8.1160 C.2   155  HEM155      0.0000
      4  CHC       13.5000   25.0640    4.5040 C.2   155  HEM155      0.0000
      5  CHD       15.6660   28.1980    1.4520 C.2   155  HEM155      0.0000
      6  NA        14.9480   29.3260    6.2920 N.2   155  HEM155      0.0000
      7  C1A       15.4480   30.5970    6.2360 C.2   155  HEM155      0.0000
      8  C2A       15.4890   31.2040    7.4900 C.2   155  HEM155      0.0000
      9  C3A       14.9530   30.2860    8.3280 C.2   155  HEM155      0.0000
     10  C4A       14.5850   29.1510    7.5580 C.2   155  HEM155      0.0000
     11  CMA       14.6350   30.5540    9.8200 C.3   155  HEM155      0.0000
     12  CAA       15.8320   32.7140    7.8870 C.3   155  HEM155      0.0000
     13  CBA       14.5920   33.6430    8.1100 C.3   155  HEM155      0.0000
     14  CGA       13.5260   33.4630    7.0280 C.2   155  HEM155      0.0000
     15  O1A       13.7620   33.8630    5.8670 O.co2 155  HEM155      0.0000
     16  O2A       12.4980   32.8050    7.2940 O.co2 155  HEM155      0.0000
     17  NB        13.9410   26.7630    6.0180 N.ar  155  HEM155      0.0000
     18  C1B       13.7200   26.8580    7.3650 C.ar  155  HEM155      0.0000
     19  C2B       13.1810   25.6840    7.8790 C.ar  155  HEM155      0.0000
     20  C3B       12.9500   24.9150    6.8490 C.ar  155  HEM155      0.0000
     21  C4B       13.4320   25.5890    5.7090 C.ar  155  HEM155      0.0000
     22  CMB       12.8550   25.4270    9.3410 C.3   155  HEM155      0.0000
     23  CAB       12.3180   23.6310    6.8680 C.3   155  HEM155      0.0000
     24  CBB       12.6380   22.5680    7.8160 C.3   155  HEM155      0.0000
     25  NC        14.6830   26.9160    3.3580 N.2   155  HEM155      0.0000
     26  C1C       14.2270   25.6430    3.4240 C.2   155  HEM155      0.0000
     27  C2C       14.2780   25.0250    2.0810 C.2   155  HEM155      0.0000
     28  C3C       14.8130   25.9810    1.2330 C.2   155  HEM155      0.0000
     29  C4C       15.0090   27.0930    2.0060 C.2   155  HEM155      0.0000
     30  CMC       13.8730   23.5810    1.7520 C.3   155  HEM155      0.0000
     31  CAC       15.3920   25.7940   -0.0140 C.3   155  HEM155      0.0000
     32  CBC       15.2380   24.6060   -0.8900 C.3   155  HEM155      0.0000
     33  ND        15.6770   29.3860    3.5430 N.ar  155  HEM155      0.0000
     34  C1D       16.0630   29.2550    2.2320 C.ar  155  HEM155      0.0000
     35  C2D       16.7770   30.4200    1.7300 C.ar  155  HEM155      0.0000
     36  C3D       16.8580   31.2350    2.8030 C.ar  155  HEM155      0.0000
     37  C4D       16.1690   30.6140    3.9150 C.ar  155  HEM155      0.0000
     38  CMD       16.9220   30.7230    0.2600 C.3   155  HEM155      0.0000
     39  CAD       17.3720   32.6760    2.9550 C.3   155  HEM155      0.0000
     40  CBD       18.7330   32.7590    3.6450 C.3   155  HEM155      0.0000
     41  CGD       19.7720   32.0190    2.8730 C.2   155  HEM155      0.0000
     42  O1D       20.1030   30.8780    3.2720 O.co2 155  HEM155      0.0000
     43  O2D       20.1490   32.5070    1.7830 O.co2 155  HEM155      0.0000
@<TRIPOS>BOND
     1    32    31    1
     2    31    28    1
     3    38    35    1
     4    28    29    1
     5    28    27    2
     6     5    29    1
     7     5    34    2
     8    35    34   ar
     9    35    36   ar
    10    30    27    1
    11    43    41   ar
    12    29    25    2
    13    27    26    1
    14    34    33   ar
    15    36    39    1
    16    36    37   ar
    17    41    42   ar
    18    41    40    1
    19    39    40    1
    20    25    26    1
    21    25     1    1
    22    26     4    2
    23    33    37   ar
    24    33     1    1
    25    37     2    2
    26     4    21    1
    27     1    17    1
    28     1     6    1
    29     2     7    1
    30    21    17   ar
    31    21    20   ar
    32    15    14   ar
    33    17    18   ar
    34     7     6    2
    35     7     8    1
    36     6    10    1
    37    20    23    1
    38    20    19   ar
    39    23    24    1
    40    14    16   ar
    41    14    13    1
    42    18    19   ar
    43    18     3    1
    44     8    12    1
    45     8     9    2
    46    10     3    2
    47    10     9    1
    48    19    22    1
    49    12    13    1
    50     9    11    1
