@<TRIPOS>MOLECULE
1spg_HEM_A_1.pdb
 43 50 0 0 0
SMALL
GASTEIGER

@<TRIPOS>ATOM
      1  CHA       -0.5800   10.0400  -20.7270 C.2   144  HEM144      0.0000
      2  CHB        2.8930   11.7040  -17.7940 C.2   144  HEM144      0.0000
      3  CHC        1.9450    8.0570  -14.8670 C.2   144  HEM144      0.0000
      4  CHD       -1.0240    6.1260  -18.0150 C.2   144  HEM144      0.0000
      5  C1A        0.4480   10.8070  -20.1820 C.2   144  HEM144      0.0000
      6  C2A        1.1560   11.8610  -20.8080 C.2   144  HEM144      0.0000
      7  C3A        2.1140   12.3260  -19.9920 C.2   144  HEM144      0.0000
      8  C4A        2.0440   11.5360  -18.8600 C.2   144  HEM144      0.0000
      9  CMA        3.1100   13.4520  -20.1610 C.3   144  HEM144      0.0000
     10  CAA        0.9350   12.2310  -22.2290 C.3   144  HEM144      0.0000
     11  CBA       -0.2800   13.0920  -22.2880 C.3   144  HEM144      0.0000
     12  CGA       -0.9330   13.5500  -23.5590 C.2   144  HEM144      0.0000
     13  O1A       -1.6770   14.5460  -23.4780 O.co2 144  HEM144      0.0000
     14  O2A       -0.7160   12.9060  -24.6160 O.co2 144  HEM144      0.0000
     15  C1B        2.9170   10.8460  -16.7500 C.ar  144  HEM144      0.0000
     16  C2B        3.6540   11.1260  -15.5500 C.ar  144  HEM144      0.0000
     17  C3B        3.3340   10.1310  -14.6980 C.ar  144  HEM144      0.0000
     18  C4B        2.4410    9.2330  -15.3800 C.ar  144  HEM144      0.0000
     19  CMB        4.7000   12.2440  -15.3770 C.3   144  HEM144      0.0000
     20  CAB        3.9320    9.9170  -13.4520 C.3   144  HEM144      0.0000
     21  CBB        3.2480    9.4640  -12.2000 C.3   144  HEM144      0.0000
     22  C1C        1.1750    7.1260  -15.5020 C.2   144  HEM144      0.0000
     23  C2C        0.8110    5.8810  -14.9340 C.2   144  HEM144      0.0000
     24  C3C        0.0200    5.2900  -15.8410 C.2   144  HEM144      0.0000
     25  C4C       -0.1270    6.2360  -16.9300 C.2   144  HEM144      0.0000
     26  CMC        1.1350    5.4090  -13.5010 C.3   144  HEM144      0.0000
     27  CAC       -0.5820    4.0540  -15.7440 C.3   144  HEM144      0.0000
     28  CBC        0.1490    2.8020  -15.7440 C.3   144  HEM144      0.0000
     29  C1D       -1.2100    7.0240  -19.0840 C.ar  144  HEM144      0.0000
     30  C2D       -1.9790    6.7730  -20.2820 C.ar  144  HEM144      0.0000
     31  C3D       -1.8830    7.8960  -21.0650 C.ar  144  HEM144      0.0000
     32  C4D       -1.0410    8.8200  -20.3050 C.ar  144  HEM144      0.0000
     33  CMD       -2.7580    5.4820  -20.5110 C.3   144  HEM144      0.0000
     34  CAD       -2.5240    8.1560  -22.4380 C.3   144  HEM144      0.0000
     35  CBD       -1.6410    7.5470  -23.5180 C.3   144  HEM144      0.0000
     36  CGD       -1.9170    7.4420  -25.0000 C.2   144  HEM144      0.0000
     37  O1D       -1.5260    8.3730  -25.7280 O.co2 144  HEM144      0.0000
     38  O2D       -2.5210    6.4380  -25.4450 O.co2 144  HEM144      0.0000
     39  NA         1.0480   10.5210  -19.0030 N.2   144  HEM144      0.0000
     40  NB         2.1520    9.6900  -16.6270 N.ar  144  HEM144      0.0000
     41  NC         0.6100    7.3300  -16.7190 N.2   144  HEM144      0.0000
     42  ND        -0.6080    8.2400  -19.1450 N.ar  144  HEM144      0.0000
     43 FE          0.6440    8.9610  -17.8050 Fe    144  HEM144      0.0000
@<TRIPOS>BOND
     1    37    36   ar
     2    38    36   ar
     3    36    35    1
     4    14    12   ar
     5    12    13   ar
     6    12    11    1
     7    35    34    1
     8    34    31    1
     9    11    10    1
    10    10     6    1
    11    31    32   ar
    12    31    30   ar
    13     6     5    1
    14     6     7    2
    15     1    32    2
    16     1     5    1
    17    33    30    1
    18    32    42   ar
    19    30    29   ar
    20     5    39    2
    21     9     7    1
    22     7     8    1
    23    42    29   ar
    24    42    43    1
    25    29     4    2
    26    39     8    1
    27    39    43    1
    28     8     2    2
    29     4    25    1
    30    43    41    1
    31    43    40    1
    32     2    15    1
    33    25    41    2
    34    25    24    1
    35    15    40   ar
    36    15    16   ar
    37    41    22    1
    38    40    18   ar
    39    24    27    1
    40    24    23    2
    41    28    27    1
    42    16    19    1
    43    16    17   ar
    44    22    23    1
    45    22     3    2
    46    18     3    1
    47    18    17   ar
    48    23    26    1
    49    17    20    1
    50    20    21    1
