@<TRIPOS>MOLECULE
1sq5_ADP_A_1.pdb
 27 29 0 0 0
SMALL
GASTEIGER

@<TRIPOS>ATOM
      1  PB        57.9100    4.8510   14.5190 P.3   5001  ADP5001     0.5373
      2  O1B       56.8290    5.1250   13.5300 O.2   5001  ADP5001    -0.2221
      3  O2B       57.6830    3.5790   15.2780 O.3   5001  ADP5001    -0.1143
      4  O3B       59.3270    4.9640   13.8380 O.3   5001  ADP5001    -0.1143
      5  PA        58.6330    7.2560   15.9840 P.3   5001  ADP5001     0.2231
      6  O1A       60.0770    6.8640   16.1530 O.3   5001  ADP5001    -0.4370
      7  O2A       58.3860    8.3950   15.0220 O.2   5001  ADP5001    -0.5169
      8  O3A       57.7430    6.0440   15.5550 O.3   5001  ADP5001    -0.2261
      9  O5'       58.1300    7.4950   17.4700 O.3   5001  ADP5001    -0.3111
     10  C5'       56.7490    7.8780   17.7090 C.3   5001  ADP5001     0.1813
     11  C4'       56.5710    9.2180   18.4220 C.3   5001  ADP5001     0.1821
     12  O4'       56.8980    9.1060   19.8350 O.3   5001  ADP5001    -0.3135
     13  C3'       57.4260   10.4000   17.9480 C.3   5001  ADP5001     0.2184
     14  O3'       56.6160   11.5860   18.1180 O.3   5001  ADP5001    -0.2174
     15  C2'       58.6690   10.3050   18.8500 C.3   5001  ADP5001     0.2570
     16  O2'       59.3200   11.5740   19.0740 O.3   5001  ADP5001    -0.2130
     17  C1'       58.1170    9.7530   20.1670 C.3   5001  ADP5001     0.3186
     18  N9        59.0310    8.7710   20.8220 N.pl3 5001  ADP5001    -0.1439
     19  C8        59.4390    7.5640   20.3490 C.3   5001  ADP5001     0.3377
     20  N7        60.2620    6.9210   21.1870 N.2   5001  ADP5001    -0.2095
     21  C5        60.3750    7.7740   22.2430 C.2   5001  ADP5001     0.2526
     22  C6        61.1190    7.6660   23.4800 C.2   5001  ADP5001     0.4393
     23  N6        61.8580    6.6800   23.8280 N.pl3 5001  ADP5001     0.2180
     24  N1        60.9770    8.7620   24.3220 N.2   5001  ADP5001     0.0021
     25  C2        60.1920    9.8700   24.0140 C.3   5001  ADP5001     0.5254
     26  N3        59.5000    9.9810   22.8770 N.2   5001  ADP5001    -0.0055
     27  C4        59.6190    8.9270   22.0350 C.2   5001  ADP5001     0.3518
@<TRIPOS>BOND
     1     2     1    2
     2     4     1    1
     3     1     3    1
     4     1     8    1
     5     7     5    2
     6     8     5    1
     7     5     6    1
     8     5     9    1
     9     9    10    1
    10    10    11    1
    11    13    14    1
    12    13    11    1
    13    13    15    1
    14    11    12    1
    15    15    16    1
    16    15    17    1
    17    12    17    1
    18    17    18    1
    19    19    18    1
    20    19    20    1
    21    18    27    1
    22    20    21    2
    23    27    21    1
    24    27    26    2
    25    21    22    1
    26    26    25    1
    27    22    23    1
    28    22    24    2
    29    25    24    1
