@<TRIPOS>MOLECULE
1sq5_PAU_A_1.pdb
 15 14 0 0 0
SMALL
GASTEIGER

@<TRIPOS>ATOM
      1  O2        56.4220    4.6030    8.5350 O.3   6001  PAU6001    -0.2203
      2  C1        54.2700    4.0680    7.3520 C.3   6001  PAU6001     0.0674
      3  C2        55.4240    3.6040    8.3380 C.3   6001  PAU6001     0.1849
      4  C3        54.9570    4.6000    6.0220 C.3   6001  PAU6001     0.0057
      5  C4        53.4530    2.8270    7.1020 C.3   6001  PAU6001     0.0057
      6  C5        53.3530    5.3320    7.9900 C.3   6001  PAU6001     0.2313
      7  O5'       54.1660    6.5480    8.0040 O.3   6001  PAU6001    -0.2131
      8  C6        52.0560    5.6780    7.1210 C.2   6001  PAU6001     0.2719
      9  O6'       52.1710    6.5550    6.1200 O.2   6001  PAU6001    -0.2706
     10  N         50.9080    5.0760    7.3850 N.am  6001  PAU6001    -0.2027
     11  C8        49.6790    5.2500    6.5560 C.3   6001  PAU6001     0.1270
     12  C9        48.5740    6.0540    7.3050 C.3   6001  PAU6001     0.1374
     13  C         49.1200    7.3540    7.9370 C.2   6001  PAU6001     0.3667
     14  OXT       49.6170    7.3980    9.1700 O.co2 6001  PAU6001    -0.2456
     15  O         49.0410    8.4140    7.1470 O.co2 6001  PAU6001    -0.2456
@<TRIPOS>BOND
     1     4     2    1
     2     9     8    2
     3    11    12    1
     4    11    10    1
     5     5     2    1
     6     8    10   am
     7     8     6    1
     8    15    13   ar
     9    12    13    1
    10     2     6    1
    11     2     3    1
    12    13    14   ar
    13     6     7    1
    14     3     1    1
