@<TRIPOS>MOLECULE
1sqa_UI1_A_1.pdb
 31 34 0 0 0
SMALL
GASTEIGER

@<TRIPOS>ATOM
      1  N1        29.5520   11.8530   28.7170 N.3   1001  UI11001    -0.1262
      2  C2        28.3300   11.0730   28.8590 C.3   1001  UI11001     0.1356
      3  C3        27.2630   11.8440   29.6510 C.ar  1001  UI11001    -0.0031
      4  C4        26.5790   12.9060   29.0380 C.ar  1001  UI11001    -0.0015
      5  C5        25.6020   13.6060   29.7610 C.ar  1001  UI11001     0.0163
      6  C6        25.2850   13.2590   31.1110 C.ar  1001  UI11001     0.0737
      7  N7        24.2440   14.0730   31.6860 N.am  1001  UI11001    -0.1754
      8  C8        24.5160   14.9930   32.5920 C.2   1001  UI11001     0.2690
      9  O9        25.6530   15.1500   33.0210 O.2   1001  UI11001    -0.2680
     10  C10       23.4180   15.9110   33.0260 C.ar  1001  UI11001     0.0567
     11  C11       23.7630   16.9690   33.8980 C.ar  1001  UI11001     0.0219
     12  C12       22.8180   17.8960   34.2740 C.ar  1001  UI11001     0.0818
     13  N13       23.2180   18.9970   35.1110 N.pl3 1001  UI11001    -0.1462
     14  C14       23.7200   18.8390   36.4290 C.1   1001  UI11001     0.1118
     15  N15       24.1540   19.9420   37.0850 N.2   1001  UI11001    -0.1791
     16  C16       24.6250   19.8550   38.3490 C.2   1001  UI11001     0.1083
     17  C17       24.6580   18.6020   38.9980 C.2   1001  UI11001     0.0223
     18  C18       24.2060   17.4800   38.2880 C.3   1001  UI11001     0.1653
     19  N19       23.7470   17.6250   37.0220 N.2   1001  UI11001    -0.2015
     20  C20       21.4730   17.7830   33.7830 C.ar  1001  UI11001     0.0163
     21  C21       20.5150   18.7550   34.1600 C.ar  1001  UI11001     0.0093
     22  C22       19.1860   18.6620   33.6930 C.ar  1001  UI11001     0.0975
     23  C23       18.8010   17.5980   32.8540 C.ar  1001  UI11001     0.0080
     24  C24       19.7560   16.6250   32.4690 C.ar  1001  UI11001     0.0003
     25  C25       21.1010   16.7220   32.9310 C.ar  1001  UI11001     0.0014
     26  C26       22.0770   15.7770   32.5410 C.ar  1001  UI11001     0.0047
     27  C27       18.2380   19.7150   34.1260 C.2   1001  UI11001     0.4766
     28  N28       18.6560   20.6930   34.8790 N.pl3 1001  UI11001     0.2047
     29  N29       16.9650   19.6770   33.7560 N.pl3 1001  UI11001     0.2047
     30  C30       25.9580   12.1980   31.7280 C.ar  1001  UI11001     0.0163
     31  C31       26.9590   11.4880   30.9910 C.ar  1001  UI11001    -0.0015
@<TRIPOS>BOND
     1     1     2    1
     2     2     3    1
     3     4     3   ar
     4     4     5   ar
     5     3    31   ar
     6     5     6   ar
     7    31    30   ar
     8     6     7    1
     9     6    30   ar
    10     7     8   am
    11    24    23   ar
    12    24    25   ar
    13    26    25   ar
    14    26    10   ar
    15     8     9    2
    16     8    10    1
    17    23    22   ar
    18    25    20   ar
    19    10    11   ar
    20    22    27    1
    21    22    21   ar
    22    29    27    2
    23    20    21   ar
    24    20    12   ar
    25    11    12   ar
    26    27    28    1
    27    12    13    1
    28    13    14    1
    29    14    19    2
    30    14    15    2
    31    19    18    1
    32    15    16    1
    33    18    17    1
    34    16    17    2
