@<TRIPOS>MOLECULE
1sqb_AZO_C_1.pdb
 30 32 0 0 0
SMALL
GASTEIGER

@<TRIPOS>ATOM
      1  N1        74.8120   52.9000  163.4520 N.1   383  AZO383     -0.1907
      2  C1        73.8690   53.1850  162.8790 C.1   383  AZO383      0.1035
      3  C2        72.6690   53.5090  162.1730 C.ar  383  AZO383      0.1029
      4  C3        72.4060   52.9050  160.9360 C.ar  383  AZO383      0.0134
      5  C4        71.2270   53.2440  160.2390 C.ar  383  AZO383      0.0009
      6  C5        70.3050   54.1930  160.7460 C.ar  383  AZO383      0.0032
      7  C6        70.5200   54.8200  161.9850 C.ar  383  AZO383      0.0382
      8  C7        71.6880   54.5100  162.7270 C.ar  383  AZO383      0.1563
      9  O1        71.8990   55.0640  163.9710 O.3   383  AZO383     -0.4390
     10  C8        71.0620   54.7580  165.0250 C.2   383  AZO383      0.2125
     11  C9        71.1060   55.5540  166.1720 C.3   383  AZO383      0.1696
     12  C10       70.1860   55.2910  167.1960 C.2   383  AZO383      0.2125
     13  N3        69.3380   54.2220  167.0750 N.2   383  AZO383     -0.2138
     14  C11       69.3440   53.4320  165.9780 C.3   383  AZO383      0.2556
     15  N2        70.1890   53.7070  164.9650 N.2   383  AZO383     -0.2138
     16  O2        70.2280   56.0870  168.3290 O.3   383  AZO383     -0.4400
     17  C12       69.3540   55.9640  169.3850 C.ar  383  AZO383      0.1434
     18  C13       69.2500   54.7550  170.1220 C.ar  383  AZO383      0.0372
     19  C14       68.3500   54.6620  171.1940 C.ar  383  AZO383      0.0031
     20  C15       67.5910   55.7800  171.5900 C.ar  383  AZO383     -0.0001
     21  C16       67.7000   57.0210  170.9300 C.ar  383  AZO383     -0.0006
     22  C17       68.5330   57.1480  169.8060 C.ar  383  AZO383      0.0251
     23  C18       68.7050   58.4960  169.1480 C.3   383  AZO383      0.1536
     24  C19       67.8550   58.9390  168.2230 C.2   383  AZO383      0.3233
     25  O3        67.9810   60.0560  167.7100 O.2   383  AZO383     -0.2497
     26  O4        66.7570   58.0960  167.7990 O.3   383  AZO383     -0.4441
     27  C20       65.8970   58.5370  166.7520 C.3   383  AZO383      0.2556
     28  C21       69.8280   59.3980  169.5880 C.3   383  AZO383      0.1578
     29  O5        70.6100   58.8230  170.6030 O.3   383  AZO383     -0.3502
     30  C22       71.6040   59.7480  170.9650 C.3   383  AZO383      0.1741
@<TRIPOS>BOND
     1     5     6   ar
     2     5     4   ar
     3     6     7   ar
     4     4     3   ar
     5     7     8   ar
     6     3     8   ar
     7     3     2    1
     8     8     9    1
     9     2     1    3
    10     9    10    1
    11    15    10    2
    12    15    14    1
    13    10    11    1
    14    14    13    1
    15    11    12    1
    16    27    26    1
    17    13    12    2
    18    12    16    1
    19    25    24    2
    20    26    24    1
    21    24    23    1
    22    16    17    1
    23    23    28    1
    24    23    22    1
    25    17    22   ar
    26    17    18   ar
    27    28    29    1
    28    22    21   ar
    29    18    19   ar
    30    29    30    1
    31    21    20   ar
    32    19    20   ar
