@<TRIPOS>MOLECULE
1sqb_HEM_C_1.pdb
 43 50 0 0 0
SMALL
GASTEIGER

@<TRIPOS>ATOM
      1  CHA       65.1340   63.7370  143.1780 C.2   381  HEM381      0.0000
      2  CHB       66.3190   66.8010  146.8400 C.2   381  HEM381      0.0000
      3  CHC       67.2890   62.8490  149.4930 C.2   381  HEM381      0.0000
      4  CHD       67.9750   60.3780  145.2720 C.2   381  HEM381      0.0000
      5  C1A       65.2260   64.8470  144.0140 C.2   381  HEM381      0.0000
      6  C2A       64.6480   66.1420  143.7220 C.2   381  HEM381      0.0000
      7  C3A       64.9710   66.9910  144.7400 C.2   381  HEM381      0.0000
      8  C4A       65.6910   66.2280  145.7520 C.2   381  HEM381      0.0000
      9  CMA       64.5960   68.4460  144.8160 C.3   381  HEM381      0.0000
     10  CAA       63.8200   66.5130  142.4850 C.3   381  HEM381      0.0000
     11  CBA       62.2920   66.3430  142.7400 C.3   381  HEM381      0.0000
     12  CGA       61.9550   64.9770  142.9020 C.2   381  HEM381      0.0000
     13  O1A       61.6450   64.5610  144.0320 O.co2 381  HEM381      0.0000
     14  O2A       62.0570   64.1590  141.9530 O.co2 381  HEM381      0.0000
     15  C1B       66.6300   65.9590  147.8910 C.ar  381  HEM381      0.0000
     16  C2B       66.8390   66.4160  149.2380 C.ar  381  HEM381      0.0000
     17  C3B       67.1980   65.3350  149.9720 C.ar  381  HEM381      0.0000
     18  C4B       67.2170   64.1710  149.0690 C.ar  381  HEM381      0.0000
     19  CMB       66.7490   67.8490  149.7050 C.3   381  HEM381      0.0000
     20  CAB       67.3740   65.3240  151.4810 C.3   381  HEM381      0.0000
     21  CBB       68.7590   65.8720  151.8970 C.3   381  HEM381      0.0000
     22  C1C       67.5450   61.8380  148.5540 C.2   381  HEM381      0.0000
     23  C2C       67.9930   60.5040  148.9130 C.2   381  HEM381      0.0000
     24  C3C       68.1580   59.7880  147.7490 C.2   381  HEM381      0.0000
     25  C4C       67.7760   60.6940  146.6640 C.2   381  HEM381      0.0000
     26  CMC       68.1620   60.0480  150.3340 C.3   381  HEM381      0.0000
     27  CAC       68.6650   58.3610  147.4870 C.3   381  HEM381      0.0000
     28  CBC       69.1580   57.5080  148.6810 C.3   381  HEM381      0.0000
     29  C1D       67.2020   61.0900  144.3710 C.ar  381  HEM381      0.0000
     30  C2D       66.8810   60.6190  143.0540 C.ar  381  HEM381      0.0000
     31  C3D       66.0770   61.5530  142.4870 C.ar  381  HEM381      0.0000
     32  C4D       65.9450   62.6350  143.3900 C.ar  381  HEM381      0.0000
     33  CMD       67.3230   59.3030  142.4490 C.3   381  HEM381      0.0000
     34  CAD       65.5170   61.4590  141.0650 C.3   381  HEM381      0.0000
     35  CBD       64.0020   61.1880  141.1030 C.3   381  HEM381      0.0000
     36  CGD       63.4480   61.3350  139.8270 C.2   381  HEM381      0.0000
     37  O1D       63.0620   60.3140  139.2370 O.co2 381  HEM381      0.0000
     38  O2D       63.2720   62.4780  139.3180 O.co2 381  HEM381      0.0000
     39  NA        65.9280   65.0230  145.1740 N.2   381  HEM381      0.0000
     40  NB        66.7900   64.5900  147.8360 N.ar  381  HEM381      0.0000
     41  NC        67.5310   61.9470  147.1800 N.2   381  HEM381      0.0000
     42  ND        66.6330   62.3370  144.5350 N.ar  381  HEM381      0.0000
     43 FE         66.7480   63.4850  146.1710 Fe    381  HEM381      0.0000
@<TRIPOS>BOND
     1    37    36   ar
     2    38    36   ar
     3    36    35    1
     4    34    35    1
     5    34    31    1
     6    14    12   ar
     7    33    30    1
     8    10    11    1
     9    10     6    1
    10    31    30   ar
    11    31    32   ar
    12    11    12    1
    13    12    13   ar
    14    30    29   ar
    15     1    32    2
    16     1     5    1
    17    32    42   ar
    18     6     5    1
    19     6     7    2
    20     5    39    2
    21    29    42   ar
    22    29     4    2
    23    42    43    1
    24     7     9    1
    25     7     8    1
    26    39     8    1
    27    39    43    1
    28     4    25    1
    29     8     2    2
    30    43    41    1
    31    43    40    1
    32    25    41    2
    33    25    24    1
    34     2    15    1
    35    41    22    1
    36    27    24    1
    37    27    28    1
    38    24    23    2
    39    40    15   ar
    40    40    18   ar
    41    15    16   ar
    42    22    23    1
    43    22     3    2
    44    23    26    1
    45    18     3    1
    46    18    17   ar
    47    16    19    1
    48    16    17   ar
    49    17    20    1
    50    20    21    1
