@<TRIPOS>MOLECULE
1sqc_LDA_A_1.pdb
 16 15 0 0 0
SMALL
GASTEIGER

@<TRIPOS>ATOM
      1  N1       102.5810   33.4600   19.2120 N.4   667  LDA667      0.4277
      2  O1       102.8530   32.3760   18.7100 O.3   667  LDA667     -0.2898
      3  CM1      103.5840   34.4490   18.8610 C.3   667  LDA667     -0.0454
      4  CM2      101.4770   34.0640   18.4940 C.3   667  LDA667     -0.0454
      5  C1       102.3320   33.4440   20.6670 C.3   667  LDA667     -0.0278
      6  C2       103.0950   32.3180   21.3980 C.3   667  LDA667     -0.0173
      7  C3       103.4200   32.7780   22.8450 C.3   667  LDA667     -0.0020
      8  C4       102.2540   32.3080   23.6980 C.3   667  LDA667     -0.0001
      9  C5       102.2000   32.9780   25.0480 C.3   667  LDA667     -0.0000
     10  C6       100.9560   32.3570   25.7470 C.3   667  LDA667     -0.0000
     11  C7       101.4720   31.1700   26.5600 C.3   667  LDA667      0.0000
     12  C8       100.3550   30.4510   27.3390 C.3   667  LDA667      0.0000
     13  C9       100.2830   31.3410   28.5710 C.3   667  LDA667      0.0000
     14  C10      100.5650   30.5440   29.8380 C.3   667  LDA667      0.0000
     15  C11       99.1970   30.1920   30.3850 C.3   667  LDA667      0.0000
     16  C12       99.0590   28.6820   30.4450 C.3   667  LDA667      0.0000
@<TRIPOS>BOND
     1     4     1    1
     2     2     1    1
     3     3     1    1
     4     1     5    1
     5     5     6    1
     6     6     7    1
     7     7     8    1
     8     8     9    1
     9     9    10    1
    10    10    11    1
    11    11    12    1
    12    12    13    1
    13    13    14    1
    14    14    15    1
    15    15    16    1
