@<TRIPOS>MOLECULE
1sqf_SAM_A_1.pdb
 27 29 0 0 0
SMALL
GASTEIGER

@<TRIPOS>ATOM
      1  N          4.8670   -1.7580   26.2080 N.3   430  SAM430     -0.1208
      2  CA         3.6960   -0.9440   26.4750 C.3   430  SAM430      0.1952
      3  C          2.6230   -1.5670   27.4240 C.2   430  SAM430      0.3819
      4  O          1.8740   -0.6410   27.8890 O.co2 430  SAM430     -0.2441
      5  OXT        2.8150   -2.9290   27.2500 O.co2 430  SAM430     -0.2441
      6  CB         3.0800   -0.4730   25.1430 C.3   430  SAM430      0.0414
      7  CG         4.0970    0.3780   24.3350 C.3   430  SAM430      0.0503
      8  SD         3.7600    0.8570   22.5960 S.3   430  SAM430     -0.1761
      9  CE         3.4010   -0.6870   21.7020 C.3   430  SAM430      0.0590
     10  C5'        5.3560    1.3570   21.9120 C.3   430  SAM430      0.0806
     11  C4'        5.9540    2.5350   22.6970 C.3   430  SAM430      0.1622
     12  O4'        7.1770    2.7900   22.0550 O.3   430  SAM430     -0.3153
     13  C3'        5.2730    3.9070   22.7950 C.3   430  SAM430      0.2168
     14  O3'        5.1090    4.2690   24.1450 O.3   430  SAM430     -0.2175
     15  C2'        6.3220    4.8590   22.1920 C.3   430  SAM430      0.2569
     16  O2'        6.4470    6.0860   22.8410 O.3   430  SAM430     -0.2130
     17  C1'        7.6100    4.0670   22.3480 C.3   430  SAM430      0.3185
     18  N9         8.6390    4.3310   21.3440 N.pl3 430  SAM430     -0.1439
     19  C8         8.4440    4.7520   20.0360 C.3   430  SAM430      0.3377
     20  N7         9.6610    4.8700   19.4910 N.2   430  SAM430     -0.2095
     21  C5        10.6280    4.5270   20.3510 C.2   430  SAM430      0.2526
     22  C6        12.0430    4.4680   20.2940 C.2   430  SAM430      0.4393
     23  N6        12.7910    4.7320   19.2260 N.pl3 430  SAM430      0.2180
     24  N1        12.7160    4.0810   21.4030 N.2   430  SAM430      0.0021
     25  C2        12.0650    3.7360   22.5560 C.3   430  SAM430      0.5254
     26  N3        10.7110    3.8070   22.6010 N.2   430  SAM430     -0.0055
     27  C4         9.9830    4.1880   21.5330 C.2   430  SAM430      0.3518
@<TRIPOS>BOND
     1    23    22    1
     2    20    19    1
     3    20    21    2
     4    19    18    1
     5    22    21    1
     6    22    24    2
     7    21    27    1
     8    18    27    1
     9    18    17    1
    10    24    25    1
    11    27    26    2
    12     9     8    1
    13    10     8    1
    14    10    11    1
    15    12    17    1
    16    12    11    1
    17    15    17    1
    18    15    13    1
    19    15    16    1
    20    25    26    1
    21     8     7    1
    22    11    13    1
    23    13    14    1
    24     7     6    1
    25     6     2    1
    26     1     2    1
    27     2     3    1
    28     5     3   ar
    29     3     4   ar
