@<TRIPOS>MOLECULE
1sqi_869_A_1.pdb
 31 33 0 0 0
SMALL
GASTEIGER

@<TRIPOS>ATOM
      1  O30       45.7410    1.5990    8.0700 O.3   1501  8691501    -0.4714
      2  C31       47.1160    1.8760    8.3900 C.3   1501  8691501     0.2525
      3  C24       44.8060    1.1630    5.7870 C.ar  1501  8691501     0.0369
      4  C25       44.9830    0.5580    4.5250 C.ar  1501  8691501     0.0031
      5  C26       46.1780   -0.1590    4.3240 C.ar  1501  8691501     0.0011
      6  C27       47.1740   -0.2880    5.2560 C.ar  1501  8691501     0.0031
      7  C28       46.9690    0.3120    6.5100 C.ar  1501  8691501     0.0369
      8  C29       45.7780    1.0360    6.7610 C.ar  1501  8691501     0.1387
      9  C1        44.9710   -1.3850    2.7410 C.ar  1501  8691501    -0.0219
     10  C2        44.9260   -1.7960    1.3680 C.ar  1501  8691501     0.0083
     11  C3        46.0010   -1.3190    0.5940 C.ar  1501  8691501    -0.0005
     12  C4        47.0630   -0.4980    1.0990 C.ar  1501  8691501     0.0181
     13  C5        47.0730   -0.0570    2.4270 C.ar  1501  8691501     0.1054
     14  C6        45.9910   -0.5360    3.2610 C.ar  1501  8691501     0.0129
     15  C7        43.9270   -1.8440    3.5890 C.3   1501  8691501     0.0308
     16  C9        44.7360   -4.1020    0.6560 C.ar  1501  8691501     0.0902
     17  C15       43.6300   -4.8120    0.4470 C.ar  1501  8691501     0.2765
     18  C18       45.9510   -4.7200    0.7620 C.ar  1501  8691501     0.1235
     19  N16       44.1140   -6.0720    0.4150 N.ar  1501  8691501    -0.2205
     20  N17       45.5960   -5.9980    0.6170 N.ar  1501  8691501    -0.1654
     21  O19       42.2850   -4.5980    0.2980 O.2   1501  8691501    -0.2657
     22  C8        44.1030   -2.9680    0.6160 C.3   1501  8691501     0.2024
     23  O10       42.8230   -2.6630    0.4160 O.3   1501  8691501    -0.2132
     24  S11       48.3160    0.7470    2.8370 S.O2  1501  8691501     0.0104
     25  O13       49.2610    0.2880    2.2240 O.2   1501  8691501    -0.1686
     26  O12       48.6460    0.6080    4.1630 O.2   1501  8691501    -0.1686
     27  C14       48.4050    1.9280    2.6670 C.3   1501  8691501     0.1816
     28  C20       43.6240   -7.5700    0.4260 C.3   1501  8691501     0.0897
     29  C21       43.3960   -7.8750    1.9170 C.3   1501  8691501     0.0245
     30  C22       42.4490   -7.8120   -0.4330 C.3   1501  8691501     0.0245
     31  C23       44.6530   -8.6610    0.0180 C.3   1501  8691501     0.0245
@<TRIPOS>BOND
     1    30    28    1
     2    31    28    1
     3    21    17    2
     4    19    28    1
     5    19    17   ar
     6    19    20   ar
     7    23    22    1
     8    28    29    1
     9    17    16   ar
    10    11    12   ar
    11    11    10   ar
    12    22    16    1
    13    22    10    1
    14    20    18   ar
    15    16    18   ar
    16    12    13   ar
    17    10     9   ar
    18    25    24    2
    19    13    24    1
    20    13    14   ar
    21    27    24    1
    22     9    14   ar
    23     9    15    1
    24    24    26    2
    25    14     5    1
    26     5     4   ar
    27     5     6   ar
    28     4     3   ar
    29     6     7   ar
    30     3     8   ar
    31     7     8   ar
    32     8     1    1
    33     1     2    1
