@<TRIPOS>MOLECULE
1sqk_LAR_A_1.pdb
 29 31 0 0 0
SMALL
GASTEIGER

@<TRIPOS>ATOM
      1  S1        18.3910   13.8600   19.2760 S.3   378  LAR378     -0.0192
      2  N1        18.3040   11.9240   20.9240 N.2   378  LAR378     -0.1932
      3  O1        20.2840   11.5910   25.3500 O.2   378  LAR378     -0.2449
      4  O2        22.1800   11.2450   24.0670 O.3   378  LAR378     -0.4490
      5  O3        21.7490   10.8030   20.3360 O.3   378  LAR378     -0.3329
      6  O4        21.0960   12.7680   21.4260 O.3   378  LAR378     -0.1930
      7  O5        16.6810   13.5080   21.2610 O.2   378  LAR378     -0.2155
      8  C1        21.4760   11.8470   25.0940 C.2   378  LAR378      0.3407
      9  C2        22.2940   12.7990   25.8820 C.2   378  LAR378      0.0734
     10  C3        23.4010   13.5340   25.6660 C.2   378  LAR378     -0.0372
     11  C4        24.2060   13.5640   24.3120 C.3   378  LAR378      0.0269
     12  C5        25.6280   13.1600   24.5710 C.3   378  LAR378      0.0304
     13  C6        26.3720   12.6350   23.3820 C.2   378  LAR378     -0.0258
     14  C7        26.0260   12.4440   22.1010 C.2   378  LAR378     -0.0049
     15  C8        26.9450   11.9060   21.1380 C.2   378  LAR378     -0.0049
     16  C9        26.6120   11.6920   19.8270 C.2   378  LAR378     -0.0265
     17  C10       25.2520   11.9910   19.2090 C.3   378  LAR378      0.0221
     18  C11       24.3740   10.7630   19.0020 C.3   378  LAR378      0.0068
     19  C12       24.0390    9.9680   20.2440 C.3   378  LAR378      0.0301
     20  C13       22.9860   10.5790   21.1420 C.3   378  LAR378      0.1214
     21  C14       22.6560    9.6460   22.3070 C.3   378  LAR378      0.0734
     22  C15       21.5390   10.2090   23.1870 C.3   378  LAR378      0.1766
     23  C16       20.3360   10.7300   22.3900 C.3   378  LAR378      0.1048
     24  C17       20.6840   11.4300   21.0680 C.3   378  LAR378      0.2448
     25  C18       19.5120   11.5160   20.0960 C.3   378  LAR378      0.1810
     26  C19       19.6530   12.5480   18.9940 C.3   378  LAR378      0.1042
     27  C20       17.6370   13.0350   20.6880 C.1   378  LAR378      0.1790
     28  C21       23.8980   14.4110   26.8520 C.3   378  LAR378      0.0266
     29  C22       25.5130   12.7800   17.8310 C.3   378  LAR378      0.0047
@<TRIPOS>BOND
     1    29    17    1
     2    26     1    1
     3    26    25    1
     4    18    17    1
     5    18    19    1
     6    17    16    1
     7     1    27    1
     8    16    15    2
     9    25     2    1
    10    25    24    1
    11    19    20    1
    12     5    24    1
    13     5    20    1
    14    27     2    2
    15    27     7    2
    16    24     6    1
    17    24    23    1
    18    15    14    1
    19    20    21    1
    20    14    13    2
    21    21    22    1
    22    23    22    1
    23    22     4    1
    24    13    12    1
    25     4     8    1
    26    11    12    1
    27    11    10    1
    28     8     3    2
    29     8     9    1
    30    10     9    2
    31    10    28    1
