@<TRIPOS>MOLECULE
1sqk_ADP_A_1.pdb
 27 29 0 0 0
SMALL
GASTEIGER

@<TRIPOS>ATOM
      1  PB        16.9410    5.0310   26.4780 P.3   377  ADP377      0.5373
      2  O1B       15.6670    5.5550   26.0060 O.3   377  ADP377     -0.1143
      3  O2B       18.3410    5.4110   25.8310 O.2   377  ADP377     -0.2221
      4  O3B       16.9600    4.5260   27.8870 O.3   377  ADP377     -0.1143
      5  PA        16.5950    7.4150   28.2700 P.3   377  ADP377      0.2231
      6  O1A       15.4720    6.7880   28.9290 O.2   377  ADP377     -0.5169
      7  O2A       17.6560    7.6350   29.2440 O.3   377  ADP377     -0.4370
      8  O3A       17.1820    6.5140   27.0610 O.3   377  ADP377     -0.2261
      9  O5'       16.1960    8.8420   27.7050 O.3   377  ADP377     -0.3111
     10  C5'       16.4090    9.2800   26.3810 C.3   377  ADP377      0.1813
     11  C4'       15.7450   10.6690   26.1720 C.3   377  ADP377      0.1821
     12  O4'       15.4030   11.4730   27.3250 O.3   377  ADP377     -0.3135
     13  C3'       16.4530   11.6160   25.1650 C.3   377  ADP377      0.2184
     14  O3'       15.6660   11.9160   24.0060 O.3   377  ADP377     -0.2174
     15  C2'       16.8200   12.8390   25.9910 C.3   377  ADP377      0.2570
     16  O2'       16.9890   14.0220   25.2160 O.3   377  ADP377     -0.2130
     17  C1'       15.6940   12.8500   26.9820 C.3   377  ADP377      0.3186
     18  N9        15.9320   13.7240   28.1890 N.pl3 377  ADP377     -0.1439
     19  C8        16.9520   13.6320   29.0660 C.3   377  ADP377      0.3377
     20  N7        16.8350   14.5860   29.9840 N.2   377  ADP377     -0.2095
     21  C5        15.7690   15.2840   29.7230 C.2   377  ADP377      0.2526
     22  C6        15.0560   16.4850   30.3330 C.2   377  ADP377      0.4393
     23  N6        15.5390   17.0810   31.4230 N.pl3 377  ADP377      0.2180
     24  N1        13.8950   16.9560   29.7420 N.2   377  ADP377      0.0021
     25  C2        13.3670   16.3740   28.6180 C.3   377  ADP377      0.5254
     26  N3        14.0060   15.2930   28.0560 N.2   377  ADP377     -0.0055
     27  C4        15.1730   14.7320   28.5620 C.2   377  ADP377      0.3518
@<TRIPOS>BOND
     1    14    13    1
     2    13    15    1
     3    13    11    1
     4    16    15    1
     5     3     1    2
     6    15    17    1
     7     2     1    1
     8    11    10    1
     9    11    12    1
    10    10     9    1
    11     1     8    1
    12     1     4    1
    13    17    12    1
    14    17    18    1
    15     8     5    1
    16     9     5    1
    17    26    27    2
    18    26    25    1
    19    18    27    1
    20    18    19    1
    21     5     6    2
    22     5     7    1
    23    27    21    1
    24    25    24    1
    25    19    20    1
    26    21    20    2
    27    21    22    1
    28    24    22    2
    29    22    23    1
