@<TRIPOS>MOLECULE
1sql_GUN_A_1.pdb
 11 12 0 0 0
SMALL
GASTEIGER

@<TRIPOS>ATOM
      1  N9       -26.1870   -1.7120    9.4350 N.2   1001  GUN1001    -0.1802
      2  C8       -25.9550   -3.0460    9.3260 C.3   1001  GUN1001     0.2633
      3  N7       -25.3000   -3.4390   10.3550 N.2   1001  GUN1001    -0.2212
      4  C5       -25.0350   -2.3670   11.2660 C.2   1001  GUN1001     0.2482
      5  C6       -24.3670   -2.1270   12.5690 C.1   1001  GUN1001     0.2442
      6  O6       -23.8260   -3.0320   13.1850 O.2   1001  GUN1001    -0.2063
      7  N1       -24.3840   -0.8380   13.0480 N.2   1001  GUN1001    -0.2474
      8  C2       -24.9870    0.1940   12.3600 C.1   1001  GUN1001     0.2608
      9  N2       -25.0030    1.4530   12.8170 N.pl3 1001  GUN1001    -0.0220
     10  N3       -25.5710   -0.0130   11.2180 N.2   1001  GUN1001    -0.2682
     11  C4       -25.6220   -1.3440   10.6030 C.1   1001  GUN1001     0.1289
@<TRIPOS>BOND
     1     2     1    1
     2     2     3    1
     3     1    11    2
     4     3     4    2
     5    11    10    2
     6    11     4    1
     7    10     8    2
     8     4     5    1
     9     8     9    1
    10     8     7    2
    11     5     7    2
    12     5     6    2
