@<TRIPOS>MOLECULE
1sqn_NDR_A_1.pdb
 22 25 0 0 0
SMALL
GASTEIGER

@<TRIPOS>ATOM
      1  O22       -4.1220   -1.1470   30.7680 O.2   1001  NDR1001    -0.2914
      2  C21       -3.7310   -0.3340   29.9590 C.2   1001  NDR1001     0.1725
      3  C20       -4.4900    0.9880   29.7420 C.3   1001  NDR1001     0.0695
      4  C19       -2.5860   -0.6780   29.1600 C.2   1001  NDR1001     0.0290
      5  C17       -2.1910    0.2160   28.1060 C.2   1001  NDR1001    -0.0417
      6  C15       -0.8560   -0.1210   27.4590 C.3   1001  NDR1001     0.0221
      7  C14       -2.9580    1.3330   27.6770 C.3   1001  NDR1001     0.0188
      8  C18       -4.3850    1.2920   28.2630 C.3   1001  NDR1001     0.0121
      9  C8        -2.8080    1.6270   26.2540 C.3   1001  NDR1001     0.0037
     10  C3        -1.6160    1.3810   25.5500 C.3   1001  NDR1001     0.0007
     11  C9        -0.9620    0.0700   25.9880 C.3   1001  NDR1001     0.0044
     12  C13       -3.6500    2.8190   25.7550 C.3   1001  NDR1001     0.0004
     13  C6        -3.4930    3.0750   24.1940 C.3   1001  NDR1001     0.0033
     14  C2        -2.1050    2.9940   23.6570 C.3   1001  NDR1001     0.0366
     15  C1        -1.4440    1.7140   24.1630 C.3   1001  NDR1001     0.0034
     16  C7        -1.4140    4.2380   24.2320 C.3   1001  NDR1001     0.0034
     17  C5        -1.8860    2.9150   22.1190 C.3   1001  NDR1001     0.1797
     18  O12       -1.9890    4.1550   21.4200 O.3   1001  NDR1001    -0.2124
     19  C10       -0.4500    2.3470   22.0170 C.3   1001  NDR1001     0.0430
     20  C4        -0.2250    1.5110   23.2800 C.3   1001  NDR1001     0.0037
     21  C11       -2.8680    2.0190   21.4830 C.1   1001  NDR1001    -0.0491
     22  C16       -3.7620    1.2630   20.9700 C.1   1001  NDR1001    -0.0117
@<TRIPOS>BOND
     1    22    21    3
     2    18    17    1
     3    21    17    1
     4    19    17    1
     5    19    20    1
     6    17    14    1
     7    20    15    1
     8    14    15    1
     9    14    13    1
    10    14    16    1
    11    15    10    1
    12    13    12    1
    13    10    11    1
    14    10     9    1
    15    12     9    1
    16    11     6    1
    17     9     7    1
    18     6     5    1
    19     7     5    1
    20     7     8    1
    21     5     4    2
    22     8     3    1
    23     4     2    1
    24     3     2    1
    25     2     1    2
