@<TRIPOS>MOLECULE
1sqo_UI2_A_1.pdb
 20 22 0 0 0
SMALL
GASTEIGER

@<TRIPOS>ATOM
      1  C1        22.8480   15.6040   33.4860 C.ar  1001  UI21001     0.0014
      2  C2        21.5630   15.6150   32.9250 C.ar  1001  UI21001     0.0001
      3  C3        20.6830   16.7430   33.1310 C.ar  1001  UI21001     0.0013
      4  C4        21.1830   17.8310   33.9200 C.ar  1001  UI21001     0.0163
      5  C5        22.4840   17.8600   34.4720 C.ar  1001  UI21001     0.0816
      6  C6        23.3140   16.7200   34.2580 C.ar  1001  UI21001     0.0173
      7  C10       19.3950   16.7020   32.5920 C.ar  1001  UI21001     0.0003
      8  C11       18.5190   17.7660   32.9440 C.ar  1001  UI21001     0.0080
      9  C12       18.9390   18.8490   33.7780 C.ar  1001  UI21001     0.0975
     10  C13       20.2510   18.9260   34.2320 C.ar  1001  UI21001     0.0093
     11  N17       23.0230   18.9790   35.1990 N.pl3 1001  UI21001    -0.1462
     12  C18       23.5730   18.9350   36.4770 C.1   1001  UI21001     0.1118
     13  N19       23.5420   17.8270   37.2840 N.2   1001  UI21001    -0.2015
     14  C20       24.0180   17.7620   38.5550 C.3   1001  UI21001     0.1653
     15  C21       24.6230   18.9260   39.1790 C.2   1001  UI21001     0.0223
     16  C22       24.5650   20.0600   38.2700 C.2   1001  UI21001     0.1083
     17  N23       24.1230   20.0870   37.0400 N.2   1001  UI21001    -0.1791
     18  C28       18.1090   19.8910   34.1900 C.2   1001  UI21001     0.4766
     19  N29       16.8030   19.7790   34.1600 N.pl3 1001  UI21001     0.2047
     20  N30       18.5430   21.0900   34.6510 N.pl3 1001  UI21001     0.2047
@<TRIPOS>BOND
     1     7     8   ar
     2     7     3   ar
     3     2     3   ar
     4     2     1   ar
     5     8     9   ar
     6     3     4   ar
     7     1     6   ar
     8     9    18    1
     9     9    10   ar
    10     4    10   ar
    11     4     5   ar
    12    19    18    2
    13    18    20    1
    14     6     5   ar
    15     5    11    1
    16    11    12    1
    17    12    17    2
    18    12    13    2
    19    17    16    1
    20    13    14    1
    21    16    15    2
    22    14    15    1
