@<TRIPOS>MOLECULE
1sqp_MYX_C_1.pdb
 33 34 0 0 0
SMALL
GASTEIGER

@<TRIPOS>ATOM
      1  O1        66.4770   58.6540  168.1130 O.2   383  MYX383     -0.2666
      2  C1        67.2970   59.5610  168.0940 C.2   383  MYX383      0.2870
      3  N1        67.0800   60.6070  167.2990 N.am  383  MYX383     -0.0836
      4  C2        68.5770   59.5160  168.9290 C.2   383  MYX383      0.0935
      5  C3        68.9790   58.5510  169.8500 C.2   383  MYX383      0.1231
      6  O2        70.2340   58.6990  170.5960 O.2   383  MYX383     -0.4754
      7  C4        71.0910   59.8200  170.5010 C.3   383  MYX383      0.2520
      8  C5        68.2020   57.2730  170.1130 C.3   383  MYX383      0.0884
      9  C6        67.5670   57.3660  171.5030 C.3   383  MYX383      0.0108
     10  C7        69.1270   56.0670  169.9760 C.3   383  MYX383      0.1444
     11  O3        68.6270   54.8540  170.5710 O.3   383  MYX383     -0.3488
     12  C8        69.6580   54.0270  171.1430 C.3   383  MYX383      0.1745
     13  C9        69.6750   55.9030  168.5610 C.2   383  MYX383      0.0056
     14  C10       69.3830   54.8800  167.7490 C.2   383  MYX383      0.0263
     15  C11       70.1060   54.7350  166.4380 C.2   383  MYX383      0.1208
     16  C12       69.8170   53.6910  165.6560 C.3   383  MYX383      0.1234
     17  N2        71.0290   55.5970  165.9880 N.2   383  MYX383     -0.3968
     18  C13       71.4770   55.1940  164.6790 C.2   383  MYX383      0.1831
     19  C14       72.4960   55.8270  163.8630 C.2   383  MYX383      0.1557
     20  C15       73.2610   56.8890  164.3330 C.3   383  MYX383      0.1263
     21  N3        72.8590   55.3700  162.5920 N.2   383  MYX383     -0.4001
     22  C16       73.9370   56.1800  162.0650 C.2   383  MYX383      0.1381
     23  C17       74.6260   55.9310  160.7130 C.3   383  MYX383      0.0804
     24  C18       73.7770   55.0990  159.7700 C.3   383  MYX383      0.0127
     25  C19       75.0820   57.2190  160.0430 C.2   383  MYX383     -0.0189
     26  C20       76.4290   57.4020  159.8280 C.2   383  MYX383     -0.0045
     27  C21       76.9030   58.6870  159.1660 C.2   383  MYX383     -0.0049
     28  C22       78.2520   58.8640  158.9540 C.2   383  MYX383     -0.0265
     29  C23       78.7640   60.1350  158.3020 C.3   383  MYX383      0.0220
     30  C24       79.3620   61.0460  159.3630 C.3   383  MYX383      0.0047
     31  C25       79.8150   59.8170  157.2440 C.3   383  MYX383      0.0047
     32  S1        70.7080   53.7470  164.2160 S.3   383  MYX383     -0.0725
     33  S2        74.4640   57.3670  163.2160 S.3   383  MYX383     -0.0787
@<TRIPOS>BOND
     1    31    29    1
     2    29    28    1
     3    29    30    1
     4    28    27    2
     5    27    26    1
     6    24    23    1
     7    26    25    2
     8    25    23    1
     9    23    22    1
    10    22    21    2
    11    22    33    1
    12    21    19    2
    13    33    20    1
    14    19    20    1
    15    19    18    1
    16    32    18    1
    17    32    16    1
    18    18    17    2
    19    16    15    1
    20    17    15    2
    21    15    14    1
    22     3     2   am
    23    14    13    2
    24     2     1    2
    25     2     4    1
    26    13    10    1
    27     4     5    2
    28     5     8    1
    29     5     6    1
    30    10     8    1
    31    10    11    1
    32     8     9    1
    33     7     6    1
    34    11    12    1
