@<TRIPOS>MOLECULE
1sqp_HEM_C_1.pdb
 43 50 0 0 0
SMALL
GASTEIGER

@<TRIPOS>ATOM
      1  CHA       65.0860   63.7780  143.3540 C.2   381  HEM381      0.0000
      2  CHB       66.2680   66.8190  147.0590 C.2   381  HEM381      0.0000
      3  CHC       67.3330   62.9540  149.7210 C.2   381  HEM381      0.0000
      4  CHD       67.8060   60.3270  145.5790 C.2   381  HEM381      0.0000
      5  C1A       65.1550   64.8850  144.2190 C.2   381  HEM381      0.0000
      6  C2A       64.5750   66.2050  143.9550 C.2   381  HEM381      0.0000
      7  C3A       64.9240   67.0280  144.9830 C.2   381  HEM381      0.0000
      8  C4A       65.6520   66.2450  145.9730 C.2   381  HEM381      0.0000
      9  CMA       64.5800   68.4850  145.1100 C.3   381  HEM381      0.0000
     10  CAA       63.7600   66.6490  142.7400 C.3   381  HEM381      0.0000
     11  CBA       62.2290   66.4530  142.9780 C.3   381  HEM381      0.0000
     12  CGA       61.8690   65.0700  142.9820 C.2   381  HEM381      0.0000
     13  O1A       61.3500   64.5960  144.0020 O.co2 381  HEM381      0.0000
     14  O2A       62.1350   64.2970  142.0100 O.co2 381  HEM381      0.0000
     15  C1B       66.5900   65.9960  148.0990 C.ar  381  HEM381      0.0000
     16  C2B       66.8170   66.4740  149.4470 C.ar  381  HEM381      0.0000
     17  C3B       67.1940   65.4040  150.1760 C.ar  381  HEM381      0.0000
     18  C4B       67.2060   64.2420  149.2750 C.ar  381  HEM381      0.0000
     19  CMB       66.7230   67.9070  149.9260 C.3   381  HEM381      0.0000
     20  CAB       67.4210   65.3940  151.6800 C.3   381  HEM381      0.0000
     21  CBB       68.7900   66.0120  152.0600 C.3   381  HEM381      0.0000
     22  C1C       67.4880   61.9210  148.8000 C.2   381  HEM381      0.0000
     23  C2C       67.8430   60.5930  149.2110 C.2   381  HEM381      0.0000
     24  C3C       67.9970   59.8430  148.0940 C.2   381  HEM381      0.0000
     25  C4C       67.6020   60.6900  146.9580 C.2   381  HEM381      0.0000
     26  CMC       68.0440   60.1520  150.6390 C.3   381  HEM381      0.0000
     27  CAC       68.1980   58.3460  148.1170 C.3   381  HEM381      0.0000
     28  CBC       69.5440   57.8580  147.6240 C.3   381  HEM381      0.0000
     29  C1D       67.1200   61.0830  144.6230 C.ar  381  HEM381      0.0000
     30  C2D       66.8210   60.6070  143.3010 C.ar  381  HEM381      0.0000
     31  C3D       66.0540   61.5600  142.6850 C.ar  381  HEM381      0.0000
     32  C4D       65.8940   62.6490  143.5890 C.ar  381  HEM381      0.0000
     33  CMD       67.3040   59.2890  142.7270 C.3   381  HEM381      0.0000
     34  CAD       65.4900   61.4370  141.2500 C.3   381  HEM381      0.0000
     35  CBD       63.9650   61.2380  141.3330 C.3   381  HEM381      0.0000
     36  CGD       63.2710   61.3030  140.1150 C.2   381  HEM381      0.0000
     37  O1D       62.3570   60.4690  139.9310 O.co2 381  HEM381      0.0000
     38  O2D       63.3920   62.2810  139.3310 O.co2 381  HEM381      0.0000
     39  NA        65.8770   65.0380  145.3850 N.2   381  HEM381      0.0000
     40  NB        66.7500   64.6290  148.0460 N.ar  381  HEM381      0.0000
     41  NC        67.4860   61.9820  147.4200 N.2   381  HEM381      0.0000
     42  ND        66.5320   62.3280  144.7730 N.ar  381  HEM381      0.0000
     43 FE         66.7080   63.4980  146.3870 Fe    381  HEM381      0.0000
@<TRIPOS>BOND
     1    38    36   ar
     2    37    36   ar
     3    36    35    1
     4    34    35    1
     5    34    31    1
     6    14    12   ar
     7    31    30   ar
     8    31    32   ar
     9    33    30    1
    10    10    11    1
    11    10     6    1
    12    11    12    1
    13    12    13   ar
    14    30    29   ar
    15     1    32    2
    16     1     5    1
    17    32    42   ar
    18     6     5    1
    19     6     7    2
    20     5    39    2
    21    29    42   ar
    22    29     4    2
    23    42    43    1
    24     7     9    1
    25     7     8    1
    26    39     8    1
    27    39    43    1
    28     4    25    1
    29     8     2    2
    30    43    41    1
    31    43    40    1
    32    25    41    2
    33    25    24    1
    34     2    15    1
    35    41    22    1
    36    28    27    1
    37    40    15   ar
    38    40    18   ar
    39    24    27    1
    40    24    23    2
    41    15    16   ar
    42    22    23    1
    43    22     3    2
    44    23    26    1
    45    18     3    1
    46    18    17   ar
    47    16    19    1
    48    16    17   ar
    49    17    20    1
    50    20    21    1
