@<TRIPOS>MOLECULE
1sqp_PEE_A_1.pdb
 49 48 0 0 0
SMALL
GASTEIGER

@<TRIPOS>ATOM
      1  C2        54.0070   85.0950  140.1760 C.3   448  PEE448      0.1773
      2  C1        53.1650   85.6350  139.0060 C.3   448  PEE448      0.1812
      3  N         53.7650   88.9000  133.7210 N.3   448  PEE448     -0.1286
      4  C3        54.4870   86.3120  140.9970 C.3   448  PEE448      0.1769
      5  C4        54.3790   87.1850  135.3790 C.3   448  PEE448      0.1696
      6  C5        54.0450   87.4870  133.9160 C.3   448  PEE448      0.1417
      7  C10       53.9800   83.0740  141.5510 C.3   448  PEE448      0.2690
      8  C11       53.3310   82.4870  142.8200 C.3   448  PEE448      0.0644
      9  C12       54.0170   82.9750  144.1090 C.3   448  PEE448      0.0053
     10  C13       55.0060   81.9520  144.6780 C.3   448  PEE448      0.0002
     11  C14       55.8820   82.5700  145.7660 C.3   448  PEE448      0.0000
     12  C15       57.3520   82.1850  145.5790 C.3   448  PEE448      0.0000
     13  C16       58.2760   83.0210  146.4780 C.3   448  PEE448      0.0000
     14  C17       59.6750   82.3920  146.6200 C.3   448  PEE448      0.0000
     15  C18       60.8070   83.3610  146.2200 C.3   448  PEE448      0.0000
     16  C19       62.0990   83.1230  147.0280 C.3   448  PEE448      0.0000
     17  C20       63.2890   82.7010  146.1420 C.3   448  PEE448      0.0000
     18  C21       64.1150   81.5770  146.7960 C.3   448  PEE448      0.0000
     19  C22       64.9720   80.7950  145.7860 C.3   448  PEE448      0.0000
     20  C23       66.3710   80.4940  146.3400 C.3   448  PEE448      0.0000
     21  C24       67.4810   80.9580  145.3900 C.3   448  PEE448      0.0000
     22  C25       68.1010   82.3000  145.8230 C.3   448  PEE448      0.0000
     23  C26       68.6890   83.0760  144.6320 C.3   448  PEE448      0.0000
     24  C27       68.1080   84.4750  144.5070 C.3   448  PEE448      0.0000
     25  C30       55.4100   86.8710  143.1680 C.3   448  PEE448      0.2690
     26  C31       56.1560   86.2690  144.3840 C.3   448  PEE448      0.0644
     27  C32       55.8970   87.0140  145.7190 C.3   448  PEE448      0.0053
     28  C33       56.0650   86.1120  146.9540 C.3   448  PEE448      0.0002
     29  C34       56.5310   86.8960  148.1870 C.3   448  PEE448      0.0000
     30  C35       57.0310   85.9690  149.3040 C.3   448  PEE448      0.0000
     31  C36       57.3270   86.7540  150.5930 C.3   448  PEE448      0.0000
     32  C37       57.7420   85.8370  151.7560 C.3   448  PEE448      0.0000
     33  C38       57.2180   86.3170  153.1230 C.3   448  PEE448      0.0000
     34  C39       58.2790   87.0770  153.9370 C.3   448  PEE448      0.0000
     35  C40       58.9500   86.1990  155.0040 C.3   448  PEE448      0.0000
     36  C41       60.0650   86.9530  155.7470 C.3   448  PEE448      0.0000
     37  C42       61.4670   86.5120  155.3020 C.3   448  PEE448      0.0000
     38  C43       62.1160   87.5570  154.3840 C.3   448  PEE448      0.0000
     39  C44       63.6340   87.3850  154.2980 C.3   448  PEE448      0.0000
     40  C45       64.3600   88.6970  154.5340 C.3   448  PEE448      0.0000
     41  O4        54.1260   82.1750  140.7520 O.3   448  PEE448     -0.1899
     42  O5        55.8230   87.9870  142.9470 O.3   448  PEE448     -0.1899
     43  O2        53.2140   84.1650  140.9670 O.3   448  PEE448     -0.3258
     44  O3        55.5240   86.0310  141.9780 O.3   448  PEE448     -0.3258
     45  O1P       53.9420   84.1520  135.4190 O.2   448  PEE448     -0.5172
     46  O2P       51.3060   84.8640  135.8940 O.3   448  PEE448     -0.4373
     47  O3P       53.1220   84.7190  137.9160 O.3   448  PEE448     -0.3114
     48  O4P       53.2340   86.6920  136.1300 O.3   448  PEE448     -0.3125
     49  P         52.9090   85.1140  136.3590 P.3   448  PEE448      0.2141
@<TRIPOS>BOND
     1     3     6    1
     2     6     5    1
     3     5    48    1
     4    45    49    2
     5    46    49    1
     6    48    49    1
     7    49    47    1
     8    47     2    1
     9     2     1    1
    10     1    43    1
    11     1     4    1
    12    41     7    1
    13    43     7    1
    14     4    44    1
    15     7     8    1
    16    44    25    1
    17     8     9    1
    18    42    25    1
    19    25    26    1
    20     9    10    1
    21    26    27    1
    22    24    23    1
    23    23    22    1
    24    10    11    1
    25    21    22    1
    26    21    20    1
    27    12    11    1
    28    12    13    1
    29    27    28    1
    30    19    20    1
    31    19    18    1
    32    17    18    1
    33    17    16    1
    34    15    14    1
    35    15    16    1
    36    13    14    1
    37    28    29    1
    38    29    30    1
    39    30    31    1
    40    31    32    1
    41    32    33    1
    42    33    34    1
    43    34    35    1
    44    39    38    1
    45    39    40    1
    46    38    37    1
    47    35    36    1
    48    37    36    1
