@<TRIPOS>MOLECULE
1sqq_HEM_C_1.pdb
 43 50 0 0 0
SMALL
GASTEIGER

@<TRIPOS>ATOM
      1  CHA       67.7650   69.6730  169.3290 C.2   381  HEM381      0.0000
      2  CHB       70.0840   73.5020  167.2410 C.2   381  HEM381      0.0000
      3  CHC       69.1280   71.6060  162.8100 C.2   381  HEM381      0.0000
      4  CHD       67.4570   67.4710  164.9690 C.2   381  HEM381      0.0000
      5  C1A       68.4650   70.8570  169.1030 C.2   381  HEM381      0.0000
      6  C2A       68.8410   71.8160  170.1590 C.2   381  HEM381      0.0000
      7  C3A       69.4700   72.8760  169.5530 C.2   381  HEM381      0.0000
      8  C4A       69.4750   72.6340  168.1120 C.2   381  HEM381      0.0000
      9  CMA       70.0340   74.1070  170.2380 C.3   381  HEM381      0.0000
     10  CAA       68.6470   71.6530  171.6850 C.3   381  HEM381      0.0000
     11  CBA       67.3010   72.2630  172.1720 C.3   381  HEM381      0.0000
     12  CGA       66.2200   71.3270  172.0330 C.2   381  HEM381      0.0000
     13  O1A       66.3700   70.1070  172.3470 O.co2 381  HEM381      0.0000
     14  O2A       65.0840   71.7070  171.6270 O.co2 381  HEM381      0.0000
     15  C1B       70.0010   73.2720  165.8920 C.ar  381  HEM381      0.0000
     16  C2B       70.5200   74.2260  164.9160 C.ar  381  HEM381      0.0000
     17  C3B       70.2450   73.6960  163.6960 C.ar  381  HEM381      0.0000
     18  C4B       69.5980   72.3820  163.8750 C.ar  381  HEM381      0.0000
     19  CMB       71.2260   75.5510  165.1880 C.3   381  HEM381      0.0000
     20  CAB       70.6140   74.3090  162.3930 C.3   381  HEM381      0.0000
     21  CBB       72.0900   73.9540  162.1950 C.3   381  HEM381      0.0000
     22  C1C       68.7210   70.3060  163.0630 C.2   381  HEM381      0.0000
     23  C2C       68.4450   69.3600  162.0070 C.2   381  HEM381      0.0000
     24  C3C       67.9660   68.2590  162.6000 C.2   381  HEM381      0.0000
     25  C4C       67.9020   68.4830  164.0200 C.2   381  HEM381      0.0000
     26  CMC       68.6950   69.5390  160.5180 C.3   381  HEM381      0.0000
     27  CAC       67.6210   66.9710  161.9310 C.3   381  HEM381      0.0000
     28  CBC       66.1500   67.0130  161.5060 C.3   381  HEM381      0.0000
     29  C1D       67.3320   67.8130  166.3180 C.ar  381  HEM381      0.0000
     30  C2D       66.8350   66.8900  167.3310 C.ar  381  HEM381      0.0000
     31  C3D       66.9650   67.5030  168.5530 C.ar  381  HEM381      0.0000
     32  C4D       67.5330   68.7750  168.3090 C.ar  381  HEM381      0.0000
     33  CMD       66.3160   65.4930  167.0680 C.3   381  HEM381      0.0000
     34  CAD       66.4590   66.9720  169.9270 C.3   381  HEM381      0.0000
     35  CBD       64.8990   67.1030  169.9600 C.3   381  HEM381      0.0000
     36  CGD       64.3260   67.4470  171.2060 C.2   381  HEM381      0.0000
     37  O1D       63.7750   66.5560  171.8980 O.co2 381  HEM381      0.0000
     38  O2D       64.1810   68.6490  171.5270 O.co2 381  HEM381      0.0000
     39  NA        68.9190   71.3950  167.9220 N.2   381  HEM381      0.0000
     40  NB        69.4080   72.1820  165.2390 N.ar  381  HEM381      0.0000
     41  NC        68.3090   69.7680  164.2710 N.2   381  HEM381      0.0000
     42  ND        67.8100   68.9290  166.9660 N.ar  381  HEM381      0.0000
     43 FE         68.5860   70.5510  166.1040 Fe    381  HEM381      0.0000
@<TRIPOS>BOND
     1    26    23    1
     2    28    27    1
     3    27    24    1
     4    23    24    2
     5    23    22    1
     6    21    20    1
     7    20    17    1
     8    24    25    1
     9     3    22    2
    10     3    18    1
    11    22    41    1
    12    17    18   ar
    13    17    16   ar
    14    18    40   ar
    15    25    41    2
    16    25     4    1
    17    41    43    1
    18    16    19    1
    19    16    15   ar
    20     4    29    2
    21    40    15   ar
    22    40    43    1
    23    15     2    1
    24    43    42    1
    25    43    39    1
    26    29    42   ar
    27    29    30   ar
    28    42    32   ar
    29    33    30    1
    30     2     8    2
    31    30    31   ar
    32    39     8    1
    33    39     5    2
    34     8     7    1
    35    32    31   ar
    36    32     1    2
    37    31    34    1
    38     5     1    1
    39     5     6    1
    40     7     6    2
    41     7     9    1
    42    34    35    1
    43    35    36    1
    44     6    10    1
    45    36    38   ar
    46    36    37   ar
    47    14    12   ar
    48    10    11    1
    49    12    11    1
    50    12    13   ar
