@<TRIPOS>MOLECULE
1sqq_UQ2_C_1.pdb
 23 23 0 0 0
SMALL
GASTEIGER

@<TRIPOS>ATOM
      1  C1        62.9880   69.9890  141.3110 C.2   383  UQ2383      0.2285
      2  C2        61.9940   68.9350  140.8240 C.2   383  UQ2383      0.2140
      3  C3        60.7060   68.7220  141.6250 C.2   383  UQ2383      0.2140
      4  C4        60.4060   69.5800  142.8190 C.2   383  UQ2383      0.2282
      5  C5        61.3640   70.6510  143.2530 C.2   383  UQ2383      0.0198
      6  C6        62.6820   70.8550  142.5480 C.2   383  UQ2383      0.0235
      7  CM2       61.5710   68.2090  138.5360 C.3   383  UQ2383      0.2528
      8  CM3       58.7180   68.4360  140.4860 C.3   383  UQ2383      0.2528
      9  CM5       60.9740   71.5380  144.3980 C.3   383  UQ2383      0.0343
     10  C7        63.6570   71.9830  143.0240 C.3   383  UQ2383      0.0548
     11  C8        64.0300   71.9470  144.5420 C.2   383  UQ2383     -0.0298
     12  C9        63.8460   73.0080  145.5020 C.2   383  UQ2383     -0.0475
     13  C10       63.2360   74.3320  145.1000 C.3   383  UQ2383      0.0260
     14  C11       64.1500   72.8240  147.0010 C.3   383  UQ2383      0.0264
     15  C12       65.5330   72.2280  147.3050 C.3   383  UQ2383      0.0297
     16  C13       66.2390   73.0210  148.4060 C.2   383  UQ2383     -0.0342
     17  C14       67.5690   72.7970  148.8170 C.2   383  UQ2383     -0.0478
     18  C15       68.1620   73.6880  149.8980 C.3   383  UQ2383      0.0260
     19  C16       68.4350   71.7360  148.1730 C.3   383  UQ2383      0.0260
     20  O1        64.0750   70.1040  140.6730 O.2   383  UQ2383     -0.2835
     21  O2        62.3630   68.0890  139.7360 O.2   383  UQ2383     -0.4652
     22  O3        59.7480   67.7910  141.2420 O.2   383  UQ2383     -0.4652
     23  O4        59.3150   69.3940  143.4420 O.2   383  UQ2383     -0.2836
@<TRIPOS>BOND
     1     7    21    1
     2    21     2    1
     3     8    22    1
     4    20     1    2
     5     2     1    1
     6     2     3    2
     7    22     3    1
     8     1     6    1
     9     3     4    1
    10     6    10    1
    11     6     5    2
    12     4     5    1
    13     4    23    2
    14    10    11    1
    15     5     9    1
    16    11    12    2
    17    13    12    1
    18    12    14    1
    19    14    15    1
    20    15    16    1
    21    19    17    1
    22    16    17    2
    23    17    18    1
