@<TRIPOS>MOLECULE
1sqq_OST_C_1.pdb
 22 23 0 0 0
SMALL
GASTEIGER

@<TRIPOS>ATOM
      1  C5        66.9710   60.6950  167.6360 C.3   384  OST384      0.2560
      2  O1        68.0210   59.9850  168.3810 O.3   384  OST384     -0.4413
      3  C1        67.6520   58.9220  169.1640 C.2   384  OST384      0.3444
      4  O3        66.4620   58.6140  169.2520 O.2   384  OST384     -0.2448
      5  C2        68.7090   58.3480  169.9920 C.2   384  OST384      0.1125
      6  C3        69.7140   59.2050  170.2050 C.2   384  OST384      0.1788
      7  O2        70.5170   58.9540  171.1770 O.2   384  OST384     -0.4682
      8  C4        71.4390   60.0150  171.3910 C.3   384  OST384      0.2526
      9  C6        68.5800   56.9750  170.6280 C.ar  384  OST384      0.0093
     10  C11       67.8510   56.8160  171.8800 C.ar  384  OST384      0.0003
     11  C7        69.0740   55.7330  170.0120 C.ar  384  OST384      0.0003
     12  C8        69.0330   54.4840  170.7290 C.ar  384  OST384      0.0000
     13  C9        68.3360   54.3910  171.9600 C.ar  384  OST384      0.0000
     14  C10       67.7600   55.5550  172.5470 C.ar  384  OST384      0.0000
     15  C12       69.7730   55.7930  168.7330 C.2   384  OST384      0.0000
     16  C13       69.5290   54.8800  167.7650 C.2   384  OST384      0.0000
     17  C14       70.3550   54.7780  166.5650 C.ar  384  OST384      0.0000
     18  C15       70.9670   55.9480  165.9730 C.ar  384  OST384      0.0000
     19  C16       71.7400   55.8270  164.7720 C.ar  384  OST384      0.0000
     20  C19       70.4770   53.5160  165.9190 C.ar  384  OST384      0.0000
     21  C18       71.2340   53.3940  164.7120 C.ar  384  OST384      0.0000
     22  C17       71.8820   54.5450  164.1450 C.ar  384  OST384      0.0000
@<TRIPOS>BOND
     1    22    21   ar
     2    22    19   ar
     3    21    20   ar
     4    19    18   ar
     5    20    17   ar
     6    18    17   ar
     7    17    16    1
     8     1     2    1
     9    16    15    2
    10     2     3    1
    11    15    11    1
    12     3     4    2
    13     3     5    1
    14     5     6    2
    15     5     9    1
    16    11     9   ar
    17    11    12   ar
    18     6     7    1
    19     9    10   ar
    20    12    13   ar
    21     7     8    1
    22    10    14   ar
    23    13    14   ar
