@<TRIPOS>MOLECULE
1sqt_UI3_A_1.pdb
 24 26 0 0 0
SMALL
GASTEIGER

@<TRIPOS>ATOM
      1  C1        22.8630   15.2860   32.9690 C.ar  1001  UI31001     0.0366
      2  C2        21.6050   15.5170   32.3500 C.ar  1001  UI31001     0.0031
      3  C3        20.8180   16.6100   32.7350 C.ar  1001  UI31001    -0.0001
      4  C4        21.2960   17.5270   33.7420 C.ar  1001  UI31001    -0.0007
      5  C5        22.5690   17.3060   34.3480 C.ar  1001  UI31001     0.0144
      6  C6        23.3240   16.1860   33.9870 C.ar  1001  UI31001     0.1348
      7  C9        19.5460   16.7560   32.1380 C.ar  1001  UI31001     0.0002
      8  C10       18.7320   17.7980   32.5450 C.ar  1001  UI31001     0.0080
      9  C11       19.1780   18.6980   33.5390 C.ar  1001  UI31001     0.0975
     10  C12       20.4510   18.5740   34.1440 C.ar  1001  UI31001     0.0078
     11  C16       18.3140   19.7900   33.9540 C.2   1001  UI31001     0.4766
     12  N17       16.9780   19.7470   33.6840 N.pl3 1001  UI31001     0.2047
     13  N18       18.7730   20.8310   34.5960 N.pl3 1001  UI31001     0.2047
     14  O19       24.5530   16.0550   34.7060 O.3   1001  UI31001    -0.4717
     15  C20       25.5590   15.1380   34.2870 C.3   1001  UI31001     0.2525
     16  C24       23.2310   18.2790   35.2620 C.3   1001  UI31001     0.0637
     17  C25       23.8430   17.9820   36.4130 C.3   1001  UI31001     0.1207
     18  N26       23.9820   19.2160   37.2050 N.3   1001  UI31001    -0.0858
     19  N27       24.1440   20.1530   36.0980 N.3   1001  UI31001    -0.1266
     20  C28       23.3510   19.7130   35.0840 C.3   1001  UI31001     0.1155
     21  S34       24.9760   19.1860   38.6680 S.O2  1001  UI31001     0.0590
     22  O35       24.8390   20.5130   39.2400 O.2   1001  UI31001    -0.1561
     23  O36       26.2700   18.8100   38.1540 O.2   1001  UI31001    -0.1561
     24  C37       24.4350   17.8920   39.7690 C.3   1001  UI31001     0.1975
@<TRIPOS>BOND
     1     7     8   ar
     2     7     3   ar
     3     2     3   ar
     4     2     1   ar
     5     8     9   ar
     6     3     4   ar
     7     1     6   ar
     8     9    11    1
     9     9    10   ar
    10    12    11    2
    11     4    10   ar
    12     4     5   ar
    13    11    13    1
    14     6     5   ar
    15     6    14    1
    16    15    14    1
    17     5    16    1
    18    20    16    1
    19    20    19    1
    20    16    17    1
    21    19    18    1
    22    17    18    1
    23    18    21    1
    24    23    21    2
    25    21    22    2
    26    21    24    1
