@<TRIPOS>MOLECULE
1sqv_UQ2_C_1.pdb
 23 23 0 0 0
SMALL
GASTEIGER

@<TRIPOS>ATOM
      1  C1        61.0290   70.1140  141.1350 C.2   384  UQ2384      0.1990
      2  C2        60.9680   69.0670  140.0680 C.3   384  UQ2384      0.2105
      3  C3        62.1240   68.9040  139.1360 C.3   384  UQ2384      0.2104
      4  C4        63.3660   69.6790  139.4240 C.2   384  UQ2384      0.1987
      5  C5        63.4250   70.7020  140.5130 C.2   384  UQ2384      0.0145
      6  C6        62.2470   70.9340  141.4200 C.2   384  UQ2384      0.0182
      7  CM2       59.6630   67.1050  140.0280 C.3   384  UQ2384      0.1747
      8  CM3       61.3790   68.2140  137.0000 C.3   384  UQ2384      0.1747
      9  CM5       64.7120   71.4700  140.6080 C.3   384  UQ2384      0.0339
     10  C7        62.1430   72.0070  142.5140 C.3   384  UQ2384      0.0544
     11  C8        63.3620   72.2700  143.4150 C.2   384  UQ2384     -0.0298
     12  C9        63.4620   73.0660  144.5720 C.2   384  UQ2384     -0.0475
     13  C10       62.2880   73.8270  145.1560 C.3   384  UQ2384      0.0260
     14  C11       64.8530   73.2180  145.1750 C.3   384  UQ2384      0.0264
     15  C12       64.9660   73.2200  146.7040 C.3   384  UQ2384      0.0297
     16  C13       66.3650   72.7390  147.1120 C.2   384  UQ2384     -0.0342
     17  C14       67.4530   73.5450  147.4820 C.2   384  UQ2384     -0.0478
     18  C15       68.7550   72.8720  147.8520 C.3   384  UQ2384      0.0260
     19  C16       67.3950   75.0590  147.5200 C.3   384  UQ2384      0.0260
     20  O1        59.9860   70.3150  141.7840 O.2   384  UQ2384     -0.2890
     21  O2        59.7440   68.5050  139.7860 O.3   384  UQ2384     -0.3429
     22  O3        62.1550   67.9250  138.1630 O.3   384  UQ2384     -0.3429
     23  O4        64.3710   69.4900  138.7070 O.2   384  UQ2384     -0.2890
@<TRIPOS>BOND
     1     8    22    1
     2    22     3    1
     3    23     4    2
     4     3     4    1
     5     3     2    1
     6     4     5    1
     7    21     7    1
     8    21     2    1
     9     2     1    1
    10     5     9    1
    11     5     6    2
    12     1     6    1
    13     1    20    2
    14     6    10    1
    15    10    11    1
    16    11    12    2
    17    12    13    1
    18    12    14    1
    19    14    15    1
    20    15    16    1
    21    16    17    2
    22    17    19    1
    23    17    18    1
