@<TRIPOS>MOLECULE
1sqv_UHD_C_1.pdb
 23 24 0 0 0
SMALL
GASTEIGER

@<TRIPOS>ATOM
      1  C2        69.1960   55.1800  171.5760 C.3   383  UHD383      0.1835
      2  N3        69.4710   55.4410  170.2590 N.2   383  UHD383     -0.2586
      3  C4        70.0320   54.3560  169.6330 C.2   383  UHD383      0.1069
      4  C7        70.2310   53.2200  170.4060 C.3   383  UHD383      0.1563
      5  C7A       70.7490   52.0640  169.8420 C.2   383  UHD383      0.2232
      6  O7        70.8860   51.0930  170.5560 O.2   383  UHD383     -0.2870
      7  C6        71.1220   52.0600  168.4870 C.2   383  UHD383      0.2155
      8  O6        71.6050   51.0390  168.0270 O.2   383  UHD383     -0.2878
      9  C4A       70.4110   54.3690  168.2860 C.2   383  UHD383      0.1943
     10  O4        70.2300   55.4020  167.6770 O.2   383  UHD383     -0.2896
     11  C5        70.9140   53.1990  167.6780 C.3   383  UHD383      0.1278
     12  C8        71.3800   53.1560  166.2250 C.3   383  UHD383      0.0156
     13  C9        70.3410   53.4690  165.1430 C.3   383  UHD383      0.0009
     14  C10       70.9270   53.3400  163.7340 C.3   383  UHD383      0.0000
     15  C11       70.8770   54.6480  162.9500 C.3   383  UHD383      0.0000
     16  C12       72.0800   54.8820  162.0340 C.3   383  UHD383      0.0000
     17  C13       72.7580   56.2260  162.3160 C.3   383  UHD383      0.0000
     18  C14       73.4510   56.8220  161.0930 C.3   383  UHD383      0.0000
     19  C15       74.8320   57.3940  161.4140 C.3   383  UHD383      0.0000
     20  C16       75.8790   56.9090  160.4090 C.3   383  UHD383      0.0000
     21  C17       76.4190   58.0400  159.5340 C.3   383  UHD383      0.0000
     22  C18       75.6620   58.2140  158.2200 C.3   383  UHD383      0.0000
     23  S1        69.6440   53.5130  172.0630 S.3   383  UHD383     -0.1010
@<TRIPOS>BOND
     1    22    21    1
     2    21    20    1
     3    20    19    1
     4    18    19    1
     5    18    17    1
     6    16    17    1
     7    16    15    1
     8    15    14    1
     9    14    13    1
    10    13    12    1
    11    12    11    1
    12    10     9    2
    13    11     9    1
    14    11     7    1
    15     8     7    2
    16     9     3    1
    17     7     5    1
    18     3     2    2
    19     3     4    1
    20     5     4    1
    21     5     6    2
    22     2     1    1
    23     4    23    1
    24     1    23    1
