@<TRIPOS>MOLECULE
1sqv_HEM_C_1.pdb
 43 50 0 0 0
SMALL
GASTEIGER

@<TRIPOS>ATOM
      1  CHA       67.5980   69.8110  167.4120 C.2   381  HEM381      0.0000
      2  CHB       70.1190   73.5670  165.4040 C.2   381  HEM381      0.0000
      3  CHC       69.0860   71.7020  160.9760 C.2   381  HEM381      0.0000
      4  CHD       67.5590   67.5210  163.1200 C.2   381  HEM381      0.0000
      5  C1A       68.3190   70.9900  167.2170 C.2   381  HEM381      0.0000
      6  C2A       68.6560   71.9510  168.2660 C.2   381  HEM381      0.0000
      7  C3A       69.3290   72.9870  167.6940 C.2   381  HEM381      0.0000
      8  C4A       69.4080   72.7450  166.2560 C.2   381  HEM381      0.0000
      9  CMA       69.8470   74.1900  168.4170 C.3   381  HEM381      0.0000
     10  CAA       68.4010   71.8290  169.7700 C.3   381  HEM381      0.0000
     11  CBA       66.9570   72.2380  170.1740 C.3   381  HEM381      0.0000
     12  CGA       66.0660   71.1410  170.0880 C.2   381  HEM381      0.0000
     13  O1A       66.3990   69.9960  170.4650 O.co2 381  HEM381      0.0000
     14  O2A       64.9330   71.2830  169.5840 O.co2 381  HEM381      0.0000
     15  C1B       70.0390   73.3150  164.0410 C.ar  381  HEM381      0.0000
     16  C2B       70.5740   74.2400  163.0630 C.ar  381  HEM381      0.0000
     17  C3B       70.2570   73.7200  161.8440 C.ar  381  HEM381      0.0000
     18  C4B       69.5830   72.4440  162.0360 C.ar  381  HEM381      0.0000
     19  CMB       71.3100   75.5220  163.3440 C.3   381  HEM381      0.0000
     20  CAB       70.6560   74.2740  160.5140 C.3   381  HEM381      0.0000
     21  CBB       72.1690   74.0030  160.3850 C.3   381  HEM381      0.0000
     22  C1C       68.6910   70.3940  161.2210 C.2   381  HEM381      0.0000
     23  C2C       68.4720   69.4350  160.1640 C.2   381  HEM381      0.0000
     24  C3C       68.0520   68.2960  160.7500 C.2   381  HEM381      0.0000
     25  C4C       67.9760   68.5350  162.1800 C.2   381  HEM381      0.0000
     26  CMC       68.7170   69.6070  158.7000 C.3   381  HEM381      0.0000
     27  CAC       67.7440   66.9970  160.0500 C.3   381  HEM381      0.0000
     28  CBC       66.2300   66.8890  159.7500 C.3   381  HEM381      0.0000
     29  C1D       67.3010   67.9140  164.4270 C.ar  381  HEM381      0.0000
     30  C2D       66.6900   67.0440  165.4040 C.ar  381  HEM381      0.0000
     31  C3D       66.7040   67.7120  166.5760 C.ar  381  HEM381      0.0000
     32  C4D       67.3490   68.9330  166.3760 C.ar  381  HEM381      0.0000
     33  CMD       66.1690   65.6550  165.1900 C.3   381  HEM381      0.0000
     34  CAD       66.1930   67.1800  167.9050 C.3   381  HEM381      0.0000
     35  CBD       64.6730   67.4130  168.0390 C.3   381  HEM381      0.0000
     36  CGD       64.3230   67.0840  169.3610 C.2   381  HEM381      0.0000
     37  O1D       64.1640   65.8850  169.6920 O.co2 381  HEM381      0.0000
     38  O2D       64.2250   67.9980  170.2090 O.co2 381  HEM381      0.0000
     39  NA        68.8440   71.5050  166.0480 N.2   381  HEM381      0.0000
     40  NB        69.3680   72.2760  163.3920 N.ar  381  HEM381      0.0000
     41  NC        68.2920   69.8510  162.4340 N.2   381  HEM381      0.0000
     42  ND        67.8110   69.0110  165.0910 N.ar  381  HEM381      0.0000
     43 FE         68.5650   70.6540  164.2540 Fe    381  HEM381      0.0000
@<TRIPOS>BOND
     1    26    23    1
     2    28    27    1
     3    27    24    1
     4    23    24    2
     5    23    22    1
     6    21    20    1
     7    20    17    1
     8    24    25    1
     9     3    22    2
    10     3    18    1
    11    22    41    1
    12    17    18   ar
    13    17    16   ar
    14    18    40   ar
    15    25    41    2
    16    25     4    1
    17    41    43    1
    18    16    19    1
    19    16    15   ar
    20     4    29    2
    21    40    15   ar
    22    40    43    1
    23    15     2    1
    24    43    42    1
    25    43    39    1
    26    29    42   ar
    27    29    30   ar
    28    42    32   ar
    29    33    30    1
    30     2     8    2
    31    30    31   ar
    32    39     8    1
    33    39     5    2
    34     8     7    1
    35    32    31   ar
    36    32     1    2
    37    31    34    1
    38     5     1    1
    39     5     6    1
    40     7     6    2
    41     7     9    1
    42    34    35    1
    43    35    36    1
    44     6    10    1
    45    36    37   ar
    46    36    38   ar
    47    14    12   ar
    48    10    11    1
    49    12    11    1
    50    12    13   ar
