@<TRIPOS>MOLECULE
1sqx_HEM_C_1.pdb
 43 50 0 0 0
SMALL
GASTEIGER

@<TRIPOS>ATOM
      1  CHA       65.5340   63.9340  142.2580 C.2   381  HEM381      0.0000
      2  CHB       66.5780   66.8980  146.0700 C.2   381  HEM381      0.0000
      3  CHC       67.7020   62.9510  148.7140 C.2   381  HEM381      0.0000
      4  CHD       68.0480   60.3650  144.4660 C.2   381  HEM381      0.0000
      5  C1A       65.5030   64.9880  143.1750 C.2   381  HEM381      0.0000
      6  C2A       64.8910   66.3020  142.9320 C.2   381  HEM381      0.0000
      7  C3A       65.2200   67.1160  143.9800 C.2   381  HEM381      0.0000
      8  C4A       65.9660   66.3340  144.9670 C.2   381  HEM381      0.0000
      9  CMA       64.8140   68.5570  144.1180 C.3   381  HEM381      0.0000
     10  CAA       64.0680   66.8100  141.7330 C.3   381  HEM381      0.0000
     11  CBA       63.0230   65.8210  141.1220 C.3   381  HEM381      0.0000
     12  CGA       62.2160   65.1800  142.0800 C.2   381  HEM381      0.0000
     13  O1A       61.4270   65.8190  142.7770 O.co2 381  HEM381      0.0000
     14  O2A       62.3120   63.9610  142.2490 O.co2 381  HEM381      0.0000
     15  C1B       66.9230   66.0540  147.1030 C.ar  381  HEM381      0.0000
     16  C2B       67.1350   66.5110  148.4520 C.ar  381  HEM381      0.0000
     17  C3B       67.5020   65.4250  149.1850 C.ar  381  HEM381      0.0000
     18  C4B       67.5300   64.2630  148.2840 C.ar  381  HEM381      0.0000
     19  CMB       67.0220   67.9570  148.9220 C.3   381  HEM381      0.0000
     20  CAB       67.7160   65.4040  150.6930 C.3   381  HEM381      0.0000
     21  CBB       69.0300   66.1280  151.0910 C.3   381  HEM381      0.0000
     22  C1C       67.8450   61.9140  147.7690 C.2   381  HEM381      0.0000
     23  C2C       68.2230   60.5510  148.1290 C.2   381  HEM381      0.0000
     24  C3C       68.3020   59.8180  146.9580 C.2   381  HEM381      0.0000
     25  C4C       67.8950   60.7170  145.8690 C.2   381  HEM381      0.0000
     26  CMC       68.4470   60.0920  149.5460 C.3   381  HEM381      0.0000
     27  CAC       68.6400   58.3390  146.7150 C.3   381  HEM381      0.0000
     28  CBC       69.4760   57.5930  147.7870 C.3   381  HEM381      0.0000
     29  C1D       67.4010   61.1580  143.5290 C.ar  381  HEM381      0.0000
     30  C2D       67.1040   60.7180  142.1850 C.ar  381  HEM381      0.0000
     31  C3D       66.4210   61.7250  141.5620 C.ar  381  HEM381      0.0000
     32  C4D       66.3020   62.8010  142.4890 C.ar  381  HEM381      0.0000
     33  CMD       67.5310   59.4040  141.5870 C.3   381  HEM381      0.0000
     34  CAD       65.8760   61.6610  140.1110 C.3   381  HEM381      0.0000
     35  CBD       64.3610   61.2840  140.1310 C.3   381  HEM381      0.0000
     36  CGD       63.7420   61.1550  138.8630 C.2   381  HEM381      0.0000
     37  O1D       62.8040   60.3500  138.7350 O.co2 381  HEM381      0.0000
     38  O2D       64.0200   61.9060  137.9060 O.co2 381  HEM381      0.0000
     39  NA        66.2320   65.1440  144.3460 N.2   381  HEM381      0.0000
     40  NB        67.1280   64.6840  147.0300 N.ar  381  HEM381      0.0000
     41  NC        67.7550   61.9990  146.3740 N.2   381  HEM381      0.0000
     42  ND        66.8720   62.4260  143.6960 N.ar  381  HEM381      0.0000
     43 FE         67.0500   63.5760  145.3390 Fe    381  HEM381      0.0000
@<TRIPOS>BOND
     1    38    36   ar
     2    37    36   ar
     3    36    35    1
     4    34    35    1
     5    34    31    1
     6    11    10    1
     7    11    12    1
     8    31    30   ar
     9    31    32   ar
    10    33    30    1
    11    10     6    1
    12    12    14   ar
    13    12    13   ar
    14    30    29   ar
    15     1    32    2
    16     1     5    1
    17    32    42   ar
    18     6     5    1
    19     6     7    2
    20     5    39    2
    21    29    42   ar
    22    29     4    2
    23    42    43    1
    24     7     9    1
    25     7     8    1
    26    39     8    1
    27    39    43    1
    28     4    25    1
    29     8     2    2
    30    43    41    1
    31    43    40    1
    32    25    41    2
    33    25    24    1
    34     2    15    1
    35    41    22    1
    36    27    24    1
    37    27    28    1
    38    24    23    2
    39    40    15   ar
    40    40    18   ar
    41    15    16   ar
    42    22    23    1
    43    22     3    2
    44    23    26    1
    45    18     3    1
    46    18    17   ar
    47    16    19    1
    48    16    17   ar
    49    17    20    1
    50    20    21    1
