@<TRIPOS>MOLECULE
1sqx_UQ2_C_1.pdb
 23 23 0 0 0
SMALL
GASTEIGER

@<TRIPOS>ATOM
      1  C1        61.7380   70.4050  141.3970 C.2   380  UQ2380      0.1990
      2  C2        61.9300   69.4260  140.2580 C.3   380  UQ2380      0.2105
      3  C3        63.2510   69.3460  139.5370 C.3   380  UQ2380      0.2104
      4  C4        64.4310   70.0800  140.1290 C.2   380  UQ2380      0.1987
      5  C5        64.2380   71.0680  141.2620 C.2   380  UQ2380      0.0145
      6  C6        62.8850   71.2300  141.9350 C.2   380  UQ2380      0.0182
      7  CM2       60.3000   67.7080  140.4560 C.3   380  UQ2380      0.1747
      8  CM3       64.0450   68.7050  137.3330 C.3   380  UQ2380      0.1747
      9  CM5       65.4310   71.8790  141.6980 C.3   380  UQ2380      0.0339
     10  C7        62.6340   72.2430  143.0900 C.3   380  UQ2380      0.0544
     11  C8        63.5810   72.0440  144.3010 C.2   380  UQ2380     -0.0298
     12  C9        63.7550   72.9020  145.4130 C.2   380  UQ2380     -0.0475
     13  C10       62.8690   74.1150  145.6730 C.3   380  UQ2380      0.0260
     14  C11       64.8120   72.5270  146.4450 C.3   380  UQ2380      0.0264
     15  C12       66.0790   73.3780  146.2770 C.3   380  UQ2380      0.0297
     16  C13       67.2130   72.8900  147.1960 C.2   380  UQ2380     -0.0342
     17  C14       68.1700   73.7510  147.7820 C.2   380  UQ2380     -0.0478
     18  C15       69.2600   73.1560  148.6340 C.3   380  UQ2380      0.0260
     19  C16       68.1620   75.2610  147.5900 C.3   380  UQ2380      0.0260
     20  O1        60.5980   70.5210  141.8890 O.2   380  UQ2380     -0.2890
     21  O2        60.8310   68.7830  139.6910 O.3   380  UQ2380     -0.3429
     22  O3        63.3910   68.3530  138.5580 O.3   380  UQ2380     -0.3429
     23  O4        65.5720   69.9760  139.6020 O.2   380  UQ2380     -0.2890
@<TRIPOS>BOND
     1     8    22    1
     2    22     3    1
     3     3     4    1
     4     3     2    1
     5    23     4    2
     6    21     2    1
     7    21     7    1
     8     4     5    1
     9     2     1    1
    10     5     9    1
    11     5     6    2
    12     1    20    2
    13     1     6    1
    14     6    10    1
    15    10    11    1
    16    11    12    2
    17    12    13    1
    18    12    14    1
    19    15    14    1
    20    15    16    1
    21    16    17    2
    22    19    17    1
    23    17    18    1
