@<TRIPOS>MOLECULE
1sqx_SMA_C_1.pdb
 37 38 0 0 0
SMALL
GASTEIGER

@<TRIPOS>ATOM
      1  C2        70.6740   53.5670  165.6350 C.ar  383  SMA383      0.1220
      2  C3        71.2080   52.3630  166.1890 C.ar  383  SMA383      0.0475
      3  C3M       71.7810   51.2580  165.3050 C.3   383  SMA383      0.0373
      4  C4        71.2010   52.1870  167.6110 C.ar  383  SMA383      0.2002
      5  C4A       70.6590   53.2000  168.4660 C.ar  383  SMA383      0.1105
      6  C5        70.6020   53.1030  169.9040 C.ar  383  SMA383      0.1479
      7  C5M       70.2320   51.3940  171.5410 C.3   383  SMA383      0.2525
      8  C6        70.1130   54.2030  170.6590 C.ar  383  SMA383      0.0774
      9  C7        69.5320   55.3120  170.0340 C.ar  383  SMA383      0.1835
     10  C7M       67.7140   56.3990  171.1060 C.3   383  SMA383      0.2526
     11  C8        69.6020   55.4040  168.6270 C.ar  383  SMA383      0.2636
     12  C8A       70.1540   54.3660  167.8570 C.ar  383  SMA383      0.1925
     13  C9        70.5460   53.8510  164.1310 C.3   383  SMA383      0.0644
     14  C10       71.8580   54.3150  163.4750 C.3   383  SMA383      0.0104
     15  C11       71.7250   55.2430  162.2260 C.3   383  SMA383      0.0277
     16  C12       73.0750   55.5180  161.4850 C.3   383  SMA383      0.1175
     17  C13       73.9920   56.5410  162.2440 C.3   383  SMA383      0.0544
     18  C14       75.4310   56.7710  161.6520 C.3   383  SMA383      0.1179
     19  C15       76.2100   57.9320  162.2260 C.3   383  SMA383      0.0343
     20  C16       77.4540   57.8290  162.6380 C.3   383  SMA383      0.0285
     21  C17       78.0100   59.0860  162.9890 C.2   383  SMA383     -0.0264
     22  C18       79.2230   59.2800  163.4890 C.2   383  SMA383     -0.0092
     23  C19       79.6180   60.6420  163.7830 C.2   383  SMA383     -0.0264
     24  C20       80.8410   60.8690  164.2980 C.2   383  SMA383     -0.0300
     25  C21       81.3980   62.2490  164.6110 C.3   383  SMA383      0.0304
     26  C22       70.6110   54.8970  161.2320 C.3   383  SMA383      0.0025
     27  C23       73.9150   53.9070  159.8290 C.3   383  SMA383      0.1740
     28  C24       73.2350   57.8210  162.6300 C.3   383  SMA383      0.0050
     29  C25       75.2170   58.0320  159.4820 C.3   383  SMA383      0.1740
     30  C26       78.6450   61.7600  163.4620 C.3   383  SMA383      0.0307
     31  O1        70.1430   54.4990  166.4840 O.2   383  SMA383     -0.4544
     32  O4        71.6670   51.1420  168.0840 O.2   383  SMA383     -0.2866
     33  O5        71.1180   51.9970  170.5770 O.3   383  SMA383     -0.4711
     34  O7        69.1100   56.3830  170.8070 O.3   383  SMA383     -0.4680
     35  O8        69.1320   56.5080  167.9810 O.3   383  SMA383     -0.2800
     36  O12       73.7590   54.2720  161.2130 O.3   383  SMA383     -0.3535
     37  O14       75.5210   56.8050  160.1910 O.3   383  SMA383     -0.3535
@<TRIPOS>BOND
     1    29    37    1
     2    27    36    1
     3    37    18    1
     4    36    16    1
     5    26    15    1
     6    16    15    1
     7    16    17    1
     8    18    19    1
     9    18    17    1
    10    19    20    1
    11    15    14    1
    12    17    28    1
    13    20    21    1
    14    21    22    2
    15    30    23    1
    16    14    13    1
    17    22    23    1
    18    23    24    2
    19    13     1    1
    20    24    25    1
    21     3     2    1
    22     1     2   ar
    23     1    31   ar
    24     2     4   ar
    25    31    12   ar
    26     4    32    2
    27     4     5   ar
    28    12     5   ar
    29    12    11   ar
    30    35    11    1
    31     5     6   ar
    32    11     9   ar
    33     6    33    1
    34     6     8   ar
    35     9     8   ar
    36     9    34    1
    37    33     7    1
    38    34    10    1
