@<TRIPOS>MOLECULE
1sqz_III_B_1.pdb
 40 41 0 0 0
SMALL
GASTEIGER

@<TRIPOS>ATOM
      1  C1         4.9810   16.9500  -13.2720 C.3     1  PHQ1        0.3488
      2  O1         4.7590   18.0410  -13.7720 O.3     1  PHQ1       -0.2324
      3  O2         4.1450   15.8320  -13.6700 O.3     1  PHQ1       -0.3102
      4  C2         4.4560   14.5420  -13.1660 C.3     1  PHQ1        0.1727
      5  C3         3.4560   13.5180  -13.6380 C.ar    1  PHQ1        0.0074
      6  C4         3.6250   12.2050  -13.2210 C.ar    1  PHQ1       -0.0019
      7  C5         2.7310   11.2270  -13.6350 C.ar    1  PHQ1       -0.0002
      8  C6         1.6630   11.5630  -14.4630 C.ar    1  PHQ1       -0.0000
      9  C7         1.4950   12.8790  -14.8790 C.ar    1  PHQ1       -0.0002
     10  C8         2.3900   13.8600  -14.4670 C.ar    1  PHQ1       -0.0019
     11  N          5.9450   17.6950  -12.7750 N.4     2  ILE2       -0.1017
     12  CA         6.5700   18.4160  -11.6340 C.3     2  ILE2        0.1667
     13  C          6.4880   19.9270  -11.8110 C.2     2  ILE2        0.2587
     14  O          6.8490   20.4490  -12.8700 O.2     2  ILE2       -0.2718
     15  CB         8.0470   17.9980  -11.5000 C.3     2  ILE2        0.0261
     16  CG1        8.1280   16.5770  -10.9350 C.3     2  ILE2        0.0019
     17  CG2        8.8580   19.0730  -10.7330 C.3     2  ILE2        0.0020
     18  CD1        7.8570   15.5410  -12.0170 C.3     2  ILE2        0.0001
     19  N          5.9150   20.6000  -10.8150 N.am    3  ALA3       -0.1966
     20  CA         5.9300   22.0590  -10.7090 C.3     3  ALA3        0.1728
     21  C          7.1610   22.5750   -9.9800 C.2     3  ALA3        0.2616
     22  O          7.5790   22.0100   -8.9740 O.2     3  ALA3       -0.2715
     23  CB         4.7320   22.5090   -9.9490 C.3     3  ALA3        0.0334
     24  N          7.6990   23.6940  -10.4470 N.am    4  ARG4       -0.1963
     25  CA         8.8920   24.2640   -9.8330 C.3     4  ARG4        0.1729
     26  C          8.8110   24.8500   -8.4400 C.2     4  ARG4        0.2616
     27  O          7.7850   24.8550   -7.7670 O.2     4  ARG4       -0.2715
     28  CB         9.4710   25.3510  -10.7170 C.3     4  ARG4        0.0348
     29  CG        10.2050   24.7840  -11.8620 C.3     4  ARG4        0.0492
     30  CD        11.4930   25.4820  -12.1160 C.3     4  ARG4        0.2205
     31  NE        11.4520   26.2470  -13.3480 N.pl3   4  ARG4       -0.0865
     32  CZ        12.4910   26.3790  -14.1580 C.cat   4  ARG4        0.5346
     33  NH1       13.6480   25.8080  -13.8420 N.pl3   4  ARG4        0.1354
     34  NH2       12.3880   27.0840  -15.2740 N.pl3   4  ARG4        0.1354
     35  N          9.9870   25.3290   -8.0570 N.am    5  SER5       -0.1950
     36  CA        10.2830   25.9970   -6.8120 C.3     5  SER5        0.1924
     37  C         11.7290   26.4300   -6.9940 C.2     5  SER5        0.2314
     38  O         12.4210   25.9040   -7.8730 O.2     5  SER5       -0.2863
     39  CB        10.1910   25.0650   -5.6200 C.3     5  SER5        0.2116
     40  OG        10.8900   25.6340   -4.5240 O.3     5  SER5       -0.2180
@<TRIPOS>BOND
     1    34    32    1
     2     9    10   ar
     3     9     8   ar
     4    10     5   ar
     5     8     7   ar
     6    32    33    1
     7    32    31    2
     8     2     1    1
     9     2    11    1
    10     3     1    1
    11     3     4    1
    12     5     6   ar
    13     5     4    1
    14     7     6   ar
    15    31    30    1
    16     1    11    1
    17    14    13    2
    18    11    12    1
    19    30    29    1
    20    18    16    1
    21    29    28    1
    22    13    12    1
    23    13    19   am
    24    12    15    1
    25    15    16    1
    26    15    17    1
    27    19    20    1
    28    28    25    1
    29    20    21    1
    30    20    23    1
    31    24    21   am
    32    24    25    1
    33    21    22    2
    34    25    26    1
    35    26    35   am
    36    26    27    2
    37    35    36    1
    38    38    37    2
    39    37    36    1
    40    36    39    1
    41    39    40    1
