@<TRIPOS>MOLECULE
1sr5_NT2_C_1.pdb
 13 13 0 0 0
SMALL
GASTEIGER

@<TRIPOS>ATOM
      1  S81       53.5300   -8.0060   -2.0540 S.3   602  NT2602      0.0936
      2  O82       53.8200   -7.0540   -1.1110 O.3   602  NT2602     -0.2860
      3  C83       54.6160   -5.9010   -1.4710 C.3   602  NT2602      0.1933
      4  C84       55.7270   -5.8370   -0.3420 C.3   602  NT2602      0.1816
      5  O85       56.5410   -4.6370   -0.5620 O.3   602  NT2602     -0.3237
      6  C86       56.5030   -7.1870   -0.6660 C.3   602  NT2602      0.2141
      7  O87       57.5670   -6.9490   -1.6230 O.3   602  NT2602     -0.2176
      8  C8C       53.6340   -4.7150   -1.6790 C.3   602  NT2602      0.2180
      9  O8D       53.1090   -5.4210   -2.7920 O.3   602  NT2602     -0.2175
     10  C8I       54.5960   -3.5790   -2.1240 C.3   602  NT2602      0.2434
     11  O8J       54.1460   -2.2960   -2.4920 O.3   602  NT2602     -0.2148
     12  C8O       55.9880   -3.4560   -1.3210 C.3   602  NT2602      0.3023
     13  O8P       55.8560   -2.3140   -0.4770 O.3   602  NT2602     -0.1869
@<TRIPOS>BOND
     1     9     8    1
     2    11    10    1
     3    10     8    1
     4    10    12    1
     5     1     2    1
     6     8     3    1
     7     7     6    1
     8     3     2    1
     9     3     4    1
    10    12     5    1
    11    12    13    1
    12     6     4    1
    13     5     4    1
