@<TRIPOS>MOLECULE
1sr7_MOF_A_1.pdb
 35 39 0 0 0
SMALL
GASTEIGER

@<TRIPOS>ATOM
      1  O35       -5.1290  -11.2270   30.4090 O.2   301  MOF301     -0.2866
      2  C34       -4.6810  -10.3470   29.7000 C.2   301  MOF301      0.1948
      3  C33       -5.6140   -9.3250   29.1610 C.2   301  MOF301      0.0378
      4  C32       -3.2830  -10.3920   29.2260 C.2   301  MOF301      0.0339
      5  C29       -2.7470   -9.5110   28.2950 C.2   301  MOF301     -0.0367
      6  C26       -1.2690   -9.6320   27.8690 C.3   301  MOF301      0.0225
      7  C24       -3.5700   -8.3370   27.7820 C.3   301  MOF301      0.0490
      8  C30       -5.0320   -8.3430   28.2080 C.2   301  MOF301     -0.0185
      9  C31       -2.9750   -7.0520   28.3980 C.3   301  MOF301      0.0097
     10  C19       -3.4520   -8.4040   26.2290 C.3   301  MOF301      0.1016
     11 CL25       -4.1590  -10.0120   25.6640 Cl    301  MOF301     -0.1130
     12  C15       -4.3330   -7.3810   25.4680 C.3   301  MOF301      0.1664
     13  O21       -4.3130   -6.0400   25.8700 O.3   301  MOF301     -0.2219
     14  C14       -1.9720   -8.3700   25.7530 C.3   301  MOF301      0.0174
     15  C20       -1.2470   -9.5830   26.3190 C.3   301  MOF301      0.0056
     16  C6        -1.9260   -8.3100   24.2330 C.3   301  MOF301      0.0051
     17  C9        -0.6100   -8.4170   23.4000 C.3   301  MOF301      0.0041
     18  C3        -1.0360   -8.0810   22.0220 C.3   301  MOF301      0.0437
     19  C10       -0.3630   -9.0410   21.0370 C.3   301  MOF301      0.0040
     20  C2        -2.8540   -7.3330   23.4930 C.3   301  MOF301      0.0427
     21  C7        -4.3280   -7.4860   23.9950 C.3   301  MOF301      0.0379
     22  C8        -2.3760   -5.8920   23.8480 C.3   301  MOF301      0.0040
     23  C1        -2.5090   -7.6580   22.0240 C.3   301  MOF301      0.1875
     24  C5        -2.9930   -6.6500   21.1020 C.2   301  MOF301      0.2028
     25  O13       -2.1380   -6.0030   20.4660 O.2   301  MOF301     -0.2911
     26  C12       -4.4140   -6.3560   21.0480 C.3   301  MOF301      0.1626
     27 CL18       -4.7630   -5.4580   19.6100 Cl    301  MOF301     -0.1051
     28  O4        -3.2470   -8.9290   21.8580 O.3   301  MOF301     -0.4434
     29  C11       -3.4640   -9.3390   20.5610 C.2   301  MOF301      0.3765
     30  O17       -3.2350   -8.6950   19.5440 O.2   301  MOF301     -0.2414
     31  C16       -3.8600  -10.7480   20.6120 C.ar  301  MOF301      0.2206
     32  C22       -3.9550  -11.4150   21.7380 C.ar  301  MOF301      0.0475
     33  C27       -4.3420  -12.7320   21.4170 C.ar  301  MOF301      0.0440
     34  C28       -4.4070  -12.7950   20.0210 C.ar  301  MOF301      0.1799
     35  O23       -4.1130  -11.5510   19.4790 O.2   301  MOF301     -0.4439
@<TRIPOS>BOND
     1    35    34   ar
     2    35    31   ar
     3    30    29    2
     4    27    26    1
     5    34    33   ar
     6    25    24    2
     7    29    31    1
     8    29    28    1
     9    31    32   ar
    10    19    18    1
    11    26    24    1
    12    24    23    1
    13    33    32   ar
    14    28    23    1
    15    18    23    1
    16    18    17    1
    17    23    20    1
    18    17    16    1
    19    20    22    1
    20    20    21    1
    21    20    16    1
    22    21    12    1
    23    16    14    1
    24    12    13    1
    25    12    10    1
    26    11    10    1
    27    14    10    1
    28    14    15    1
    29    10     7    1
    30    15     6    1
    31     7     8    1
    32     7     5    1
    33     7     9    1
    34     6     5    1
    35     8     3    2
    36     5     4    2
    37     3     2    1
    38     4     2    1
    39     2     1    2
