@<TRIPOS>MOLECULE
1sre_HAB_A_1.pdb
 18 19 0 0 0
SMALL
GASTEIGER

@<TRIPOS>ATOM
      1  C1        33.4080   12.2270   -5.3890 C.ar  300  HAB300      0.0954
      2  C2        34.4880   11.9540   -4.6170 C.ar  300  HAB300      0.0965
      3  C3        34.4630   10.8210   -3.7710 C.ar  300  HAB300      0.0079
      4  C4        33.3100   10.0230   -3.7440 C.ar  300  HAB300      0.0003
      5  C5        32.1880   10.3440   -4.5100 C.ar  300  HAB300      0.0014
      6  C6        32.2190   11.4550   -5.3560 C.ar  300  HAB300      0.0183
      7  C1'       31.7790   14.3940   -7.8400 C.ar  300  HAB300      0.0893
      8  C2'       32.6310   15.4890   -8.0010 C.ar  300  HAB300      0.0213
      9  C3'       32.2270   16.5010   -8.8540 C.ar  300  HAB300      0.0434
     10  C4'       31.0110   16.4270   -9.5220 C.ar  300  HAB300      0.1958
     11  C5'       30.1510   15.3400   -9.3390 C.ar  300  HAB300      0.0434
     12  C6'       30.5370   14.3020   -8.4820 C.ar  300  HAB300      0.0213
     13  C         35.7370   12.8300   -4.6450 C.2   300  HAB300      0.3891
     14  N1        33.3380   13.4220   -6.2980 N.pl3 300  HAB300     -0.1278
     15  N1'       32.1900   13.3320   -6.9060 N.pl3 300  HAB300     -0.1281
     16  O         36.5450   12.6660   -3.7250 O.co2 300  HAB300     -0.2405
     17  OXT       36.0000   13.8300   -5.6110 O.co2 300  HAB300     -0.2405
     18  O4'       30.6080   17.4910  -10.3380 O.3   300  HAB300     -0.2866
@<TRIPOS>BOND
     1    18    10    1
     2    10    11   ar
     3    10     9   ar
     4    11    12   ar
     5     9     8   ar
     6    12     7   ar
     7     8     7   ar
     8     7    15    1
     9    15    14    1
    10    14     1    1
    11    17    13   ar
    12     1     6   ar
    13     1     2   ar
    14     6     5   ar
    15    13     2    1
    16    13    16   ar
    17     2     3   ar
    18     5     4   ar
    19     3     4   ar
