@<TRIPOS>MOLECULE
1srf_MTB_A_1.pdb
 22 23 0 0 0
SMALL
GASTEIGER

@<TRIPOS>ATOM
      1  C1        32.7660   11.8470   -5.5330 C.ar  300  MTB300      0.0954
      2  C2        33.9610   11.8500   -4.8370 C.ar  300  MTB300      0.0965
      3  C3        34.1700   10.9090   -3.8320 C.ar  300  MTB300      0.0079
      4  C4        33.1870    9.9610   -3.5630 C.ar  300  MTB300      0.0003
      5  C5        31.9790    9.9540   -4.2590 C.ar  300  MTB300      0.0014
      6  C6        31.7620   10.8980   -5.2520 C.ar  300  MTB300      0.0183
      7  C1'       31.0460   13.5980   -8.2700 C.ar  300  MTB300      0.0890
      8  C2'       31.9010   14.7020   -8.3110 C.ar  300  MTB300      0.0169
      9  C3'       31.7380   15.6370   -9.3320 C.ar  300  MTB300      0.0175
     10  C4'       30.7330   15.5000  -10.2850 C.ar  300  MTB300      0.1918
     11  C5'       29.8860   14.3940  -10.2410 C.ar  300  MTB300      0.0431
     12  C6'       30.0630   13.4290   -9.2220 C.ar  300  MTB300      0.0213
     13  C         35.0340   12.9170   -5.0970 C.2   300  MTB300      0.3891
     14  CT3       32.6560   16.8660   -9.2930 C.3   300  MTB300      0.0220
     15  CHV       33.4240   16.8360   -7.9210 C.3   300  MTB300      0.0045
     16  CHW       31.6900   18.0620   -9.2260 C.3   300  MTB300      0.0045
     17  CHX       33.6570   16.8030  -10.4010 C.3   300  MTB300      0.0045
     18  N1        32.4800   12.8410   -6.5980 N.pl3 300  MTB300     -0.1278
     19  N1'       31.3520   12.6390   -7.1800 N.pl3 300  MTB300     -0.1281
     20  O         36.1940   12.8570   -4.2630 O.co2 300  MTB300     -0.2405
     21  OXT       34.9120   13.8230   -5.9100 O.co2 300  MTB300     -0.2405
     22  O4'       30.5850   16.5000  -11.2870 O.3   300  MTB300     -0.2869
@<TRIPOS>BOND
     1    22    10    1
     2    17    14    1
     3    10    11   ar
     4    10     9   ar
     5    11    12   ar
     6     9    14    1
     7     9     8   ar
     8    14    16    1
     9    14    15    1
    10    12     7   ar
    11     8     7   ar
    12     7    19    1
    13    19    18    1
    14    18     1    1
    15    21    13   ar
    16     1     6   ar
    17     1     2   ar
    18     6     5   ar
    19    13     2    1
    20    13    20   ar
    21     2     3   ar
    22     5     4   ar
    23     3     4   ar
