@<TRIPOS>MOLECULE
1srg_MHB_A_1.pdb
 19 20 0 0 0
SMALL
GASTEIGER

@<TRIPOS>ATOM
      1  C1        18.6710    4.8790   12.3170 C.ar  300  MHB300      0.1092
      2  C2        17.4810    5.3830   11.7790 C.ar  300  MHB300      0.0991
      3  C3        17.2580    5.3770   10.3940 C.ar  300  MHB300      0.0082
      4  C4        18.2380    4.8770    9.5460 C.ar  300  MHB300      0.0003
      5  C5        19.4300    4.3740   10.0710 C.ar  300  MHB300      0.0016
      6  C6        19.6500    4.3510   11.4520 C.ar  300  MHB300      0.0211
      7  C1'       20.2750    4.5840   15.6580 C.ar  300  MHB300      0.1028
      8  C2'       19.4700    5.3200   16.5350 C.ar  300  MHB300      0.0198
      9  C3'       19.9040    5.5990   17.8360 C.ar  300  MHB300      0.0186
     10  C4'       21.1600    5.1860   18.2320 C.ar  300  MHB300      0.1918
     11  C5'       22.0820    4.5090   17.4490 C.ar  300  MHB300      0.0433
     12  C6'       21.5460    4.1500   16.0170 C.ar  300  MHB300      0.0242
     13  C         16.3820    5.9900   12.6560 C.2   300  MHB300      0.3893
     14  CM3       19.0310    6.4590   18.7760 C.3   300  MHB300      0.0344
     15  N1        18.8770    4.9020   13.7750 N.2   300  MHB300     -0.1478
     16  N1'       19.8490    4.2670   14.2840 N.2   300  MHB300     -0.1480
     17  O         15.4070    6.3840   12.0150 O.co2 300  MHB300     -0.2405
     18  OXT       16.5390    6.1570   14.0330 O.co2 300  MHB300     -0.2405
     19  O4'       21.5820    5.5240   19.6270 O.3   300  MHB300     -0.2869
@<TRIPOS>BOND
     1     4     5   ar
     2     4     3   ar
     3     5     6   ar
     4     3     2   ar
     5     6     1   ar
     6     2     1   ar
     7     2    13    1
     8    17    13   ar
     9     1    15    1
    10    13    18   ar
    11    15    16    2
    12    16     7    1
    13     7    12   ar
    14     7     8   ar
    15    12    11   ar
    16     8     9   ar
    17    11    10   ar
    18     9    10   ar
    19     9    14    1
    20    10    19    1
