@<TRIPOS>MOLECULE
1srh_MOB_A_1.pdb
 22 23 0 0 0
SMALL
GASTEIGER

@<TRIPOS>ATOM
      1  C1        18.6740    4.6220   11.9500 C.ar  300  MOB300      0.0954
      2  C2        17.5210    5.0800   11.3110 C.ar  300  MOB300      0.0965
      3  C3        17.4750    5.1330    9.9140 C.ar  300  MOB300      0.0079
      4  C4        18.5860    4.7200    9.1770 C.ar  300  MOB300      0.0003
      5  C5        19.7330    4.2310    9.8170 C.ar  300  MOB300      0.0014
      6  C6        19.7820    4.1810   11.2110 C.ar  300  MOB300      0.0183
      7  C1'       20.2660    3.6740   14.9960 C.ar  300  MOB300      0.0953
      8  C2'       19.9260    4.6160   15.9710 C.ar  300  MOB300      0.0585
      9  C3'       20.7630    4.7920   17.0890 C.ar  300  MOB300      0.1818
     10  C4'       21.9220    4.0290   17.2040 C.ar  300  MOB300      0.2628
     11  C5'       22.2580    3.0780   16.2410 C.ar  300  MOB300      0.1818
     12  C6'       21.4230    2.9070   15.1280 C.ar  300  MOB300      0.0585
     13  C         16.3360    5.5950   12.1440 C.2   300  MOB300      0.3891
     14  CHX       21.4950    6.0350   19.0110 C.3   300  MOB300      0.2526
     15  CHZ       24.6080    3.1370   16.4580 C.3   300  MOB300      0.2526
     16  N1        18.7260    4.5350   13.4360 N.pl3 300  MOB300     -0.1278
     17  N1'       19.3660    3.5030   13.8400 N.pl3 300  MOB300     -0.1278
     18  O         15.3970    6.1620   11.5920 O.co2 300  MOB300     -0.2405
     19  OXT       16.3770    5.5010   13.5690 O.co2 300  MOB300     -0.2405
     20  O3'       20.4000    5.7420   18.0700 O.3   300  MOB300     -0.4680
     21  O4'       22.7610    4.1950   18.3510 O.3   300  MOB300     -0.2800
     22  O5'       23.4530    2.3070   16.3700 O.3   300  MOB300     -0.4680
@<TRIPOS>BOND
     1     4     5   ar
     2     4     3   ar
     3     5     6   ar
     4     3     2   ar
     5     6     1   ar
     6     2     1   ar
     7     2    13    1
     8    18    13   ar
     9     1    16    1
    10    13    19   ar
    11    16    17    1
    12    17     7    1
    13     7    12   ar
    14     7     8   ar
    15    12    11   ar
    16     8     9   ar
    17    11    22    1
    18    11    10   ar
    19    22    15    1
    20     9    10   ar
    21     9    20    1
    22    10    21    1
    23    20    14    1
