@<TRIPOS>MOLECULE
1sri_DMB_A_1.pdb
 20 21 0 0 0
SMALL
GASTEIGER

@<TRIPOS>ATOM
      1  C1        18.7390    4.7560   11.9850 C.ar  300  DMB300      0.0954
      2  C2        17.5190    5.1370   11.4530 C.ar  300  DMB300      0.0965
      3  C3        17.2730    5.0360   10.0610 C.ar  300  DMB300      0.0079
      4  C4        18.2830    4.5460    9.2380 C.ar  300  DMB300      0.0003
      5  C5        19.5110    4.1590    9.7820 C.ar  300  DMB300      0.0014
      6  C6        19.7490    4.2570   11.1420 C.ar  300  DMB300      0.0183
      7  C1'       20.5890    4.0840   15.0770 C.ar  300  DMB300      0.0887
      8  C2'       20.2280    4.8620   16.1810 C.ar  300  DMB300      0.0169
      9  C3'       21.1340    5.0440   17.2360 C.ar  300  DMB300      0.0181
     10  C4'       22.3960    4.4560   17.1770 C.ar  300  DMB300      0.1878
     11  C5'       22.7640    3.6660   16.0850 C.ar  300  DMB300      0.0181
     12  C6'       21.8520    3.4780   15.0380 C.ar  300  DMB300      0.0169
     13  C         16.3980    5.7470   12.3030 C.2   300  DMB300      0.3891
     14  CM3       20.7660    5.9060   18.4480 C.3   300  DMB300      0.0344
     15  CM5       24.1600    3.0170   16.0630 C.3   300  DMB300      0.0344
     16  N1        18.9980    4.8460   13.4470 N.pl3 300  DMB300     -0.1278
     17  N1'       19.6300    3.8870   13.9750 N.pl3 300  DMB300     -0.1281
     18  O         15.3260    6.3100   11.5340 O.co2 300  DMB300     -0.2405
     19  OXT       16.4080    5.8770   13.4910 O.co2 300  DMB300     -0.2405
     20  O4'       23.3190    4.6550   18.2530 O.3   300  DMB300     -0.2872
@<TRIPOS>BOND
     1     4     5   ar
     2     4     3   ar
     3     5     6   ar
     4     3     2   ar
     5     6     1   ar
     6     2     1   ar
     7     2    13    1
     8    18    13   ar
     9     1    16    1
    10    13    19   ar
    11    16    17    1
    12    17     7    1
    13    12     7   ar
    14    12    11   ar
    15     7     8   ar
    16    15    11    1
    17    11    10   ar
    18     8     9   ar
    19    10     9   ar
    20    10    20    1
    21     9    14    1
