@<TRIPOS>MOLECULE
1srj_NAB_A_1.pdb
 22 24 0 0 0
SMALL
GASTEIGER

@<TRIPOS>ATOM
      1  C1        33.5660   12.1170   -5.5440 C.ar  142  NAB142      0.1092
      2  C2        34.7230   12.0340   -4.7900 C.ar  142  NAB142      0.0991
      3  C3        34.8700   11.0370   -3.8150 C.ar  142  NAB142      0.0082
      4  C4        33.8130   10.1450   -3.6160 C.ar  142  NAB142      0.0003
      5  C5        32.6470   10.2200   -4.3590 C.ar  142  NAB142      0.0016
      6  C6        32.5050   11.2220   -5.3310 C.ar  142  NAB142      0.0211
      7  C1'       32.1130   14.3990   -8.0550 C.ar  142  NAB142      0.1030
      8  C2'       33.0570   15.4400   -8.1010 C.ar  142  NAB142      0.0242
      9  C3'       32.8800   16.4810   -9.0190 C.ar  142  NAB142      0.0436
     10  C4'       31.7750   16.4910   -9.8770 C.ar  142  NAB142      0.1957
     11  C4A       30.8270   15.4580   -9.8060 C.ar  142  NAB142      0.0405
     12  C5'       29.7170   15.4720  -10.6540 C.ar  142  NAB142      0.0032
     13  C6'       28.7640   14.4560  -10.5620 C.ar  142  NAB142      0.0001
     14  C7'       28.9170   13.4340   -9.6310 C.ar  142  NAB142      0.0001
     15  C8'       30.0650   13.3820   -8.8200 C.ar  142  NAB142      0.0017
     16  C8A       30.9950   14.4200   -8.8970 C.ar  142  NAB142      0.0225
     17  C         35.8740   13.0240   -5.0200 C.2   142  NAB142      0.3893
     18  N1        33.4140   13.1770   -6.5650 N.2   142  NAB142     -0.1478
     19  N1'       32.2810   13.2870   -7.1150 N.2   142  NAB142     -0.1480
     20  O         35.7840   13.8560   -5.9200 O.co2 142  NAB142     -0.2405
     21  OXT       36.9650   12.9190   -4.1440 O.co2 142  NAB142     -0.2405
     22  O4'       31.5830   17.5530  -10.8190 O.3   142  NAB142     -0.2866
@<TRIPOS>BOND
     1    22    10    1
     2    12    13   ar
     3    12    11   ar
     4    13    14   ar
     5    10    11   ar
     6    10     9   ar
     7    11    16   ar
     8    14    15   ar
     9     9     8   ar
    10    16    15   ar
    11    16     7   ar
    12     8     7   ar
    13     7    19    1
    14    19    18    2
    15    18     1    1
    16    20    17   ar
    17     1     6   ar
    18     1     2   ar
    19     6     5   ar
    20    17     2    1
    21    17    21   ar
    22     2     3   ar
    23     5     4   ar
    24     3     4   ar
