@<TRIPOS>MOLECULE
1ss4_GSH_B_1.pdb
 20 19 0 0 0
SMALL
GASTEIGER

@<TRIPOS>ATOM
      1  N1        19.1070   32.4290   -6.6460 N.3   432  GSH432     -0.1159
      2  CA1       19.5740   31.7330   -7.8720 C.3   432  GSH432      0.2164
      3  C1        18.9070   30.3200   -7.9700 C.2   432  GSH432      0.3860
      4  O11       19.5650   29.2750   -8.2070 O.co2 432  GSH432     -0.2437
      5  O12       17.6690   30.2760   -7.8050 O.co2 432  GSH432     -0.2437
      6  CB1       21.1440   31.7210   -7.8060 C.2   432  GSH432      0.0085
      7  CG1       21.9630   31.0700   -8.9850 C.2   432  GSH432      0.0569
      8  CD1       23.4920   31.0280   -8.8410 C.2   432  GSH432      0.2651
      9  OE1       24.1760   30.3460   -9.6310 O.2   432  GSH432     -0.2684
     10  N2        24.0250   31.7560   -7.8070 N.am  432  GSH432     -0.1931
     11  CA2       25.5010   31.7710   -7.5410 C.3   432  GSH432      0.1846
     12  C2        26.0000   30.3630   -7.0010 C.2   432  GSH432      0.2627
     13  O2        25.1560   29.6340   -6.4650 O.2   432  GSH432     -0.2714
     14  CB2       25.7910   32.8630   -6.4820 C.3   432  GSH432      0.0997
     15  SG2       25.1120   32.5000   -4.7950 S.3   432  GSH432     -0.0797
     16  N3        27.3260   30.0750   -7.1700 N.am  432  GSH432     -0.1917
     17  CA3       27.8630   28.7620   -6.6760 C.3   432  GSH432      0.2285
     18  C3        27.9220   28.6390   -5.1380 C.2   432  GSH432      0.3865
     19  O31       28.1740   29.6420   -4.4170 O.co2 432  GSH432     -0.2437
     20  O32       27.7090   27.5030   -4.6750 O.co2 432  GSH432     -0.2437
@<TRIPOS>BOND
     1     9     8    2
     2     7     8    1
     3     7     6    2
     4     8    10   am
     5     4     3   ar
     6     3     2    1
     7     3     5   ar
     8     2     6    1
     9     2     1    1
    10    10    11    1
    11    11    12    1
    12    11    14    1
    13    16    12   am
    14    16    17    1
    15    12    13    2
    16    17    18    1
    17    14    15    1
    18    18    20   ar
    19    18    19   ar
