@<TRIPOS>MOLECULE
1ss9_UPF_A_1.pdb
 36 38 0 0 0
SMALL
GASTEIGER

@<TRIPOS>ATOM
      1  N1        12.8820   31.4680   14.0880 N.am  401  UPF401     -0.1766
      2  C2        12.4050   31.9770   12.8440 C.1   401  UPF401      0.2845
      3  N3        13.2760   31.7190   11.7540 N.2   401  UPF401     -0.2452
      4  C4        14.5580   31.0070   11.7920 C.1   401  UPF401      0.2182
      5  C5        15.0040   30.4930   13.0920 C.2   401  UPF401      0.1242
      6  C6        14.1970   30.7210   14.1730 C.2   401  UPF401      0.0929
      7  O2        11.3720   32.5690   12.7450 O.2   401  UPF401     -0.1918
      8  O4        15.1800   30.8780   10.7530 O.2   401  UPF401     -0.2085
      9  C1D       12.1630   31.5930   15.4810 C.3   401  UPF401      0.2401
     10  C2D       10.8200   30.9080   15.4900 C.3   401  UPF401      0.2319
     11  O2'        9.9120   31.7030   16.1930 O.3   401  UPF401     -0.2157
     12  C3D       11.0720   29.5770   16.1230 C.3   401  UPF401      0.2158
     13  C4D       11.8260   30.0790   17.3080 C.3   401  UPF401      0.1799
     14  O4D       12.7570   31.0320   16.6490 O.3   401  UPF401     -0.3320
     15  O3D        9.9020   28.9310   16.6150 O.3   401  UPF401     -0.2175
     16  C5D       13.0690   29.6190   17.9930 C.3   401  UPF401      0.1813
     17  O5D       13.7090   28.3360   17.6730 O.3   401  UPF401     -0.3112
     18  PA        13.3280   26.8630   17.3330 P.3   401  UPF401      0.2189
     19  O1A       11.8940   26.5420   17.2850 O.3   401  UPF401     -0.4371
     20  O2A       14.0100   26.5720   16.0340 O.2   401  UPF401     -0.5170
     21  O3A       14.0450   26.6100   18.7190 O.3   401  UPF401     -0.2703
     22  PB        14.2680   25.3160   19.5430 P.3   401  UPF401      0.2208
     23  O1B       12.9040   24.8740   19.8030 O.3   401  UPF401     -0.4371
     24  O2B       15.0050   24.4370   18.6610 O.2   401  UPF401     -0.5170
     25  O3B       14.9880   25.3480   20.9460 O.3   401  UPF401     -0.2856
     26  C1'       15.0230   25.7280   22.3690 C.3   401  UPF401      0.2764
     27  C2'       13.5810   25.7940   22.9000 C.3   401  UPF401      0.2498
     28  C3'       12.7850   26.9190   22.1740 C.3   401  UPF401      0.2220
     29  C4'       13.4450   28.3160   22.4300 C.3   401  UPF401      0.2146
     30  C5'       14.9100   28.1700   21.8930 C.3   401  UPF401      0.1835
     31  C6'       15.6700   29.4620   22.1470 C.3   401  UPF401      0.2142
     32  F2'       13.0120   24.5040   22.7020 F     401  UPF401     -0.2290
     33  O3'       11.4430   26.9700   22.6580 O.3   401  UPF401     -0.2172
     34  O4'       13.4210   28.5910   23.8890 O.3   401  UPF401     -0.2176
     35  O5'       15.6630   27.0760   22.5790 O.3   401  UPF401     -0.3253
     36  O6'       17.0160   29.6890   21.8000 O.3   401  UPF401     -0.2176
@<TRIPOS>BOND
     1     8     4    2
     2     3     4    2
     3     3     2    2
     4     4     5    1
     5     7     2    2
     6     2     1   am
     7     5     6    2
     8     1     6    1
     9     1     9    1
    10     9    10    1
    11     9    14    1
    12    10    12    1
    13    10    11    1
    14    20    18    2
    15    12    15    1
    16    12    13    1
    17    14    13    1
    18    19    18    1
    19    13    16    1
    20    18    17    1
    21    18    21    1
    22    17    16    1
    23    24    22    2
    24    21    22    1
    25    22    23    1
    26    22    25    1
    27    25    26    1
    28    36    31    1
    29    30    31    1
    30    30    29    1
    31    30    35    1
    32    28    29    1
    33    28    33    1
    34    28    27    1
    35    26    35    1
    36    26    27    1
    37    29    34    1
    38    32    27    1
