@<TRIPOS>MOLECULE
1sst_COA_A_1.pdb
 48 50 0 0 0
SMALL
GASTEIGER

@<TRIPOS>ATOM
      1  N1A       10.1310   24.6520   25.5190 N.2   300  COA300      0.0021
      2  C2A        8.7780   24.5620   25.3390 C.3   300  COA300      0.5254
      3  N3A        7.8050   25.0950   26.1400 N.2   300  COA300     -0.0055
      4  C4A        8.3230   25.7780   27.2200 C.2   300  COA300      0.3518
      5  C5A        9.6820   25.9540   27.5210 C.2   300  COA300      0.2526
      6  C6A       10.6210   25.3420   26.6180 C.2   300  COA300      0.4393
      7  N6A       11.9480   25.4260   26.7830 N.pl3 300  COA300      0.2180
      8  N7A        9.8610   26.6870   28.6720 N.2   300  COA300     -0.2095
      9  C8A        8.6190   26.9560   29.0480 C.3   300  COA300      0.3377
     10  N9A        7.6550   26.4420   28.2250 N.pl3 300  COA300     -0.1439
     11  C1B        6.2030   26.6150   28.3730 C.3   300  COA300      0.3185
     12  C2B        5.5560   26.2320   29.7380 C.3   300  COA300      0.2543
     13  O2B        5.2550   24.8780   29.8710 O.3   300  COA300     -0.2131
     14  C3B        4.3740   27.2290   29.8100 C.3   300  COA300      0.1928
     15  O3B        3.1810   26.7280   29.1580 O.3   300  COA300     -0.2673
     16  P3B        1.6560   27.2950   29.1790 P.3   300  COA300      0.5327
     17  O7A        1.4900   28.1730   27.9750 O.2   300  COA300     -0.2224
     18  O8A        1.3720   28.0690   30.4360 O.3   300  COA300     -0.1145
     19  O9A        0.8450   26.0390   29.0760 O.3   300  COA300     -0.1145
     20  C4B        4.8440   28.4200   29.0480 C.3   300  COA300      0.1795
     21  O4B        6.0590   28.0350   28.3860 O.3   300  COA300     -0.3136
     22  C5B        5.1990   29.5070   30.0180 C.3   300  COA300      0.1812
     23  O5B        6.3220   29.1480   30.8490 O.3   300  COA300     -0.3112
     24  P1A        6.8920   30.3040   31.7590 P.3   300  COA300      0.2189
     25  O1A        7.8940   29.7320   32.6390 O.3   300  COA300     -0.4371
     26  O2A        5.6890   30.9400   32.3910 O.2   300  COA300     -0.5170
     27  O3A        7.5980   31.3740   30.7620 O.3   300  COA300     -0.2703
     28  P2A        8.8140   32.2540   31.3780 P.3   300  COA300      0.2188
     29  O4A        8.8910   32.2100   32.8830 O.3   300  COA300     -0.4371
     30  O5A        8.7450   33.6080   30.7930 O.2   300  COA300     -0.5170
     31  O6A       10.0780   31.4980   30.8090 O.3   300  COA300     -0.3138
     32  CBP       12.5040   30.8060   30.4260 C.3   300  COA300      0.0645
     33  CCP       11.4670   31.4600   31.3820 C.3   300  COA300      0.1519
     34  CDP       12.0780   31.1920   29.0220 C.3   300  COA300      0.0056
     35  CEP       13.8810   31.4470   30.6840 C.3   300  COA300      0.0056
     36  CAP       12.5400   29.2480   30.6870 C.3   300  COA300      0.2312
     37  OAP       11.2760   28.6780   30.6290 O.3   300  COA300     -0.2131
     38  C9P       13.5780   28.3060   30.0010 C.2   300  COA300      0.2719
     39  O9P       13.2820   27.5140   29.0780 O.2   300  COA300     -0.2706
     40  N8P       14.8160   28.4430   30.5190 N.am  300  COA300     -0.2028
     41  C7P       15.9880   27.7260   30.0980 C.3   300  COA300      0.1248
     42  C6P       17.1780   28.1890   30.9000 C.3   300  COA300      0.1102
     43  C5P       18.2820   27.2520   30.7330 C.2   300  COA300      0.2432
     44  O5P       18.6370   26.8480   29.6060 O.2   300  COA300     -0.2733
     45  N4P       18.8540   26.8800   31.8520 N.am  300  COA300     -0.2044
     46  C3P       19.9550   25.9590   31.8400 C.3   300  COA300      0.1276
     47  C2P       20.9320   26.2260   32.9680 C.3   300  COA300      0.0920
     48  S1P       22.4770   25.3670   32.6300 S.3   300  COA300     -0.0802
@<TRIPOS>BOND
     1     2     1    1
     2     2     3    1
     3     1     6    2
     4     3     4    2
     5     6     7    1
     6     6     5    1
     7     4     5    1
     8     4    10    1
     9     5     8    2
    10    17    16    2
    11    10    11    1
    12    10     9    1
    13    11    21    1
    14    11    12    1
    15    21    20    1
    16     8     9    1
    17    34    32    1
    18    20    14    1
    19    20    22    1
    20    19    16    1
    21    39    38    2
    22    15    16    1
    23    15    14    1
    24    16    18    1
    25    44    43    2
    26    12    14    1
    27    12    13    1
    28    38    40   am
    29    38    36    1
    30    22    23    1
    31    41    40    1
    32    41    42    1
    33    32    35    1
    34    32    36    1
    35    32    33    1
    36    37    36    1
    37    43    42    1
    38    43    45   am
    39    27    28    1
    40    27    24    1
    41    30    28    2
    42    31    28    1
    43    31    33    1
    44    23    24    1
    45    28    29    1
    46    24    26    2
    47    24    25    1
    48    46    45    1
    49    46    47    1
    50    48    47    1
