@<TRIPOS>MOLECULE
1sta_THP_A_1.pdb
 25 26 0 0 0
SMALL
GASTEIGER

@<TRIPOS>ATOM
      1  P2         6.0400   13.6590   20.4420 P.3   151  THP151      0.5327
      2  O4P        5.0590   13.6580   19.3050 O.2   151  THP151     -0.2224
      3  O5P        6.4410   12.3500   20.9690 O.3   151  THP151     -0.1145
      4  O6P        7.2960   14.4910   20.1000 O.3   151  THP151     -0.1145
      5  P1         4.2500   11.5060   26.1180 P.3   151  THP151      0.5326
      6  O1P        4.4280   11.2360   27.5510 O.3   151  THP151     -0.1145
      7  O2P        3.2130   10.7400   25.3980 O.2   151  THP151     -0.2224
      8  O3P        5.6440   11.2770   25.4120 O.3   151  THP151     -0.1145
      9  O5'        5.4080   14.4800   21.6330 O.3   151  THP151     -0.2675
     10  C5'        4.2520   14.0070   22.3090 C.3   151  THP151      0.1857
     11  C4'        4.5620   13.9560   23.7920 C.3   151  THP151      0.1748
     12  O4'        4.9440   15.2780   24.1470 O.3   151  THP151     -0.3340
     13  C3'        3.3830   13.6050   24.7050 C.3   151  THP151      0.1600
     14  O3'        3.8720   13.0700   25.9590 O.3   151  THP151     -0.2700
     15  C2'        2.7600   14.9290   24.9540 C.3   151  THP151      0.0847
     16  C1'        3.9730   15.8500   25.0210 C.3   151  THP151      0.2089
     17  N1         3.5340   17.1800   24.6000 N.am  151  THP151     -0.1794
     18  C2         3.1850   18.0320   25.6220 C.1   151  THP151      0.2844
     19  O2         3.3420   17.7510   26.8070 O.2   151  THP151     -0.1918
     20  N3         2.6530   19.2360   25.2480 N.2   151  THP151     -0.2455
     21  C4         2.4370   19.6670   23.9590 C.1   151  THP151      0.2134
     22  O4         1.8580   20.7380   23.7890 O.2   151  THP151     -0.2088
     23  C5         2.8600   18.7090   22.9380 C.2   151  THP151      0.0891
     24  C5M        2.7500   19.0450   21.4410 C.3   151  THP151      0.0462
     25  C6         3.3750   17.5300   23.2830 C.2   151  THP151      0.0877
@<TRIPOS>BOND
     1     2     1    2
     2     4     1    1
     3     1     3    1
     4     1     9    1
     5    24    23    1
     6     9    10    1
     7    10    11    1
     8    23    25    2
     9    23    21    1
    10    25    17    1
    11    22    21    2
    12    11    12    1
    13    11    13    1
    14    21    20    2
    15    12    16    1
    16    17    16    1
    17    17    18   am
    18    13    15    1
    19    13    14    1
    20    15    16    1
    21    20    18    2
    22     7     5    2
    23     8     5    1
    24    18    19    2
    25    14     5    1
    26     5     6    1
