@<TRIPOS>MOLECULE
1stb_THP_A_1.pdb
 25 26 0 0 0
SMALL
GASTEIGER

@<TRIPOS>ATOM
      1  P2         6.5120   13.3410   21.1190 P.3   151  THP151      0.5327
      2  O4P        5.4150   13.1310   20.1520 O.2   151  THP151     -0.2224
      3  O5P        7.6030   14.2960   20.7050 O.3   151  THP151     -0.1145
      4  O6P        7.2550   11.9410   21.3260 O.3   151  THP151     -0.1145
      5  P1         4.8140   10.9900   26.8550 P.3   151  THP151      0.5326
      6  O1P        3.8790   10.0030   26.2420 O.2   151  THP151     -0.2224
      7  O2P        4.8420   10.7910   28.3220 O.3   151  THP151     -0.1145
      8  O3P        6.2710   10.7420   26.2430 O.3   151  THP151     -0.1145
      9  O5'        5.8810   13.8980   22.4890 O.3   151  THP151     -0.2675
     10  C5'        4.8350   13.1950   23.2030 C.3   151  THP151      0.1857
     11  C4'        5.0830   13.3560   24.6520 C.3   151  THP151      0.1748
     12  O4'        5.3070   14.7330   24.9670 O.3   151  THP151     -0.3340
     13  C3'        3.8880   12.9970   25.4270 C.3   151  THP151      0.1600
     14  O3'        4.3670   12.5290   26.6840 O.3   151  THP151     -0.2700
     15  C2'        3.1430   14.2860   25.5750 C.3   151  THP151      0.0847
     16  C1'        4.2400   15.2850   25.7210 C.3   151  THP151      0.2089
     17  N1         3.7180   16.6040   25.2330 N.am  151  THP151     -0.1794
     18  C2         3.2190   17.4670   26.1760 C.1   151  THP151      0.2844
     19  O2         3.2380   17.2580   27.3880 O.2   151  THP151     -0.1918
     20  N3         2.6870   18.6480   25.7320 N.2   151  THP151     -0.2455
     21  C4         2.5930   19.0830   24.4350 C.1   151  THP151      0.2134
     22  O4         2.0890   20.1830   24.1820 O.2   151  THP151     -0.2088
     23  C5         3.1470   18.1480   23.4950 C.2   151  THP151      0.0891
     24  C5M        3.0940   18.5410   22.0160 C.3   151  THP151      0.0462
     25  C6         3.6720   16.9600   23.9040 C.2   151  THP151      0.0877
@<TRIPOS>BOND
     1     2     1    2
     2     3     1    1
     3     1     4    1
     4     1     9    1
     5    24    23    1
     6     9    10    1
     7    10    11    1
     8    23    25    2
     9    23    21    1
    10    25    17    1
    11    22    21    2
    12    21    20    2
    13    11    12    1
    14    11    13    1
    15    12    16    1
    16    17    16    1
    17    17    18   am
    18    13    15    1
    19    13    14    1
    20    15    16    1
    21    20    18    2
    22    18    19    2
    23     6     5    2
    24     8     5    1
    25    14     5    1
    26     5     7    1
