@<TRIPOS>MOLECULE
1stc_STU_E_1.pdb
 35 42 0 0 0
SMALL
GASTEIGER

@<TRIPOS>ATOM
      1  O4         6.0710   25.5490   30.5820 O.3   351  STU351     -0.3186
      2  C25        6.6030   26.7220   29.9550 C.3   351  STU351      0.2078
      3  C24        6.2200   26.8090   28.4760 C.3   351  STU351      0.0739
      4  C23        5.3780   25.6340   27.9950 C.3   351  STU351      0.1086
      5  C22        5.9480   24.2960   28.4550 C.3   351  STU351      0.1761
      6  C21        6.2610   24.2550   29.9760 C.3   351  STU351      0.1915
      7  C26        5.0950   23.5360   30.6640 C.3   351  STU351      0.0566
      8  N2         7.5830   23.6680   30.3550 N.ar  351  STU351     -0.3054
      9  C18        8.7390   24.4230   30.5150 C.ar  351  STU351      0.0774
     10  C19        8.9580   25.8320   30.4240 C.ar  351  STU351      0.0783
     11  C6        10.2790   26.3560   30.4880 C.ar  351  STU351      0.0293
     12  C7        11.3820   25.4440   30.6180 C.ar  351  STU351      0.0822
     13  C10       11.1610   24.0810   30.7360 C.ar  351  STU351      0.0154
     14  C11        9.8490   23.5510   30.6820 C.ar  351  STU351      0.0173
     15  C12        9.3380   22.2140   30.6640 C.ar  351  STU351      0.0171
     16  C17        7.9380   22.3000   30.4410 C.ar  351  STU351      0.0617
     17  C16        7.1890   21.1000   30.2700 C.ar  351  STU351      0.0172
     18  C15        7.8530   19.8760   30.2900 C.ar  351  STU351      0.0015
     19  C14        9.2370   19.8050   30.5020 C.ar  351  STU351      0.0001
     20  C13        9.9880   20.9530   30.6910 C.ar  351  STU351      0.0015
     21  C9        12.4490   23.3720   31.0800 C.3   351  STU351      0.1650
     22  N1        13.3760   24.4780   31.1080 N.2   351  STU351     -0.1976
     23  C8        12.8320   25.6660   30.8380 C.1   351  STU351      0.1501
     24  O5        13.4450   26.7050   30.8610 O.2   351  STU351     -0.2222
     25  C5        10.1550   27.7780   30.2970 C.ar  351  STU351      0.0180
     26  C20        8.7700   28.0600   30.1430 C.ar  351  STU351      0.0618
     27  C1         8.3210   29.3610   29.8440 C.ar  351  STU351      0.0172
     28  C2         9.2830   30.3890   29.7100 C.ar  351  STU351      0.0015
     29  C3        10.6470   30.1260   29.8750 C.ar  351  STU351      0.0001
     30  C4        11.0950   28.8440   30.1660 C.ar  351  STU351      0.0015
     31  N3         8.0480   26.8590   30.2210 N.ar  351  STU351     -0.3039
     32  O6         7.2630   24.1670   27.8660 O.3   351  STU351     -0.3478
     33  C27        7.4290   23.4860   26.6220 C.3   351  STU351      0.1743
     34  N4         5.0230   25.6030   26.5800 N.3   351  STU351     -0.2152
     35  C28        3.6090   25.3390   26.3510 C.3   351  STU351      0.1075
@<TRIPOS>BOND
     1    35    34    1
     2    34     4    1
     3    33    32    1
     4    32     5    1
     5     4     5    1
     6     4     3    1
     7     5     6    1
     8     3     2    1
     9    28    27   ar
    10    28    29   ar
    11    27    26   ar
    12    29    30   ar
    13     2    31    1
    14     2     1    1
    15     6     8    1
    16     6     1    1
    17     6     7    1
    18    26    31   ar
    19    26    25   ar
    20    30    25   ar
    21    31    10   ar
    22    17    18   ar
    23    17    16   ar
    24    18    19   ar
    25    25    11   ar
    26     8    16   ar
    27     8     9   ar
    28    10    11   ar
    29    10     9   ar
    30    16    15   ar
    31    11    12   ar
    32    19    20   ar
    33     9    14   ar
    34    12    13   ar
    35    12    23    1
    36    15    14   ar
    37    15    20   ar
    38    14    13   ar
    39    13    21    1
    40    23    24    2
    41    23    22    2
    42    21    22    1
