@<TRIPOS>MOLECULE
1stg_THP_A_1.pdb
 25 26 0 0 0
SMALL
GASTEIGER

@<TRIPOS>ATOM
      1  P2         6.2900   13.9580   20.6610 P.3   151  THP151      0.5327
      2  O4P        6.7010   12.4730   21.0630 O.3   151  THP151     -0.1145
      3  O5P        5.0630   13.8850   19.8380 O.2   151  THP151     -0.2224
      4  O6P        7.4900   14.6730   20.1750 O.3   151  THP151     -0.1145
      5  P1         5.0640   11.6010   26.4440 P.3   151  THP151      0.5326
      6  O1P        4.6510   11.2410   27.8040 O.3   151  THP151     -0.1145
      7  O2P        6.4110   11.5140   25.8490 O.3   151  THP151     -0.1145
      8  O3P        4.1190   10.7470   25.4710 O.2   151  THP151     -0.2224
      9  O5'        5.8940   14.5790   22.0570 O.3   151  THP151     -0.2675
     10  C5'        4.8630   14.0170   22.8220 C.3   151  THP151      0.1857
     11  C4'        5.2760   14.1100   24.2670 C.3   151  THP151      0.1748
     12  O4'        5.5910   15.4700   24.6090 O.3   151  THP151     -0.3340
     13  C3'        4.1210   13.7160   25.1460 C.3   151  THP151      0.1600
     14  O3'        4.6100   13.1450   26.3580 O.3   151  THP151     -0.2700
     15  C2'        3.4030   15.0010   25.4340 C.3   151  THP151      0.0847
     16  C1'        4.5630   15.9830   25.4660 C.3   151  THP151      0.2089
     17  N1         4.0160   17.2760   25.0220 N.am  151  THP151     -0.1794
     18  C2         3.6310   18.1550   26.0180 C.1   151  THP151      0.2844
     19  O2         3.8180   17.9530   27.2070 O.2   151  THP151     -0.1918
     20  N3         3.0220   19.3090   25.6240 N.2   151  THP151     -0.2455
     21  C4         2.7660   19.6750   24.3280 C.1   151  THP151      0.2134
     22  O4         2.1580   20.7200   24.1350 O.2   151  THP151     -0.2088
     23  C5         3.2050   18.7340   23.3120 C.2   151  THP151      0.0891
     24  C5M        3.0370   19.0910   21.8200 C.3   151  THP151      0.0462
     25  C6         3.8060   17.5770   23.6840 C.2   151  THP151      0.0877
@<TRIPOS>BOND
     1     3     1    2
     2     4     1    1
     3     1     2    1
     4     1     9    1
     5    24    23    1
     6     9    10    1
     7    10    11    1
     8    23    25    2
     9    23    21    1
    10    25    17    1
    11    22    21    2
    12    11    12    1
    13    11    13    1
    14    21    20    2
    15    12    16    1
    16    17    16    1
    17    17    18   am
    18    13    15    1
    19    13    14    1
    20    15    16    1
    21     8     5    2
    22    20    18    2
    23     7     5    1
    24    18    19    2
    25    14     5    1
    26     5     6    1
