@<TRIPOS>MOLECULE
1sth_THP_A_1.pdb
 25 26 0 0 0
SMALL
GASTEIGER

@<TRIPOS>ATOM
      1  P2         6.2380   13.4650   20.8270 P.3   151  THP151      0.5327
      2  O4P        6.6950   12.0210   21.2220 O.3   151  THP151     -0.1145
      3  O5P        5.0750   13.3370   19.9130 O.2   151  THP151     -0.2224
      4  O6P        7.4000   14.3110   20.4260 O.3   151  THP151     -0.1145
      5  P1         4.9330   11.2750   26.5460 P.3   151  THP151      0.5326
      6  O1P        4.8060   10.9490   27.9780 O.3   151  THP151     -0.1145
      7  O2P        6.2200   11.1480   25.8150 O.3   151  THP151     -0.1145
      8  O3P        3.8540   10.4240   25.7470 O.2   151  THP151     -0.2224
      9  O5'        5.7170   14.0910   22.1900 O.3   151  THP151     -0.2675
     10  C5'        4.5760   13.5990   22.8820 C.3   151  THP151      0.1857
     11  C4'        4.9030   13.6610   24.3650 C.3   151  THP151      0.1748
     12  O4'        5.1800   15.0210   24.6920 O.3   151  THP151     -0.3340
     13  C3'        3.7540   13.3030   25.2780 C.3   151  THP151      0.1600
     14  O3'        4.3480   12.7930   26.4720 O.3   151  THP151     -0.2700
     15  C2'        2.9970   14.5920   25.5150 C.3   151  THP151      0.0847
     16  C1'        4.1620   15.5560   25.5510 C.3   151  THP151      0.2089
     17  N1         3.7140   16.8820   25.0820 N.am  151  THP151     -0.1794
     18  C2         3.3850   17.7840   26.0600 C.1   151  THP151      0.2844
     19  O2         3.6350   17.6100   27.2500 O.2   151  THP151     -0.1918
     20  N3         2.8580   18.9670   25.6360 N.2   151  THP151     -0.2455
     21  C4         2.6420   19.3450   24.3400 C.1   151  THP151      0.2134
     22  O4         2.0970   20.4260   24.1100 O.2   151  THP151     -0.2088
     23  C5         3.0420   18.3690   23.3650 C.2   151  THP151      0.0891
     24  C5M        2.9320   18.7230   21.8690 C.3   151  THP151      0.0462
     25  C6         3.5470   17.1880   23.7530 C.2   151  THP151      0.0877
@<TRIPOS>BOND
     1     3     1    2
     2     4     1    1
     3     1     2    1
     4     1     9    1
     5    24    23    1
     6     9    10    1
     7    10    11    1
     8    23    25    2
     9    23    21    1
    10    25    17    1
    11    22    21    2
    12    21    20    2
    13    11    12    1
    14    11    13    1
    15    12    16    1
    16    17    16    1
    17    17    18   am
    18    13    15    1
    19    13    14    1
    20    15    16    1
    21    20    18    2
    22     8     5    2
    23     7     5    1
    24    18    19    2
    25    14     5    1
    26     5     6    1
