@<TRIPOS>MOLECULE
1sto_OMP_A_1.pdb
 24 25 0 0 0
SMALL
GASTEIGER

@<TRIPOS>ATOM
      1  P         19.7160   26.7240   15.9000 P.3   216  OMP216      0.5327
      2  O1P       18.4600   26.1670   16.5100 O.3   216  OMP216     -0.1145
      3  O2P       20.9870   26.5280   16.6710 O.3   216  OMP216     -0.1145
      4  O3P       19.6760   26.2560   14.4800 O.2   216  OMP216     -0.2224
      5  O5'       19.7060   28.3290   15.3720 O.3   216  OMP216     -0.2675
      6  C5'       19.1190   29.2420   14.4210 C.3   216  OMP216      0.1859
      7  C4'       17.8630   29.9920   14.9310 C.3   216  OMP216      0.1801
      8  O4'       18.0930   30.6780   16.1600 O.3   216  OMP216     -0.3319
      9  C3'       16.8630   30.7600   14.3900 C.3   216  OMP216      0.2158
     10  O3'       15.6830   30.3710   13.6720 O.3   216  OMP216     -0.2175
     11  C2'       16.9150   32.2460   14.8660 C.3   216  OMP216      0.2319
     12  O2'       15.8900   32.9980   14.5970 O.3   216  OMP216     -0.2157
     13  C1'       17.1110   31.7470   16.3090 C.3   216  OMP216      0.2402
     14  N1        17.5570   32.8340   17.1670 N.am  216  OMP216     -0.1714
     15  C2        18.4020   33.5580   16.6310 C.1   216  OMP216      0.2847
     16  O2        18.9530   33.4790   15.4220 O.2   216  OMP216     -0.1918
     17  N3        18.9870   34.5550   17.3200 N.2   216  OMP216     -0.2452
     18  C4        18.6640   34.7550   18.5960 C.1   216  OMP216      0.2184
     19  O4        19.2440   35.6080   19.3470 O.2   216  OMP216     -0.2085
     20  C5        17.7390   33.9690   19.2480 C.2   216  OMP216      0.1296
     21  C6        17.0630   32.9880   18.5080 C.2   216  OMP216      0.1573
     22  C7        16.1270   32.3010   19.3160 C.2   216  OMP216      0.4026
     23  O71       14.9350   32.0570   19.0050 O.co2 216  OMP216     -0.2391
     24  O72       16.5630   31.4640   20.1300 O.co2 216  OMP216     -0.2391
@<TRIPOS>BOND
     1    10     9    1
     2     9    11    1
     3     9     7    1
     4     6     7    1
     5     6     5    1
     6     4     1    2
     7    12    11    1
     8    11    13    1
     9     7     8    1
    10     5     1    1
    11    16    15    2
    12     1     2    1
    13     1     3    1
    14     8    13    1
    15    13    14    1
    16    15    14   am
    17    15    17    2
    18    14    21    1
    19    17    18    2
    20    21    20    2
    21    21    22    1
    22    18    20    1
    23    18    19    2
    24    23    22   ar
    25    22    24   ar
