@<TRIPOS>MOLECULE
1stp_BTN_A_1.pdb
 16 17 0 0 0
SMALL
GASTEIGER

@<TRIPOS>ATOM
      1  C11        9.0510    4.5760  -14.4590 C.2   300  BTN300      0.3649
      2  O11        8.1470    5.3730  -14.1720 O.co2 300  BTN300     -0.2457
      3  O12        8.6970    3.4980  -15.1320 O.co2 300  BTN300     -0.2457
      4  C10       10.3210    4.4130  -13.7020 C.3   300  BTN300      0.1141
      5  C9        10.2150    3.2470  -12.6580 C.3   300  BTN300      0.0118
      6  C8        11.4870    2.9720  -11.9640 C.3   300  BTN300      0.0015
      7  C7        11.6270    1.5580  -11.4020 C.3   300  BTN300      0.0129
      8  C2        10.9230    1.0860  -10.1950 C.3   300  BTN300      0.0729
      9  S1        10.8840    2.1030   -8.6620 S.3   300  BTN300     -0.1369
     10  C6        10.2990    0.6200   -7.7600 C.3   300  BTN300      0.0848
     11  C5        11.1420   -0.5430   -8.2740 C.3   300  BTN300      0.1509
     12  N1        12.4430   -0.6310   -7.6130 N.2   300  BTN300     -0.1859
     13  C3        13.4670   -0.4430   -8.4530 C.1   300  BTN300      0.2386
     14  O3        14.6920   -0.4460   -8.2050 O.2   300  BTN300     -0.2023
     15  N2        12.9740   -0.2370   -9.6950 N.2   300  BTN300     -0.1860
     16  C4        11.5130   -0.2650   -9.7270 C.3   300  BTN300      0.1500
@<TRIPOS>BOND
     1     3     1   ar
     2     1     2   ar
     3     1     4    1
     4     4     5    1
     5     5     6    1
     6     6     7    1
     7     7     8    1
     8     8    16    1
     9     8     9    1
    10    16    15    1
    11    16    11    1
    12    15    13    2
    13     9    10    1
    14    13    14    2
    15    13    12    2
    16    11    10    1
    17    11    12    1
