@<TRIPOS>MOLECULE
1stq_HEM_A_1.pdb
 43 50 0 0 0
SMALL
GASTEIGER

@<TRIPOS>ATOM
      1 FE         28.2000   91.9660   52.2730 Fe    600  HEM600      0.0000
      2  CHA       27.8660   94.1480   49.6560 C.2   600  HEM600      0.0000
      3  CHB       30.5920   94.0400   53.6700 C.2   600  HEM600      0.0000
      4  CHC       28.3830   89.9470   55.0270 C.2   600  HEM600      0.0000
      5  CHD       25.4430   90.2480   51.1870 C.2   600  HEM600      0.0000
      6  NA        29.0100   93.7740   51.8110 N.2   600  HEM600      0.0000
      7  C1A       28.7780   94.4900   50.6520 C.2   600  HEM600      0.0000
      8  C2A       29.6140   95.6640   50.6300 C.2   600  HEM600      0.0000
      9  C3A       30.4010   95.6140   51.7260 C.2   600  HEM600      0.0000
     10  C4A       30.0120   94.4470   52.4740 C.2   600  HEM600      0.0000
     11  CMA       31.5030   96.5960   52.1020 C.3   600  HEM600      0.0000
     12  CAA       29.5800   96.7480   49.5680 C.3   600  HEM600      0.0000
     13  CBA       28.4300   97.7300   49.7320 C.3   600  HEM600      0.0000
     14  CGA       28.4100   98.7800   48.6380 C.2   600  HEM600      0.0000
     15  O1A       29.4490   99.4480   48.4350 O.co2 600  HEM600      0.0000
     16  O2A       27.3580   98.9390   47.9850 O.co2 600  HEM600      0.0000
     17  NB        29.2660   92.0050   54.0060 N.ar  600  HEM600      0.0000
     18  C1B       30.2480   92.8980   54.3790 C.ar  600  HEM600      0.0000
     19  C2B       30.9060   92.4420   55.5780 C.ar  600  HEM600      0.0000
     20  C3B       30.3140   91.2790   55.9390 C.ar  600  HEM600      0.0000
     21  C4B       29.2690   91.0190   54.9730 C.ar  600  HEM600      0.0000
     22  CMB       32.0420   93.1680   56.2970 C.3   600  HEM600      0.0000
     23  CAB       30.6200   90.4770   57.0510 C.3   600  HEM600      0.0000
     24  CBB       31.9480   90.2320   57.5700 C.3   600  HEM600      0.0000
     25  NC        27.0860   90.4410   53.0050 N.2   600  HEM600      0.0000
     26  C1C       27.3580   89.6870   54.1250 C.2   600  HEM600      0.0000
     27  C2C       26.3250   88.6900   54.3060 C.2   600  HEM600      0.0000
     28  C3C       25.4670   88.8120   53.2620 C.2   600  HEM600      0.0000
     29  C4C       25.9900   89.8560   52.4070 C.2   600  HEM600      0.0000
     30  CMC       26.2060   87.7610   55.5220 C.3   600  HEM600      0.0000
     31  CAC       24.2540   88.1280   53.0440 C.3   600  HEM600      0.0000
     32  CBC       23.9700   86.7360   53.3240 C.3   600  HEM600      0.0000
     33  ND        26.9180   92.1630   50.7230 N.ar  600  HEM600      0.0000
     34  C1D       25.8880   91.3070   50.3950 C.ar  600  HEM600      0.0000
     35  C2D       25.4290   91.5890   49.0520 C.ar  600  HEM600      0.0000
     36  C3D       26.1240   92.6650   48.6090 C.ar  600  HEM600      0.0000
     37  C4D       27.0130   93.0560   49.6800 C.ar  600  HEM600      0.0000
     38  CMD       24.3970   90.7730   48.2740 C.3   600  HEM600      0.0000
     39  CAD       25.9980   93.3450   47.2270 C.3   600  HEM600      0.0000
     40  CBD       25.1100   94.5890   47.2770 C.3   600  HEM600      0.0000
     41  CGD       24.9610   95.2850   45.9270 C.2   600  HEM600      0.0000
     42  O1D       24.2630   96.3200   45.8740 O.co2 600  HEM600      0.0000
     43  O2D       25.5320   94.8030   44.9250 O.co2 600  HEM600      0.0000
@<TRIPOS>BOND
     1    43    41   ar
     2    42    41   ar
     3    41    40    1
     4    39    40    1
     5    39    36    1
     6    16    14   ar
     7    38    35    1
     8    15    14   ar
     9    36    35   ar
    10    36    37   ar
    11    14    13    1
    12    35    34   ar
    13    12    13    1
    14    12     8    1
    15     2    37    2
    16     2     7    1
    17    37    33   ar
    18    34    33   ar
    19    34     5    2
    20     8     7    1
    21     8     9    2
    22     7     6    2
    23    33     1    1
    24     5    29    1
    25     9    11    1
    26     9    10    1
    27     6     1    1
    28     6    10    1
    29     1    25    1
    30     1    17    1
    31    29    25    2
    32    29    28    1
    33    10     3    2
    34    25    26    1
    35    31    28    1
    36    31    32    1
    37    28    27    2
    38     3    18    1
    39    17    18   ar
    40    17    21   ar
    41    26    27    1
    42    26     4    2
    43    27    30    1
    44    18    19   ar
    45    21     4    1
    46    21    20   ar
    47    19    20   ar
    48    19    22    1
    49    20    23    1
    50    23    24    1
