@<TRIPOS>MOLECULE
1sty_THP_A_1.pdb
 25 26 0 0 0
SMALL
GASTEIGER

@<TRIPOS>ATOM
      1  P2         5.8740   13.4580   20.2430 P.3   151  THP151      0.5327
      2  O4P        4.9210   13.5110   19.1090 O.2   151  THP151     -0.2224
      3  O5P        6.2820   12.1370   20.7750 O.3   151  THP151     -0.1145
      4  O6P        7.1390   14.3420   19.9260 O.3   151  THP151     -0.1145
      5  P1         4.4020   11.3370   25.8180 P.3   151  THP151      0.5326
      6  O1P        3.3370   10.5550   25.1650 O.2   151  THP151     -0.2224
      7  O2P        5.8220   11.2000   25.4410 O.3   151  THP151     -0.1145
      8  O3P        4.3510   11.0640   27.3690 O.3   151  THP151     -0.1145
      9  O5'        5.2110   14.2910   21.4240 O.3   151  THP151     -0.2675
     10  C5'        4.1160   13.7920   22.1810 C.3   151  THP151      0.1857
     11  C4'        4.4990   13.8610   23.6520 C.3   151  THP151      0.1748
     12  O4'        4.8110   15.2240   23.9720 O.3   151  THP151     -0.3340
     13  C3'        3.3770   13.4740   24.5950 C.3   151  THP151      0.1600
     14  O3'        3.9680   12.8980   25.7700 O.3   151  THP151     -0.2700
     15  C2'        2.7210   14.7890   24.9300 C.3   151  THP151      0.0847
     16  C1'        3.8710   15.7440   24.9220 C.3   151  THP151      0.2089
     17  N1         3.3800   17.0430   24.5010 N.am  151  THP151     -0.1794
     18  C2         3.0110   17.9030   25.4900 C.1   151  THP151      0.2844
     19  O2         3.1590   17.6850   26.6880 O.2   151  THP151     -0.1918
     20  N3         2.4940   19.0730   25.0660 N.2   151  THP151     -0.2455
     21  C4         2.3030   19.4800   23.7730 C.1   151  THP151      0.2134
     22  O4         1.7860   20.5700   23.5520 O.2   151  THP151     -0.2088
     23  C5         2.7260   18.5410   22.7850 C.2   151  THP151      0.0891
     24  C5M        2.5940   18.9050   21.3100 C.3   151  THP151      0.0462
     25  C6         3.2380   17.3660   23.1710 C.2   151  THP151      0.0877
@<TRIPOS>BOND
     1     2     1    2
     2     4     1    1
     3     1     3    1
     4     1     9    1
     5    24    23    1
     6     9    10    1
     7    10    11    1
     8    23    25    2
     9    23    21    1
    10    25    17    1
    11    22    21    2
    12    11    12    1
    13    11    13    1
    14    21    20    2
    15    12    16    1
    16    17    16    1
    17    17    18   am
    18    13    15    1
    19    13    14    1
    20    16    15    1
    21    20    18    2
    22     6     5    2
    23     7     5    1
    24    18    19    2
    25    14     5    1
    26     5     8    1
