@<TRIPOS>MOLECULE
1su2_ATP_A_1.pdb
 31 33 0 0 0
SMALL
GASTEIGER

@<TRIPOS>ATOM
      1  PG        45.0510   -0.3430  -26.0250 P.3   357  ATP357      0.5373
      2  O1G       45.7120   -1.4580  -25.2860 O.3   357  ATP357     -0.1143
      3  O2G       44.0630    0.4300  -25.1280 O.3   357  ATP357     -0.1143
      4  O3G       46.1390    0.5970  -26.5550 O.2   357  ATP357     -0.2221
      5  PB        43.4680   -2.3100  -27.3260 P.3   357  ATP357      0.2277
      6  O1B       42.0810   -1.9630  -27.7040 O.2   357  ATP357     -0.5168
      7  O2B       43.5920   -3.0710  -26.0140 O.3   357  ATP357     -0.4368
      8  O3B       44.2890   -0.9590  -27.3190 O.3   357  ATP357     -0.2258
      9  PA        44.8020   -2.5860  -29.8790 P.3   357  ATP357      0.2189
     10  O1A       44.8770   -3.7230  -30.8150 O.2   357  ATP357     -0.5170
     11  O2A       44.0190   -1.4180  -30.4630 O.3   357  ATP357     -0.4371
     12  O3A       44.1180   -3.1200  -28.5470 O.3   357  ATP357     -0.2700
     13  O5'       46.2870   -2.1760  -29.4380 O.3   357  ATP357     -0.3112
     14  C5'       46.5280   -1.1300  -28.5100 C.3   357  ATP357      0.1813
     15  C4'       47.9760   -1.1830  -28.0170 C.3   357  ATP357      0.1821
     16  O4'       48.8130   -0.5420  -28.9500 O.3   357  ATP357     -0.3135
     17  C3'       48.1490   -0.4820  -26.6940 C.3   357  ATP357      0.2184
     18  O3'       48.9550   -1.3330  -25.8810 O.3   357  ATP357     -0.2174
     19  C2'       48.7890    0.8610  -27.0590 C.3   357  ATP357      0.2570
     20  O2'       49.6020    1.4890  -26.1160 O.3   357  ATP357     -0.2130
     21  C1'       49.5390    0.5250  -28.3320 C.3   357  ATP357      0.3186
     22  N9        49.6110    1.5060  -29.4600 N.pl3 357  ATP357     -0.1439
     23  C8        48.8030    1.4700  -30.5750 C.3   357  ATP357      0.3377
     24  N7        49.1510    2.4830  -31.3460 N.2   357  ATP357     -0.2095
     25  C5        50.1680    3.2060  -30.7960 C.2   357  ATP357      0.2526
     26  C6        50.9370    4.3470  -31.1270 C.2   357  ATP357      0.4393
     27  N6        50.8170    5.0830  -32.2190 N.pl3 357  ATP357      0.2180
     28  N1        51.9290    4.7810  -30.2490 N.2   357  ATP357      0.0021
     29  C2        52.1810    4.1250  -29.0670 C.3   357  ATP357      0.5254
     30  N3        51.4430    3.0090  -28.7210 N.2   357  ATP357     -0.0055
     31  C4        50.4600    2.5640  -29.5750 C.2   357  ATP357      0.3518
@<TRIPOS>BOND
     1    27    26    1
     2    24    25    2
     3    24    23    1
     4    26    25    1
     5    26    28    2
     6    10     9    2
     7    25    31    1
     8    23    22    1
     9    11     9    1
    10    28    29    1
    11     9    13    1
    12     9    12    1
    13    31    22    1
    14    31    30    2
    15    22    21    1
    16    13    14    1
    17    29    30    1
    18    16    21    1
    19    16    15    1
    20    12     5    1
    21    14    15    1
    22    21    19    1
    23    15    17    1
    24     6     5    2
    25     5     8    1
    26     5     7    1
    27     8     1    1
    28    19    17    1
    29    19    20    1
    30    17    18    1
    31     4     1    2
    32     1     2    1
    33     1     3    1
