@<TRIPOS>MOLECULE
1su6_NFS_A_1.pdb
 10 19 0 0 0
SMALL
GASTEIGER

@<TRIPOS>ATOM
      1 NI1        54.9080   12.4540   47.4400 Ni    1466  NFS1466     0.0000
      2 FE1        53.3810   13.8380   49.3970 Fe    1466  NFS1466     0.0000
      3 FE2        54.4890   10.3050   50.4850 Fe    1466  NFS1466     0.0000
      4 FE3        54.5510    9.5570   47.7360 Fe    1466  NFS1466     0.0000
      5 FE4        52.4750   10.6510   48.7520 Fe    1466  NFS1466     0.0000
      6  S1        52.9720   11.9100   50.5200 S.3   1466  NFS1466     0.0000
      7  S2        53.5550   14.2510   47.1980 S.3   1466  NFS1466     0.0000
      8  S3        53.3860   11.0090   46.6280 S.3   1466  NFS1466     0.0000
      9  S4        53.3530    8.5560   49.4080 S.3   1466  NFS1466     0.0000
     10  S5        56.0690   10.8150   48.7660 S.3   1466  NFS1466     0.0000
@<TRIPOS>BOND
     1     8     1    1
     2     8     4    1
     3     8     5    1
     4     7     1    1
     5     7     2    1
     6     1     4    1
     7     1    10    1
     8     1     2    1
     9     4     5    1
    10     4    10    1
    11     4     9    1
    12     4     3    1
    13     5     9    1
    14     5     3    1
    15     5     6    1
    16    10     3    1
    17     2     6    1
    18     9     3    1
    19     3     6    1
