@<TRIPOS>MOLECULE
1su7_NFS_A_1.pdb
 10 19 0 0 0
SMALL
GASTEIGER

@<TRIPOS>ATOM
      1 NI1        54.7370   12.2630   47.1370 Ni    639  NFS639      0.0000
      2 FE1        53.1530   13.6450   49.0490 Fe    639  NFS639      0.0000
      3 FE2        54.3460   10.1420   50.1050 Fe    639  NFS639      0.0000
      4 FE3        54.3380    9.4710   47.4520 Fe    639  NFS639      0.0000
      5 FE4        52.2250   10.4970   48.4500 Fe    639  NFS639      0.0000
      6  S1        52.7970   11.8010   50.2030 S.3   639  NFS639      0.0000
      7  S2        53.4200   14.0160   46.8310 S.3   639  NFS639      0.0000
      8  S3        53.1120   10.9170   46.3820 S.3   639  NFS639      0.0000
      9  S4        53.1240    8.4760   49.1760 S.3   639  NFS639      0.0000
     10  S5        55.8950   10.7690   48.4420 S.3   639  NFS639      0.0000
@<TRIPOS>BOND
     1     8     1    1
     2     8     4    1
     3     8     5    1
     4     7     1    1
     5     7     2    1
     6     1     4    1
     7     1    10    1
     8     1     2    1
     9     4    10    1
    10     4     5    1
    11     4     9    1
    12     4     3    1
    13    10     3    1
    14     5     9    1
    15     5     3    1
    16     5     6    1
    17     2     6    1
    18     9     3    1
    19     3     6    1
