@<TRIPOS>MOLECULE
1su8_NFS_A_1.pdb
 10 19 0 0 0
SMALL
GASTEIGER

@<TRIPOS>ATOM
      1 NI1        54.9180   12.4500   47.3030 Ni    639  NFS639      0.0000
      2 FE1        53.2890   13.8420   49.1400 Fe    639  NFS639      0.0000
      3 FE2        54.5130   10.3020   50.1880 Fe    639  NFS639      0.0000
      4 FE3        54.4940    9.6090   47.5460 Fe    639  NFS639      0.0000
      5 FE4        52.3960   10.6940   48.5990 Fe    639  NFS639      0.0000
      6  S1        52.9280   11.9430   50.4450 S.3   639  NFS639      0.0000
      7  S2        53.5410   14.2200   46.8900 S.3   639  NFS639      0.0000
      8  S3        53.2740   11.1340   46.5170 S.3   639  NFS639      0.0000
      9  S4        53.2890    8.5970   49.2590 S.3   639  NFS639      0.0000
     10  S5        56.0900   10.8820   48.5310 S.3   639  NFS639      0.0000
@<TRIPOS>BOND
     1     8     1    1
     2     8     4    1
     3     8     5    1
     4     7     1    1
     5     7     2    1
     6     1     4    1
     7     1    10    1
     8     1     2    1
     9     4    10    1
    10     4     5    1
    11     4     9    1
    12     4     3    1
    13    10     3    1
    14     5     9    1
    15     5     3    1
    16     5     6    1
    17     2     6    1
    18     9     3    1
    19     3     6    1
