@<TRIPOS>MOLECULE
1sua_III_C_1.pdb
 27 26 0 0 0
SMALL
GASTEIGER

@<TRIPOS>ATOM
      1  N         29.9420    6.0650   15.9150 N.3   674  ALA674     -0.1231
      2  CA        29.2560    5.9070   17.1950 C.3   674  ALA674      0.1694
      3  C         27.9040    5.2350   17.1040 C.2   674  ALA674      0.2592
      4  O         27.0200    5.5420   16.2960 O.2   674  ALA674     -0.2718
      5  CB        29.2810    7.1370   18.0410 C.3   674  ALA674      0.0304
      6  N         27.7290    4.2830   18.0120 N.am  675  LEU675     -0.1966
      7  CA        26.5920    3.4010   18.1630 C.3   675  LEU675      0.1728
      8  C         25.9720    3.4330   19.5380 C.2   675  LEU675      0.2616
      9  O         26.5910    3.7410   20.5750 O.2   675  LEU675     -0.2715
     10  CB        27.0880    2.0180   17.6850 C.3   675  LEU675      0.0311
     11  CG        26.1880    0.9560   17.1670 C.3   675  LEU675      0.0022
     12  CD1       25.7940    1.1200   15.6980 C.3   675  LEU675      0.0001
     13  CD2       26.9460   -0.3890   17.3110 C.3   675  LEU675      0.0001
     14  N         24.6870    3.0810   19.5780 N.am  676  ALA676     -0.1963
     15  CA        23.8710    3.0150   20.7990 C.3   676  ALA676      0.1728
     16  C         24.3110    1.8820   21.6980 C.2   676  ALA676      0.2617
     17  O         24.5580    0.7370   21.2660 O.2   676  ALA676     -0.2715
     18  CB        22.3970    3.0170   20.4550 C.3   676  ALA676      0.0334
     19  N         24.4910    2.2230   22.9800 N.am  677  LEU677     -0.1942
     20  CA        24.9790    1.2930   23.9810 C.3   677  LEU677      0.1978
     21  C         24.0480    0.3690   24.6450 C.2   677  LEU677      0.3842
     22  O         24.3730   -0.2690   25.7010 O.co2 677  LEU677     -0.2437
     23  CB        26.2550    1.8020   24.5920 C.3   677  LEU677      0.0333
     24  CG        27.5780    1.8410   23.8890 C.3   677  LEU677      0.0023
     25  CD1       28.6490    2.4490   24.8360 C.3   677  LEU677      0.0001
     26  CD2       28.0790    0.4490   23.4780 C.3   677  LEU677      0.0001
     27  OXT       22.9000    0.1630   24.1560 O.co2 677  LEU677     -0.2437
@<TRIPOS>BOND
     1    12    11    1
     2     1     2    1
     3     4     3    2
     4     3     2    1
     5     3     6   am
     6    11    13    1
     7    11    10    1
     8     2     5    1
     9    10     7    1
    10     6     7    1
    11     7     8    1
    12     8    14   am
    13     8     9    2
    14    14    15    1
    15    18    15    1
    16    15    16    1
    17    17    16    2
    18    16    19   am
    19    19    20    1
    20    26    24    1
    21    24    23    1
    22    24    25    1
    23    20    23    1
    24    20    21    1
    25    27    21   ar
    26    21    22   ar
