@<TRIPOS>MOLECULE
1sui_SAH_A_1.pdb
 26 28 0 0 0
SMALL
GASTEIGER

@<TRIPOS>ATOM
      1  N         27.1050   36.1250   21.5610 N.3   301  SAH301     -0.1208
      2  CA        28.2170   37.0970   21.9050 C.3   301  SAH301      0.1952
      3  CB        27.7410   38.5400   21.7880 C.3   301  SAH301      0.0422
      4  CG        28.5470   39.8480   22.0530 C.3   301  SAH301      0.0597
      5  SD        29.7950   40.3260   20.7640 S.3   301  SAH301     -0.1375
      6  C         28.6540   36.6460   23.3400 C.2   301  SAH301      0.3819
      7  O         29.8940   36.6050   23.5690 O.co2 301  SAH301     -0.2441
      8  OXT       27.7610   36.3120   24.1680 O.co2 301  SAH301     -0.2441
      9  C5'       28.8360   40.3500   19.2600 C.3   301  SAH301      0.0899
     10  C4'       29.5430   40.6290   17.9290 C.3   301  SAH301      0.1630
     11  O4'       28.8250   41.4850   17.0410 O.3   301  SAH301     -0.3153
     12  C3'       30.9450   41.2790   17.8920 C.3   301  SAH301      0.2168
     13  O3'       31.8370   40.3230   18.4470 O.3   301  SAH301     -0.2175
     14  C2'       31.1750   41.4910   16.3570 C.3   301  SAH301      0.2569
     15  O2'       32.1240   40.7820   15.6450 O.3   301  SAH301     -0.2130
     16  C1'       29.7410   41.4810   15.8970 C.3   301  SAH301      0.3185
     17  N9        29.2240   42.4900   14.9630 N.pl3 301  SAH301     -0.1439
     18  C8        29.4420   43.8390   15.0180 C.3   301  SAH301      0.3377
     19  N7        28.8440   44.4300   14.0580 N.2   301  SAH301     -0.2095
     20  C5        28.2180   43.4270   13.3320 C.2   301  SAH301      0.2526
     21  C6        27.3550   43.4750   12.1350 C.2   301  SAH301      0.4393
     22  N6        27.0750   44.6050   11.5090 N.pl3 301  SAH301      0.2180
     23  N1        26.9260   42.2810   11.7320 N.2   301  SAH301      0.0021
     24  C2        27.1940   41.1000   12.3500 C.3   301  SAH301      0.5254
     25  N3        27.9560   41.0200   13.4320 N.2   301  SAH301     -0.0055
     26  C4        28.4050   42.2160   13.8800 C.2   301  SAH301      0.3518
@<TRIPOS>BOND
     1    22    21    1
     2    23    21    2
     3    23    24    1
     4    21    20    1
     5    24    25    1
     6    20    26    1
     7    20    19    2
     8    25    26    2
     9    26    17    1
    10    19    18    1
    11    17    18    1
    12    17    16    1
    13    15    14    1
    14    16    14    1
    15    16    11    1
    16    14    12    1
    17    11    10    1
    18    12    10    1
    19    12    13    1
    20    10     9    1
    21     9     5    1
    22     5     4    1
    23     1     2    1
    24     3     2    1
    25     3     4    1
    26     2     6    1
    27     6     7   ar
    28     6     8   ar
