@<TRIPOS>MOLECULE
1suo_CPZ_A_1.pdb
 12 13 0 0 0
SMALL
GASTEIGER

@<TRIPOS>ATOM
      1  C11      -17.7410   89.4810    5.3500 C.ar  600  CPZ600      0.0021
      2  C10      -16.6500   88.8610    4.7440 C.ar  600  CPZ600      0.0114
      3  C9       -16.5790   88.7450    3.3580 C.ar  600  CPZ600      0.0577
      4  C8       -17.6190   89.2440    2.5760 C.ar  600  CPZ600      0.0114
      5  C7       -18.7070   89.8650    3.1890 C.ar  600  CPZ600      0.0021
      6  C6       -18.7800   89.9930    4.5740 C.ar  600  CPZ600      0.0156
      7  C4       -19.8780   90.6260    5.1560 C.2   600  CPZ600      0.0853
      8  C2       -20.3400   90.4700    6.3940 C.3   600  CPZ600      0.1726
      9  N1       -21.4290   91.2200    6.5600 N.2   600  CPZ600     -0.2436
     10  C5       -21.6370   91.8490    5.4060 C.2   600  CPZ600      0.1943
     11  N3       -20.6890   91.4880    4.5480 N.2   600  CPZ600     -0.2267
     12 CL        -15.1590   88.1010    2.6040 Cl    600  CPZ600     -0.0822
@<TRIPOS>BOND
     1     4     5   ar
     2     4     3   ar
     3    12     3    1
     4     5     6   ar
     5     3     2   ar
     6    11     7    2
     7    11    10    1
     8     6     7    1
     9     6     1   ar
    10     2     1   ar
    11     7     8    1
    12    10     9    2
    13     8     9    1
