@<TRIPOS>MOLECULE
1suo_HEM_A_1.pdb
 43 50 0 0 0
SMALL
GASTEIGER

@<TRIPOS>ATOM
      1 FE        -22.7510   91.1140    8.2390 Fe    500  HEM500      0.0000
      2  CHA      -20.9120   88.4790    9.3250 C.2   500  HEM500      0.0000
      3  CHB      -24.7460   89.0900    6.5320 C.2   500  HEM500      0.0000
      4  CHC      -24.5190   93.7570    7.1620 C.2   500  HEM500      0.0000
      5  CHD      -20.8920   93.0720   10.2310 C.2   500  HEM500      0.0000
      6  NA       -22.7820   89.1470    7.8870 N.ar  500  HEM500      0.0000
      7  C1A      -21.8890   88.1970    8.3410 C.ar  500  HEM500      0.0000
      8  C2A      -22.1880   86.9650    7.7900 C.ar  500  HEM500      0.0000
      9  C3A      -23.3080   87.1550    6.9750 C.ar  500  HEM500      0.0000
     10  C4A      -23.6260   88.4900    7.0720 C.ar  500  HEM500      0.0000
     11  CMA      -24.0750   86.0670    6.1020 C.3   500  HEM500      0.0000
     12  CAA      -21.4220   85.6470    8.0480 C.3   500  HEM500      0.0000
     13  CBA      -21.9460   84.8950    9.2130 C.3   500  HEM500      0.0000
     14  CGA      -21.1960   83.6200    9.3860 C.2   500  HEM500      0.0000
     15  O1A      -19.9520   83.6420    9.5450 O.co2 500  HEM500      0.0000
     16  O2A      -21.7990   82.5600    9.3180 O.co2 500  HEM500      0.0000
     17  NB       -24.3470   91.3930    6.8940 N.2   500  HEM500      0.0000
     18  C1B      -24.9950   90.4360    6.2790 C.2   500  HEM500      0.0000
     19  C2B      -26.1100   90.9700    5.5070 C.2   500  HEM500      0.0000
     20  C3B      -26.0450   92.3640    5.7330 C.2   500  HEM500      0.0000
     21  C4B      -24.9050   92.5470    6.6260 C.2   500  HEM500      0.0000
     22  CMB      -27.0850   90.1090    4.6520 C.3   500  HEM500      0.0000
     23  CAB      -26.8480   93.4270    5.2420 C.3   500  HEM500      0.0000
     24  CBB      -28.1120   93.3390    4.5250 C.3   500  HEM500      0.0000
     25  NC       -22.6840   93.1060    8.6150 N.ar  500  HEM500      0.0000
     26  C1C      -23.5630   94.0410    8.1650 C.ar  500  HEM500      0.0000
     27  C2C      -23.3620   95.2670    8.7430 C.ar  500  HEM500      0.0000
     28  C3C      -22.2700   95.1210    9.6220 C.ar  500  HEM500      0.0000
     29  C4C      -21.8820   93.7570    9.5090 C.ar  500  HEM500      0.0000
     30  CMC      -24.1890   96.5920    8.4830 C.3   500  HEM500      0.0000
     31  CAC      -21.6430   96.0370   10.4550 C.3   500  HEM500      0.0000
     32  CBC      -22.1450   97.1710   11.0860 C.3   500  HEM500      0.0000
     33  ND       -21.1260   90.8460    9.5520 N.2   500  HEM500      0.0000
     34  C1D      -20.5010   91.8110   10.1650 C.2   500  HEM500      0.0000
     35  C2D      -19.4110   91.2760   10.9140 C.2   500  HEM500      0.0000
     36  C3D      -19.4360   89.9220   10.7050 C.2   500  HEM500      0.0000
     37  C4D      -20.5410   89.7070    9.8300 C.2   500  HEM500      0.0000
     38  CMD      -18.4180   92.0970   11.7820 C.3   500  HEM500      0.0000
     39  CAD      -18.5110   88.8210   11.2620 C.3   500  HEM500      0.0000
     40  CBD      -19.1160   88.2880   12.5790 C.3   500  HEM500      0.0000
     41  CGD      -18.2700   87.2300   13.3530 C.2   500  HEM500      0.0000
     42  O1D      -18.4440   87.0630   14.5290 O.co2 500  HEM500      0.0000
     43  O2D      -17.4060   86.6030   12.7380 O.co2 500  HEM500      0.0000
@<TRIPOS>BOND
     1    24    23    1
     2    22    19    1
     3    23    20    1
     4    19    20    2
     5    19    18    1
     6    20    21    1
     7    11     9    1
     8    18     3    1
     9    18    17    2
    10     3    10    2
    11    21    17    1
    12    21     4    2
    13    17     1    1
    14     9    10   ar
    15     9     8   ar
    16    10     6   ar
    17     4    26    1
    18     8    12    1
    19     8     7   ar
    20     6     1    1
    21     6     7   ar
    22    12    13    1
    23    26    25   ar
    24    26    27   ar
    25     1    25    1
    26     1    33    1
    27     7     2    2
    28    30    27    1
    29    25    29   ar
    30    27    28   ar
    31    13    14    1
    32    16    14   ar
    33     2    37    1
    34    14    15   ar
    35    29    28   ar
    36    29     5    1
    37    33    37    2
    38    33    34    1
    39    28    31    1
    40    37    36    1
    41    34     5    2
    42    34    35    1
    43    31    32    1
    44    36    35    2
    45    36    39    1
    46    35    38    1
    47    39    40    1
    48    40    41    1
    49    43    41   ar
    50    41    42   ar
