@<TRIPOS>MOLECULE
1suq_185_A_1.pdb
 29 31 0 0 0
SMALL
GASTEIGER

@<TRIPOS>ATOM
      1  C1       144.7080  -24.5500   73.6240 C.ar  600  185600      0.1399
      2  O17      144.3110  -23.9860   72.4180 O.3   600  185600     -0.4297
      3  C2       143.9670  -24.2750   74.8090 C.ar  600  185600      0.0131
      4  C2'      142.7560  -23.3380   74.8150 C.3   600  185600      0.0342
      5  C3       144.3570  -24.8560   76.0200 C.ar  600  185600      0.0090
      6  C4       145.4610  -25.7240   76.0670 C.ar  600  185600      0.0680
      7  C5       146.2100  -25.9990   74.9030 C.ar  600  185600      0.0090
      8  C6       145.8360  -25.4210   73.6740 C.ar  600  185600      0.0131
      9  C6'      146.6590  -25.7200   72.4170 C.3   600  185600      0.0342
     10  C13      143.3270  -24.7330   71.7060 C.2   600  185600      0.2865
     11  N12      142.8260  -25.9170   72.1760 N.2   600  185600     -0.2920
     12  C11      141.8830  -26.6200   71.4830 C.1   600  185600      0.2270
     13  N5       141.3700  -27.7970   71.9280 N.pl3 600  185600     -0.1254
     14  N16      141.4440  -26.1300   70.2920 N.2   600  185600     -0.3264
     15  C15      141.9170  -24.9540   69.7780 C.2   600  185600      0.1849
     16  C18      141.3650  -24.5000   68.4410 C.2   600  185600      0.2639
     17  C14      142.8850  -24.2410   70.4990 C.3   600  185600      0.2029
     18  C21      141.8320  -28.6130   72.9380 C.ar  600  185600      0.0836
     19  C22      142.9960  -28.3540   73.7630 C.ar  600  185600      0.0181
     20  C23      143.3830  -29.2810   74.7860 C.ar  600  185600      0.0116
     21  C24      142.5960  -30.4590   74.9830 C.ar  600  185600      0.0685
     22  C25      141.4730  -30.6950   74.1770 C.ar  600  185600      0.0116
     23  C26      141.0980  -29.7830   73.1760 C.ar  600  185600      0.0181
     24  C27      142.9300  -31.4310   75.9870 C.1   600  185600      0.1004
     25  N27      143.1700  -32.2440   76.7800 N.1   600  185600     -0.1908
     26  C4'      145.8070  -26.3070   77.3200 C.1   600  185600      0.1004
     27  N4'      146.0830  -26.7610   78.3400 N.1   600  185600     -0.1908
     28  O18      140.8520  -23.3520   68.2440 O.2   600  185600     -0.2806
     29 BR        143.5880  -22.6790   69.9330 Br    600  185600     -0.0626
@<TRIPOS>BOND
     1    28    16    2
     2    16    15    1
     3    15    14    2
     4    15    17    1
     5    29    17    1
     6    14    12    2
     7    17    10    1
     8    12    13    1
     9    12    11    2
    10    10    11    2
    11    10     2    1
    12    13    18    1
    13     9     8    1
    14     2     1    1
    15    18    23   ar
    16    18    19   ar
    17    23    22   ar
    18     1     8   ar
    19     1     3   ar
    20     8     7   ar
    21    19    20   ar
    22    22    21   ar
    23    20    21   ar
    24     3     4    1
    25     3     5   ar
    26     7     6   ar
    27    21    24    1
    28    24    25    3
    29     5     6   ar
    30     6    26    1
    31    26    27    3
