@<TRIPOS>MOLECULE
1sus_SAH_A_1.pdb
 26 28 0 0 0
SMALL
GASTEIGER

@<TRIPOS>ATOM
      1  N         27.5040   36.2050   21.8090 N.3   301  SAH301     -0.1208
      2  CA        28.7070   37.0660   22.1170 C.3   301  SAH301      0.1952
      3  CB        28.3120   38.5320   22.1390 C.3   301  SAH301      0.0422
      4  CG        29.1720   39.8060   22.4350 C.3   301  SAH301      0.0597
      5  SD        30.4150   40.3860   21.1840 S.3   301  SAH301     -0.1375
      6  C         29.2920   36.4930   23.4660 C.2   301  SAH301      0.3819
      7  O         30.5520   36.4380   23.5510 O.co2 301  SAH301     -0.2441
      8  OXT       28.4980   36.1000   24.3720 O.co2 301  SAH301     -0.2441
      9  C5'       29.5230   40.3390   19.6140 C.3   301  SAH301      0.0899
     10  C4'       30.2420   40.6800   18.2640 C.3   301  SAH301      0.1630
     11  O4'       29.5220   41.5450   17.3490 O.3   301  SAH301     -0.3153
     12  C3'       31.6380   41.3620   18.2400 C.3   301  SAH301      0.2168
     13  O3'       32.5490   40.4240   18.7690 O.3   301  SAH301     -0.2175
     14  C2'       31.8790   41.5980   16.7110 C.3   301  SAH301      0.2569
     15  O2'       32.8390   40.9290   16.0020 O.3   301  SAH301     -0.2130
     16  C1'       30.4670   41.5700   16.2250 C.3   301  SAH301      0.3185
     17  N9        29.9840   42.5780   15.2910 N.pl3 301  SAH301     -0.1439
     18  C8        30.1910   43.9260   15.3730 C.3   301  SAH301      0.3377
     19  N7        29.6400   44.5310   14.3880 N.2   301  SAH301     -0.2095
     20  C5        29.0480   43.5400   13.6290 C.2   301  SAH301      0.2526
     21  C6        28.2720   43.6060   12.3820 C.2   301  SAH301      0.4393
     22  N6        28.0240   44.7570   11.7770 N.pl3 301  SAH301      0.2180
     23  N1        27.8530   42.4140   11.9330 N.2   301  SAH301      0.0021
     24  C2        28.0980   41.2140   12.5400 C.3   301  SAH301      0.5254
     25  N3        28.7950   41.1170   13.6650 N.2   301  SAH301     -0.0055
     26  C4        29.2360   42.3120   14.1510 C.2   301  SAH301      0.3518
@<TRIPOS>BOND
     1    22    21    1
     2    23    21    2
     3    23    24    1
     4    21    20    1
     5    24    25    1
     6    20    26    1
     7    20    19    2
     8    25    26    2
     9    26    17    1
    10    19    18    1
    11    17    18    1
    12    17    16    1
    13    15    14    1
    14    16    14    1
    15    16    11    1
    16    14    12    1
    17    11    10    1
    18    12    10    1
    19    12    13    1
    20    10     9    1
    21     9     5    1
    22     5     4    1
    23     1     2    1
    24     2     3    1
    25     2     6    1
    26     3     4    1
    27     6     7   ar
    28     6     8   ar
