@<TRIPOS>MOLECULE
1suw_NAP_A_1.pdb
 48 52 0 0 0
SMALL
GASTEIGER

@<TRIPOS>ATOM
      1  PA       105.1490   24.9740   81.1790 P.3   3075  NAP3075     0.2189
      2  O1A      106.4570   25.4810   81.0920 O.3   3075  NAP3075    -0.4371
      3  O2A      104.0040   24.6480   80.2660 O.2   3075  NAP3075    -0.5170
      4  O5B      104.5560   25.3250   82.6420 O.3   3075  NAP3075    -0.3112
      5  C5B      103.3180   24.7110   83.0670 C.3   3075  NAP3075     0.1813
      6  C4B      103.7250   23.7640   84.2570 C.3   3075  NAP3075     0.1820
      7  O4B      102.4080   23.1830   84.6150 O.3   3075  NAP3075    -0.3136
      8  C3B      104.5540   22.5350   83.8440 C.3   3075  NAP3075     0.2157
      9  O3B      105.2660   22.1920   85.0370 O.3   3075  NAP3075    -0.2175
     10  C2B      103.5350   21.4720   83.4610 C.3   3075  NAP3075     0.2314
     11  O2B      103.9830   20.1160   83.5990 O.3   3075  NAP3075    -0.2630
     12  C1B      102.3350   21.7710   84.4140 C.3   3075  NAP3075     0.3158
     13  N9A      101.0630   21.4980   83.7760 N.pl3 3075  NAP3075    -0.1439
     14  C8A      100.6380   21.7000   82.4840 C.3   3075  NAP3075     0.3377
     15  N7A       99.3860   21.3510   82.2630 N.2   3075  NAP3075    -0.2095
     16  C5A       98.9690   20.8910   83.4980 C.2   3075  NAP3075     0.2526
     17  C6A       97.7160   20.3940   83.8870 C.2   3075  NAP3075     0.4393
     18  N6A       96.6160   20.2570   83.1130 N.pl3 3075  NAP3075     0.2180
     19  N1A       97.5870   19.9990   85.2160 N.2   3075  NAP3075     0.0021
     20  C2A       98.6580   20.0960   86.1150 C.3   3075  NAP3075     0.5254
     21  N3A       99.9000   20.5900   85.7590 N.2   3075  NAP3075    -0.0055
     22  C4A      100.0070   20.9740   84.4360 C.2   3075  NAP3075     0.3518
     23  O3       104.7410   26.5110   80.8130 O.3   3075  NAP3075    -0.2703
     24  PN       103.6230   27.3210   79.9170 P.3   3075  NAP3075     0.2189
     25  O1N      104.0290   27.3970   78.5010 O.2   3075  NAP3075    -0.5170
     26  O2N      103.4410   28.6140   80.5980 O.3   3075  NAP3075    -0.4371
     27  O5D      102.3290   26.3930   79.9830 O.3   3075  NAP3075    -0.3112
     28  C5D      100.9890   26.9800   79.9770 C.3   3075  NAP3075     0.1813
     29  C4D      100.1360   26.1350   80.8800 C.3   3075  NAP3075     0.1799
     30  O4D      100.7150   26.1450   82.1980 O.3   3075  NAP3075    -0.3327
     31  C3D       98.6750   26.6300   81.0350 C.3   3075  NAP3075     0.2158
     32  O3D       97.7630   25.7280   80.4050 O.3   3075  NAP3075    -0.2175
     33  C2D       98.4260   26.7480   82.5380 C.3   3075  NAP3075     0.2309
     34  O2D       97.5000   25.8080   83.0560 O.3   3075  NAP3075    -0.2158
     35  C1D       99.7490   26.5730   83.1950 C.3   3075  NAP3075     0.2263
     36  N1N      100.2920   27.7980   83.8460 N.pl3 3075  NAP3075    -0.2787
     37  C2N      100.2820   27.9360   85.2540 C.3   3075  NAP3075     0.1244
     38  C3N      100.7810   29.1150   85.8090 C.2   3075  NAP3075     0.0544
     39  C7N      100.7570   29.2560   87.3340 C.2   3075  NAP3075     0.2818
     40  O7N      101.1780   30.2910   87.7980 O.2   3075  NAP3075    -0.2670
     41  N7N      100.2870   28.2940   88.0760 N.am  3075  NAP3075    -0.0839
     42  C4N      101.3140   30.1990   84.9750 C.2   3075  NAP3075     0.0033
     43  C5N      101.3100   30.0190   83.5620 C.2   3075  NAP3075     0.0157
     44  C6N      100.8030   28.8250   82.9690 C.2   3075  NAP3075     0.0633
     45  P2B      105.3030   19.4870   82.8620 P.3   3075  NAP3075     0.5328
     46  O1X      105.2160   17.9810   83.1310 O.3   3075  NAP3075    -0.1145
     47  O2X      105.0710   19.8440   81.4360 O.2   3075  NAP3075    -0.2224
     48  O3X      106.5220   20.0940   83.5080 O.3   3075  NAP3075    -0.1145
@<TRIPOS>BOND
     1    25    24    2
     2    24    27    1
     3    24    26    1
     4    24    23    1
     5    28    27    1
     6    28    29    1
     7     3     1    2
     8    32    31    1
     9    23     1    1
    10    29    31    1
    11    29    30    1
    12    31    33    1
    13     2     1    1
    14     1     4    1
    15    47    45    2
    16    30    35    1
    17    15    14    1
    18    15    16    2
    19    14    13    1
    20    33    34    1
    21    33    35    1
    22     4     5    1
    23    45    46    1
    24    45    48    1
    25    45    11    1
    26    44    43    2
    27    44    36    1
    28     5     6    1
    29    18    17    1
    30    35    36    1
    31    10    11    1
    32    10     8    1
    33    10    12    1
    34    16    17    1
    35    16    22    1
    36    43    42    1
    37    13    12    1
    38    13    22    1
    39     8     6    1
    40     8     9    1
    41    36    37    1
    42    17    19    2
    43     6     7    1
    44    12     7    1
    45    22    21    2
    46    42    38    2
    47    19    20    1
    48    37    38    1
    49    21    20    1
    50    38    39    1
    51    39    40    2
    52    39    41   am
