@<TRIPOS>MOLECULE
1sv3_ANN_A_1.pdb
 11 11 0 0 0
SMALL
GASTEIGER

@<TRIPOS>ATOM
      1  C8        46.4200   30.7860    7.8740 C.3   347  ANN347      0.2525
      2  O3        46.5350   30.4990    6.4750 O.3   347  ANN347     -0.4714
      3  C5        47.5800   30.9340    5.6840 C.ar  347  ANN347      0.1387
      4  C6        47.6250   30.5410    4.3510 C.ar  347  ANN347      0.0371
      5  C7        48.6570   30.9560    3.5140 C.ar  347  ANN347      0.0097
      6  C2        49.6670   31.7750    4.0070 C.ar  347  ANN347      0.0800
      7  C3        49.6250   32.1760    5.3340 C.ar  347  ANN347      0.0097
      8  C4        48.5940   31.7570    6.1740 C.ar  347  ANN347      0.0371
      9  C1        50.7940   32.2310    3.1220 C.2   347  ANN347      0.3878
     10  O1        51.6910   32.9540    3.5400 O.co2 347  ANN347     -0.2406
     11  O2        50.8170   31.8340    1.8630 O.co2 347  ANN347     -0.2406
@<TRIPOS>BOND
     1    11     9   ar
     2     9    10   ar
     3     9     6    1
     4     5     6   ar
     5     5     4   ar
     6     6     7   ar
     7     4     3   ar
     8     7     8   ar
     9     3     8   ar
    10     3     2    1
    11     2     1    1
