@<TRIPOS>MOLECULE
1sv5_65B_A_1.pdb
 28 30 0 0 0
SMALL
GASTEIGER

@<TRIPOS>ATOM
      1  C1       142.7920  -23.4950   70.4200 C.ar  600  65B600      0.1399
      2  O17      142.9310  -24.0970   69.1330 O.3   600  65B600     -0.4297
      3  C2       142.5130  -22.0480   70.5450 C.ar  600  65B600      0.0131
      4  C2'      142.3470  -21.1110   69.3330 C.3   600  65B600      0.0342
      5  C3       142.3720  -21.4570   71.8410 C.ar  600  65B600      0.0090
      6  C4       142.5070  -22.2410   73.0190 C.ar  600  65B600      0.0680
      7  C5       142.7760  -23.6380   72.9270 C.ar  600  65B600      0.0090
      8  C6       142.9310  -24.2880   71.6580 C.ar  600  65B600      0.0131
      9  C6'      143.2300  -25.8030   71.6560 C.3   600  65B600      0.0342
     10  C13      141.7050  -24.8410   68.7680 C.2   600  65B600      0.2879
     11  N12      141.3290  -25.9770   69.4660 N.2   600  65B600     -0.2919
     12  C11      140.1610  -26.7320   69.1730 C.1   600  65B600      0.2282
     13  N5       139.7860  -27.8620   69.8750 N.pl3 600  65B600     -0.1253
     14  N16      139.3680  -26.3060   68.1200 N.2   600  65B600     -0.3114
     15  C15      139.6950  -25.1800   67.3880 C.2   600  65B600      0.2304
     16  N18      138.8870  -24.8430   66.3950 N.pl3 600  65B600     -0.0955
     17  C14      140.8770  -24.4230   67.7100 C.3   600  65B600      0.2171
     18  C21      140.5560  -28.6260   70.7580 C.ar  600  65B600      0.0836
     19  C22      140.7640  -28.3680   72.2430 C.ar  600  65B600      0.0181
     20  C23      141.5980  -29.2440   73.0480 C.ar  600  65B600      0.0116
     21  C24      142.2180  -30.3750   72.3780 C.ar  600  65B600      0.0685
     22  C25      142.0150  -30.6180   70.9750 C.ar  600  65B600      0.0116
     23  C26      141.1940  -29.7550   70.1820 C.ar  600  65B600      0.0181
     24  C27      143.0600  -31.2900   73.0940 C.1   600  65B600      0.1004
     25  N27      143.7680  -32.0460   73.6420 N.1   600  65B600     -0.1908
     26  C4'      142.3580  -21.6190   74.2960 C.1   600  65B600      0.1004
     27  N4'      142.2080  -21.1560   75.3450 N.1   600  65B600     -0.1908
     28 BR        141.3140  -22.9400   66.7900 Br    600  65B600     -0.0612
@<TRIPOS>BOND
     1    16    15    1
     2    28    17    1
     3    15    17    1
     4    15    14    2
     5    17    10    1
     6    14    12    2
     7    10     2    1
     8    10    11    2
     9     2     1    1
    10    12    11    2
    11    12    13    1
    12     4     3    1
    13    13    18    1
    14    23    18   ar
    15    23    22   ar
    16     1     3   ar
    17     1     8   ar
    18     3     5   ar
    19    18    19   ar
    20    22    21   ar
    21     9     8    1
    22     8     7   ar
    23     5     6   ar
    24    19    20   ar
    25    21    20   ar
    26    21    24    1
    27     7     6   ar
    28     6    26    1
    29    24    25    3
    30    26    27    3
