@<TRIPOS>MOLECULE
1sv9_DIF_A_1.pdb
 19 20 0 0 0
SMALL
GASTEIGER

@<TRIPOS>ATOM
      1  C1        46.2220   31.1910    8.4830 C.ar  701  DIF701      0.0128
      2  C2        47.3990   31.7050    7.9210 C.ar  701  DIF701      0.0737
      3 CL2        48.5880   31.9260    9.1220 Cl    701  DIF701     -0.0809
      4  C3        47.7020   32.0540    6.4820 C.ar  701  DIF701      0.0915
      5  C4        46.4750   31.7700    5.7190 C.ar  701  DIF701      0.0737
      6 CL4        46.7300   32.1790    4.0030 Cl    701  DIF701     -0.0809
      7  C5        45.2950   31.2460    6.3320 C.ar  701  DIF701      0.0128
      8  C6        45.1560   30.9550    7.6880 C.ar  701  DIF701      0.0018
      9  N1        48.7540   32.5530    5.6850 N.pl3 701  DIF701     -0.2111
     10  C7        50.7100   33.9430    4.8750 C.ar  701  DIF701      0.0043
     11  C8        49.6560   33.5420    5.8530 C.ar  701  DIF701      0.0671
     12  C9        49.5830   34.2400    7.0330 C.ar  701  DIF701      0.0162
     13  C10       50.4790   35.2870    7.2940 C.ar  701  DIF701      0.0013
     14  C11       51.4920   35.6870    6.3900 C.ar  701  DIF701     -0.0002
     15  C12       51.5950   35.0000    5.1770 C.ar  701  DIF701     -0.0024
     16  C13       50.9240   33.3110    3.5310 C.3   701  DIF701      0.1416
     17  C14       51.9500   33.2700    2.5460 C.2   701  DIF701      0.3693
     18  O1        52.5400   34.3500    2.4050 O.co2 701  DIF701     -0.2453
     19  O2        52.1230   32.1330    1.9810 O.co2 701  DIF701     -0.2453
@<TRIPOS>BOND
     1    19    17   ar
     2    18    17   ar
     3    17    16    1
     4    16    10    1
     5     6     5    1
     6    10    15   ar
     7    10    11   ar
     8    15    14   ar
     9     9    11    1
    10     9     4    1
    11     5     7   ar
    12     5     4   ar
    13    11    12   ar
    14     7     8   ar
    15    14    13   ar
    16     4     2   ar
    17    12    13   ar
    18     8     1   ar
    19     2     1   ar
    20     2     3    1
