@<TRIPOS>MOLECULE
1sve_I01_A_1.pdb
 37 40 0 0 0
SMALL
GASTEIGER

@<TRIPOS>ATOM
      1  F96       16.9640   11.9350   -3.5410 F     351  I01351     -0.2008
      2  C76       15.9570   11.6340   -4.3510 C.ar  351  I01351      0.1799
      3  C75       16.2740   10.9660   -5.4930 C.ar  351  I01351      0.1663
      4  O95       17.6140   10.6450   -5.6250 O.3   351  I01351     -0.4692
      5  C98       18.0870   10.2850   -6.9000 C.3   351  I01351      0.2526
      6  C74       15.2230   10.6400   -6.3710 C.ar  351  I01351      0.0425
      7  C73       13.9200   11.0270   -6.0500 C.ar  351  I01351      0.0454
      8  C72       13.6150   11.7500   -4.8430 C.ar  351  I01351      0.2011
      9  O92       12.4040   12.1290   -4.5410 O.3   351  I01351     -0.2864
     10  C71       14.7000   12.0480   -3.9720 C.ar  351  I01351      0.1082
     11  C61       14.5740   12.7890   -2.7270 C.2   351  I01351      0.2009
     12  O62       15.2440   13.8380   -2.5450 O.2   351  I01351     -0.2864
     13  C54       13.7560   12.3760   -1.5800 C.ar  351  I01351      0.0391
     14  C55       13.4500   11.0130   -1.3260 C.ar  351  I01351      0.0034
     15  C56       12.7050   10.6880   -0.1990 C.ar  351  I01351      0.0065
     16  C53       13.3220   13.3690   -0.6930 C.ar  351  I01351      0.0034
     17  C52       12.5900   13.0410    0.4190 C.ar  351  I01351      0.0065
     18  C51       12.2760   11.7040    0.6920 C.ar  351  I01351      0.0756
     19  C42       11.5170   11.4040    1.9110 C.2   351  I01351      0.3411
     20  O43       11.3180   12.2070    2.8330 O.2   351  I01351     -0.2449
     21  O41       11.0480   10.1530    2.0210 O.3   351  I01351     -0.4474
     22  C37       10.4780    9.6780    3.2170 C.3   351  I01351      0.1904
     23  C36       11.5910    9.3580    4.2390 C.3   351  I01351      0.0470
     24  C35       12.7930    8.5620    3.7120 C.3   351  I01351      0.0226
     25  C34       12.5100    7.0730    3.7520 C.3   351  I01351      0.0889
     26  N33       11.4120    6.7720    2.8210 N.3   351  I01351     -0.2161
     27  C32       10.0720    7.1110    3.3470 C.3   351  I01351      0.1140
     28  C31        9.5810    8.4880    2.8650 C.3   351  I01351      0.1528
     29  N23        8.2330    8.7490    3.3760 N.am  351  I01351     -0.1982
     30  C21        7.1170    8.9480    2.5610 C.2   351  I01351      0.2650
     31  O22        7.2630    9.0250    1.3290 O.2   351  I01351     -0.2684
     32  C14        5.7870    9.0600    3.1830 C.ar  351  I01351      0.0581
     33  C13        4.6600    9.1210    2.3520 C.ar  351  I01351      0.0252
     34  C12        3.3970    9.2150    2.9090 C.ar  351  I01351      0.0990
     35  N11        3.2440    9.2480    4.2950 N.ar  351  I01351     -0.2423
     36  C16        4.3410    9.1810    5.1320 C.ar  351  I01351      0.0990
     37  C15        5.6040    9.0860    4.5880 C.ar  351  I01351      0.0252
@<TRIPOS>BOND
     1     5     4    1
     2     6     7   ar
     3     6     3   ar
     4     7     8   ar
     5     4     3    1
     6     3     2   ar
     7     8     9    1
     8     8    10   ar
     9     2    10   ar
    10     2     1    1
    11    10    11    1
    12    11    12    2
    13    11    13    1
    14    13    14   ar
    15    13    16   ar
    16    14    15   ar
    17    16    17   ar
    18    15    18   ar
    19    17    18   ar
    20    18    19    1
    21    31    30    2
    22    19    21    1
    23    19    20    2
    24    21    22    1
    25    33    34   ar
    26    33    32   ar
    27    30    32    1
    28    30    29   am
    29    26    27    1
    30    26    25    1
    31    28    22    1
    32    28    27    1
    33    28    29    1
    34    34    35   ar
    35    32    37   ar
    36    22    23    1
    37    24    25    1
    38    24    23    1
    39    35    36   ar
    40    37    36   ar
