@<TRIPOS>MOLECULE
1svg_I04_A_1.pdb
 37 40 0 0 0
SMALL
GASTEIGER

@<TRIPOS>ATOM
      1  F96       17.1040   12.0200   -3.4210 F     351  I04351     -0.2008
      2  C76       16.1080   11.7360   -4.2890 C.ar  351  I04351      0.1799
      3  C75       16.3970   11.0580   -5.4640 C.ar  351  I04351      0.1663
      4  O95       17.7050   10.6830   -5.6690 O.3   351  I04351     -0.4692
      5  C98       18.0500   10.2530   -6.9860 C.3   351  I04351      0.2526
      6  C74       15.3430   10.7900   -6.3870 C.ar  351  I04351      0.0425
      7  C73       14.0600   11.1780   -6.0920 C.ar  351  I04351      0.0454
      8  C72       13.7500   11.8590   -4.8680 C.ar  351  I04351      0.2011
      9  O92       12.5420   12.2190   -4.6090 O.3   351  I04351     -0.2864
     10  C71       14.8190   12.1390   -3.9570 C.ar  351  I04351      0.1082
     11  C61       14.6480   12.8520   -2.7220 C.2   351  I04351      0.2009
     12  O62       15.3150   13.8970   -2.6300 O.2   351  I04351     -0.2864
     13  C54       13.8380   12.4570   -1.5650 C.ar  351  I04351      0.0391
     14  C55       13.6060   11.0960   -1.2660 C.ar  351  I04351      0.0033
     15  C56       12.8840   10.7200   -0.1470 C.ar  351  I04351      0.0047
     16  C53       13.3110   13.4530   -0.7260 C.ar  351  I04351      0.0033
     17  C52       12.5920   13.0820    0.3790 C.ar  351  I04351      0.0047
     18  C51       12.3790   11.7320    0.6820 C.ar  351  I04351      0.0550
     19  C42       11.6290   11.4110    1.8830 C.2   351  I04351      0.2648
     20  O43       11.5290   12.2580    2.7560 O.2   351  I04351     -0.2684
     21  N41       11.0620   10.1800    2.0090 N.am  351  I04351     -0.2016
     22  C37       10.5010    9.6830    3.2260 C.3   351  I04351      0.1170
     23  C36       11.6340    9.2690    4.2060 C.3   351  I04351      0.0250
     24  C35       12.6890    8.3300    3.5950 C.3   351  I04351      0.0206
     25  C34       12.2660    6.8630    3.5850 C.3   351  I04351      0.0888
     26  N33       11.0890    6.6130    2.7100 N.3   351  I04351     -0.2162
     27  C32        9.8640    7.0860    3.3330 C.3   351  I04351      0.1120
     28  C31        9.5190    8.5300    2.8830 C.3   351  I04351      0.1328
     29  N23        8.1940    8.7520    3.4130 N.am  351  I04351     -0.2002
     30  C21        7.1140    8.9730    2.5750 C.2   351  I04351      0.2649
     31  O22        7.2880    8.9940    1.3350 O.2   351  I04351     -0.2684
     32  C14        5.7780    9.1120    3.1660 C.ar  351  I04351      0.0581
     33  C13        4.6850    9.0500    2.2800 C.ar  351  I04351      0.0252
     34  C12        3.4040    9.1320    2.7500 C.ar  351  I04351      0.0990
     35  N11        3.1600    9.2440    4.1130 N.ar  351  I04351     -0.2423
     36  C16        4.2120    9.2980    5.0180 C.ar  351  I04351      0.0990
     37  C15        5.5190    9.2140    4.5440 C.ar  351  I04351      0.0252
@<TRIPOS>BOND
     1     5     4    1
     2     6     7   ar
     3     6     3   ar
     4     7     8   ar
     5     4     3    1
     6     3     2   ar
     7     8     9    1
     8     8    10   ar
     9     2    10   ar
    10     2     1    1
    11    10    11    1
    12    11    12    2
    13    11    13    1
    14    13    14   ar
    15    13    16   ar
    16    14    15   ar
    17    16    17   ar
    18    15    18   ar
    19    17    18   ar
    20    18    19    1
    21    31    30    2
    22    19    21   am
    23    19    20    2
    24    21    22    1
    25    33    34   ar
    26    33    32   ar
    27    30    32    1
    28    30    29   am
    29    26    27    1
    30    26    25    1
    31    34    35   ar
    32    28    22    1
    33    28    27    1
    34    28    29    1
    35    32    37   ar
    36    22    23    1
    37    25    24    1
    38    24    23    1
    39    35    36   ar
    40    37    36   ar
