@<TRIPOS>MOLECULE
1svh_I08_A_1.pdb
 36 39 0 0 0
SMALL
GASTEIGER

@<TRIPOS>ATOM
      1  F96       36.2690   16.2010    7.8140 F     351  I08351     -0.2008
      2  C76       35.2130   15.3860    7.9370 C.ar  351  I08351      0.1799
      3  C75       35.3840   14.2780    8.6890 C.ar  351  I08351      0.1663
      4  O95       36.6400   14.0420    9.2690 O.3   351  I08351     -0.4692
      5  C98       36.8280   12.7440    9.8580 C.3   351  I08351      0.2526
      6  C74       34.2510   13.4390    8.8510 C.ar  351  I08351      0.0425
      7  C73       33.0460   13.7300    8.2610 C.ar  351  I08351      0.0454
      8  C72       32.8590   14.9150    7.4870 C.ar  351  I08351      0.2011
      9  O92       31.7240   15.1980    6.9160 O.3   351  I08351     -0.2864
     10  C71       33.9910   15.7570    7.3450 C.ar  351  I08351      0.1082
     11  C61       33.9010   16.9490    6.5340 C.2   351  I08351      0.2009
     12  O62       34.5150   16.9800    5.4770 O.2   351  I08351     -0.2864
     13  C54       33.1070   18.1050    6.8670 C.ar  351  I08351      0.0391
     14  C55       32.6400   18.2520    8.2050 C.ar  351  I08351      0.0032
     15  C56       31.8910   19.3780    8.5770 C.ar  351  I08351      0.0001
     16  C53       32.8100   19.0590    5.8800 C.ar  351  I08351      0.0032
     17  C52       32.0510   20.1800    6.2420 C.ar  351  I08351      0.0001
     18  C51       31.5830   20.3500    7.5990 C.ar  351  I08351     -0.0003
     19  C42       30.8150   21.5280    7.9710 C.2   351  I08351     -0.0045
     20  C41       30.1810   21.6340    9.1630 C.2   351  I08351     -0.0247
     21  C37       29.4440   22.8840    9.5330 C.3   351  I08351      0.0435
     22  C36       30.5220   23.9530    9.9280 C.3   351  I08351      0.0076
     23  C35       31.5550   23.4730   10.9920 C.3   351  I08351      0.0192
     24  C34       30.9480   23.6260   12.3880 C.3   351  I08351      0.0888
     25  N33       29.7770   22.7130   12.5480 N.3   351  I08351     -0.2162
     26  C32       28.5170   23.2130   11.9460 C.3   351  I08351      0.1106
     27  C31       28.3080   22.6650   10.5580 C.3   351  I08351      0.1169
     28  N23       27.0710   23.2800   10.0710 N.am  351  I08351     -0.2016
     29  C21       25.9750   22.5110    9.6990 C.2   351  I08351      0.2649
     30  O22       26.1490   21.3000    9.6080 O.2   351  I08351     -0.2684
     31  C14       24.6550   23.0800    9.4930 C.ar  351  I08351      0.0581
     32  C13       23.5840   22.1760    9.3710 C.ar  351  I08351      0.0252
     33  C12       22.2970   22.6250    9.2180 C.ar  351  I08351      0.0990
     34  N11       22.0460   23.9910    9.1270 N.ar  351  I08351     -0.2423
     35  C16       23.0790   24.9140    9.2220 C.ar  351  I08351      0.0990
     36  C15       24.3860   24.4690    9.4110 C.ar  351  I08351      0.0252
@<TRIPOS>BOND
     1    12    11    2
     2    16    17   ar
     3    16    13   ar
     4    17    18   ar
     5    11    13    1
     6    11    10    1
     7    13    14   ar
     8     9     8    1
     9    10     8   ar
    10    10     2   ar
    11     8     7   ar
    12    18    19    1
    13    18    15   ar
    14     1     2    1
    15     2     3   ar
    16    19    20    2
    17    14    15   ar
    18     7     6   ar
    19     3     6   ar
    20     3     4    1
    21    34    33   ar
    22    34    35   ar
    23    20    21    1
    24    33    32   ar
    25    35    36   ar
    26     4     5    1
    27    32    31   ar
    28    36    31   ar
    29    31    29    1
    30    21    22    1
    31    21    27    1
    32    30    29    2
    33    29    28   am
    34    22    23    1
    35    28    27    1
    36    27    26    1
    37    23    24    1
    38    26    25    1
    39    24    25    1
