@<TRIPOS>MOLECULE
1svi_GDP_A_1.pdb
 28 30 0 0 0
SMALL
GASTEIGER

@<TRIPOS>ATOM
      1  PB        18.9310   41.3170   44.4570 P.3   401  GDP401      0.5373
      2  O1B       17.9430   40.6220   43.6120 O.2   401  GDP401     -0.2221
      3  O2B       18.5410   41.1470   45.9220 O.3   401  GDP401     -0.1143
      4  O3B       20.3300   40.7940   44.1740 O.3   401  GDP401     -0.1143
      5  O3A       18.9230   42.8410   43.8920 O.3   401  GDP401     -0.2261
      6  PA        18.6790   44.2090   44.6950 P.3   401  GDP401      0.2231
      7  O1A       17.4050   44.1960   45.4440 O.2   401  GDP401     -0.5169
      8  O2A       19.8880   44.4680   45.5940 O.3   401  GDP401     -0.4370
      9  O5'       18.6370   45.2340   43.4710 O.3   401  GDP401     -0.3111
     10  C5'       19.7290   45.3280   42.5800 C.3   401  GDP401      0.1813
     11  C4'       19.8410   46.7420   42.0240 C.3   401  GDP401      0.1799
     12  O4'       18.6540   47.0950   41.3360 O.3   401  GDP401     -0.3326
     13  C3'       19.9960   47.7430   43.1540 C.3   401  GDP401      0.2158
     14  O3'       20.8150   48.8190   42.7220 O.3   401  GDP401     -0.2175
     15  C2'       18.5870   48.2440   43.3940 C.3   401  GDP401      0.2310
     16  O2'       18.6330   49.5810   43.8580 O.3   401  GDP401     -0.2158
     17  C1'       17.9670   48.1400   42.0010 C.3   401  GDP401      0.2293
     18  N9        16.5050   47.9020   42.0020 N.pl3 401  GDP401     -0.2354
     19  C8        15.8180   46.8710   42.5860 C.3   401  GDP401      0.2246
     20  N7        14.4940   47.0420   42.3370 N.2   401  GDP401     -0.2322
     21  C5        14.3240   48.1560   41.5950 C.2   401  GDP401      0.2182
     22  C6        13.1940   48.7980   41.0770 C.1   401  GDP401      0.2372
     23  O6        12.0760   48.2830   41.1120 O.2   401  GDP401     -0.2069
     24  N1        13.3620   49.9550   40.3580 N.2   401  GDP401     -0.2485
     25  C2        14.6250   50.4820   40.1490 C.1   401  GDP401      0.2531
     26  N2        14.7720   51.5580   39.3760 N.pl3 401  GDP401     -0.0226
     27  N3        15.7340   49.8520   40.6720 N.2   401  GDP401     -0.3074
     28  C4        15.5840   48.7060   41.3790 C.2   401  GDP401      0.2300
@<TRIPOS>BOND
     1    26    25    1
     2    25    24    2
     3    25    27    2
     4    24    22    2
     5    27    28    2
     6    22    23    2
     7    22    21    1
     8    12    17    1
     9    12    11    1
    10    28    21    1
    11    28    18    1
    12    21    20    2
    13    17    18    1
    14    17    15    1
    15    18    19    1
    16    11    10    1
    17    11    13    1
    18    20    19    1
    19    10     9    1
    20    14    13    1
    21    13    15    1
    22    15    16    1
    23     9     6    1
    24     2     1    2
    25     5     1    1
    26     5     6    1
    27     4     1    1
    28     1     3    1
    29     6     7    2
    30     6     8    1
