@<TRIPOS>MOLECULE
1svk_GDP_A_1.pdb
 28 30 0 0 0
SMALL
GASTEIGER

@<TRIPOS>ATOM
      1  PB        34.8800   15.8840   42.5990 P.3   355  GDP355      0.5373
      2  O1B       34.4060   15.0130   43.7210 O.3   355  GDP355     -0.1143
      3  O2B       36.1230   15.3750   41.8900 O.3   355  GDP355     -0.1143
      4  O3B       33.7800   16.3720   41.6380 O.2   355  GDP355     -0.2221
      5  O3A       35.3940   17.2730   43.3590 O.3   355  GDP355     -0.2261
      6  PA        36.6790   18.1230   43.0850 P.3   355  GDP355      0.2231
      7  O1A       37.9980   17.3840   43.6500 O.3   355  GDP355     -0.4370
      8  O2A       36.8350   18.6410   41.7060 O.2   355  GDP355     -0.5169
      9  O5'       36.4710   19.1850   44.1950 O.3   355  GDP355     -0.3111
     10  C5'       35.6120   20.3530   44.0010 C.3   355  GDP355      0.1813
     11  C4'       36.1040   21.5800   44.5550 C.3   355  GDP355      0.1799
     12  O4'       36.1630   21.7190   45.9880 O.3   355  GDP355     -0.3326
     13  C3'       37.5370   21.8260   44.0030 C.3   355  GDP355      0.2158
     14  O3'       37.5290   23.2360   43.5640 O.3   355  GDP355     -0.2175
     15  C2'       38.4230   21.6460   45.2160 C.3   355  GDP355      0.2310
     16  O2'       39.6030   22.3870   45.1280 O.3   355  GDP355     -0.2158
     17  C1'       37.4730   22.0000   46.3820 C.3   355  GDP355      0.2293
     18  N9        37.7290   21.1230   47.6320 N.pl3 355  GDP355     -0.2354
     19  C8        37.8110   19.7560   47.6480 C.3   355  GDP355      0.2246
     20  N7        38.0320   19.3250   48.8870 N.2   355  GDP355     -0.2322
     21  C5        38.0890   20.4750   49.6730 C.2   355  GDP355      0.2182
     22  C6        38.2960   20.6230   51.0640 C.1   355  GDP355      0.2372
     23  O6        38.4740   19.6950   51.8740 O.2   355  GDP355     -0.2069
     24  N1        38.2860   21.9740   51.4920 N.2   355  GDP355     -0.2485
     25  C2        38.0900   23.0460   50.6270 C.1   355  GDP355      0.2531
     26  N2        38.1000   24.2950   51.1400 N.pl3 355  GDP355     -0.0226
     27  N3        37.8910   22.8940   49.3060 N.2   355  GDP355     -0.3074
     28  C4        37.9050   21.5910   48.9070 C.2   355  GDP355      0.2300
@<TRIPOS>BOND
     1     4     1    2
     2     8     6    2
     3     3     1    1
     4     1     5    1
     5     1     2    1
     6     6     5    1
     7     6     7    1
     8     6     9    1
     9    14    13    1
    10    10     9    1
    11    10    11    1
    12    13    11    1
    13    13    15    1
    14    11    12    1
    15    16    15    1
    16    15    17    1
    17    12    17    1
    18    17    18    1
    19    18    19    1
    20    18    28    1
    21    19    20    1
    22    20    21    2
    23    28    27    2
    24    28    21    1
    25    27    25    2
    26    21    22    1
    27    25    26    1
    28    25    24    2
    29    22    24    2
    30    22    23    2
