@<TRIPOS>MOLECULE
1svl_ADP_A_1.pdb
 27 29 0 0 0
SMALL
GASTEIGER

@<TRIPOS>ATOM
      1  PB        32.7920   42.6260   75.3970 P.3   800  ADP800      0.5373
      2  O1B       32.8210   42.1940   76.8120 O.3   800  ADP800     -0.1143
      3  O2B       33.9490   43.6650   75.0730 O.3   800  ADP800     -0.1143
      4  O3B       32.8970   41.4360   74.4950 O.2   800  ADP800     -0.2221
      5  PA        31.0250   44.9510   75.1690 P.3   800  ADP800      0.2231
      6  O1A       31.3260   45.5690   76.4690 O.3   800  ADP800     -0.4370
      7  O2A       31.7060   45.6860   74.1080 O.2   800  ADP800     -0.5169
      8  O3A       31.4580   43.4140   75.1370 O.3   800  ADP800     -0.2261
      9  O5'       29.4840   45.0150   74.8600 O.3   800  ADP800     -0.3111
     10  C5'       28.6530   43.8870   74.5820 C.3   800  ADP800      0.1813
     11  C4'       27.2150   44.3920   74.3510 C.3   800  ADP800      0.1821
     12  O4'       26.4090   43.4600   75.0800 O.3   800  ADP800     -0.3135
     13  C3'       26.8960   45.7750   74.9450 C.3   800  ADP800      0.2184
     14  O3'       26.7750   46.8080   73.9380 O.3   800  ADP800     -0.2174
     15  C2'       25.6090   45.5990   75.7290 C.3   800  ADP800      0.2570
     16  O2'       24.4750   46.0660   74.9620 O.3   800  ADP800     -0.2130
     17  C1'       25.6060   44.1070   76.0820 C.3   800  ADP800      0.3186
     18  N9        26.2150   43.7370   77.4310 N.pl3 800  ADP800     -0.1439
     19  C8        27.2900   44.3480   78.0270 C.3   800  ADP800      0.3377
     20  N7        27.5490   43.7580   79.1940 N.2   800  ADP800     -0.2095
     21  C5        26.6820   42.7890   79.3820 C.2   800  ADP800      0.2526
     22  C6        26.4410   41.8250   80.3800 C.2   800  ADP800      0.4393
     23  N6        27.2080   41.7690   81.4880 N.pl3 800  ADP800      0.2180
     24  N1        25.4090   40.9370   80.2250 N.2   800  ADP800      0.0021
     25  C2        24.5990   40.9450   79.1300 C.3   800  ADP800      0.5254
     26  N3        24.8120   41.8520   78.1670 N.2   800  ADP800     -0.0055
     27  C4        25.8150   42.7680   78.2380 C.2   800  ADP800      0.3518
@<TRIPOS>BOND
     1    14    13    1
     2     7     5    2
     3    11    10    1
     4    11    13    1
     5    11    12    1
     6     4     1    2
     7    10     9    1
     8     9     5    1
     9    13    15    1
    10    16    15    1
    11     3     1    1
    12    12    17    1
    13     8     5    1
    14     8     1    1
    15     5     6    1
    16     1     2    1
    17    15    17    1
    18    17    18    1
    19    18    19    1
    20    18    27    1
    21    19    20    1
    22    26    27    2
    23    26    25    1
    24    27    21    1
    25    25    24    1
    26    20    21    2
    27    21    22    1
    28    24    22    2
    29    22    23    1
