@<TRIPOS>MOLECULE
1svm_ATP_A_1.pdb
 31 33 0 0 0
SMALL
GASTEIGER

@<TRIPOS>ATOM
      1  PG        62.4420   43.7830   32.2240 P.3   800  ATP800      0.5373
      2  O1G       63.1130   45.0640   32.6190 O.3   800  ATP800     -0.1143
      3  O2G       62.8470   43.2900   30.8110 O.2   800  ATP800     -0.2221
      4  O3G       62.8270   42.7100   33.2690 O.3   800  ATP800     -0.1143
      5  PB        60.0210   44.7930   33.4510 P.3   800  ATP800      0.2277
      6  O1B       58.6000   44.4770   33.4930 O.2   800  ATP800     -0.5168
      7  O2B       60.6320   46.1270   33.8640 O.3   800  ATP800     -0.4368
      8  O3B       60.8160   43.8660   32.4150 O.3   800  ATP800     -0.2258
      9  PA        59.2480   47.1340   31.8090 P.3   800  ATP800      0.2189
     10  O1A       59.9260   47.5460   30.5670 O.2   800  ATP800     -0.5170
     11  O2A       58.1560   47.8700   32.5610 O.3   800  ATP800     -0.4371
     12  O3A       59.3070   45.5570   32.1800 O.3   800  ATP800     -0.2700
     13  O5'       58.0950   46.6590   30.7780 O.3   800  ATP800     -0.3112
     14  C5'       57.3040   47.6440   30.1330 C.3   800  ATP800      0.1813
     15  C4'       56.6410   47.1650   28.8460 C.3   800  ATP800      0.1821
     16  O4'       56.1670   45.8270   28.9510 O.3   800  ATP800     -0.3135
     17  C3'       55.4720   48.0510   28.5700 C.3   800  ATP800      0.2184
     18  O3'       55.8940   49.0360   27.6460 O.3   800  ATP800     -0.2174
     19  C2'       54.3740   47.1040   28.0780 C.3   800  ATP800      0.2570
     20  O2'       54.1930   46.9780   26.6970 O.3   800  ATP800     -0.2130
     21  C1'       54.7400   45.7850   28.7260 C.3   800  ATP800      0.3186
     22  N9        54.1960   45.3850   30.0860 N.pl3 800  ATP800     -0.1439
     23  C8        54.5020   45.9860   31.2950 C.3   800  ATP800      0.3377
     24  N7        53.8490   45.3540   32.2390 N.2   800  ATP800     -0.2095
     25  C5        53.1000   44.3400   31.7310 C.2   800  ATP800      0.2526
     26  C6        52.2300   43.3490   32.2270 C.2   800  ATP800      0.4393
     27  N6        51.9470   43.1360   33.5000 N.pl3 800  ATP800      0.2180
     28  N1        51.6280   42.4600   31.3410 N.2   800  ATP800      0.0021
     29  C2        51.8690   42.5200   29.9840 C.3   800  ATP800      0.5254
     30  N3        52.7250   43.4770   29.4730 N.2   800  ATP800     -0.0055
     31  C4        53.3250   44.3680   30.3360 C.2   800  ATP800      0.3518
@<TRIPOS>BOND
     1    20    19    1
     2    18    17    1
     3    19    17    1
     4    19    21    1
     5    17    15    1
     6    21    16    1
     7    21    22    1
     8    15    16    1
     9    15    14    1
    10    30    29    1
    11    30    31    2
    12    29    28    1
    13    22    31    1
    14    22    23    1
    15    14    13    1
    16    31    25    1
    17    10     9    2
    18    13     9    1
    19     3     1    2
    20    23    24    1
    21    28    26    2
    22    25    26    1
    23    25    24    2
    24     9    12    1
    25     9    11    1
    26    12     5    1
    27     1     8    1
    28     1     2    1
    29     1     4    1
    30    26    27    1
    31     8     5    1
    32     5     6    2
    33     5     7    1
