@<TRIPOS>MOLECULE
1svs_GNP_A_1.pdb
 32 34 0 0 0
SMALL
GASTEIGER

@<TRIPOS>ATOM
      1  PG        -9.7420  -47.8140   29.8530 P.3   355  GNP355      0.4884
      2  O1G       -9.4110  -49.0920   30.5820 O.3   355  GNP355     -0.1240
      3  O2G       -9.5220  -46.6590   30.7750 O.3   355  GNP355     -0.1240
      4  O3G      -11.0900  -47.7850   29.2390 O.2   355  GNP355     -0.2331
      5  N3B       -8.5310  -47.7840   28.6200 N.3   355  GNP355     -0.0163
      6  PB        -8.4460  -46.5240   27.5170 P.3   355  GNP355      0.4669
      7  O1B       -8.2610  -45.2660   28.1970 O.3   355  GNP355     -0.1253
      8  O2B       -9.4900  -46.6580   26.4700 O.2   355  GNP355     -0.2351
      9  O3A       -7.0010  -46.8180   26.8100 O.3   355  GNP355     -0.2360
     10  PA        -5.6340  -46.0690   26.9740 P.3   355  GNP355      0.2220
     11  O1A       -5.7740  -44.7030   26.4530 O.2   355  GNP355     -0.5170
     12  O2A       -5.1780  -46.2820   28.4000 O.3   355  GNP355     -0.4370
     13  O5'       -4.7130  -46.8210   26.0370 O.3   355  GNP355     -0.3111
     14  C5'       -4.3180  -48.1910   26.2500 C.3   355  GNP355      0.1813
     15  C4'       -2.9660  -48.4030   25.6320 C.3   355  GNP355      0.1799
     16  O4'       -2.9320  -48.3180   24.2540 O.3   355  GNP355     -0.3326
     17  C3'       -1.8860  -47.3810   26.1250 C.3   355  GNP355      0.2158
     18  O3'       -0.6460  -48.0630   26.4160 O.3   355  GNP355     -0.2175
     19  C2'       -1.7430  -46.4220   24.9260 C.3   355  GNP355      0.2310
     20  O2'       -0.4970  -45.7970   24.8510 O.3   355  GNP355     -0.2158
     21  C1'       -1.9830  -47.3760   23.8030 C.3   355  GNP355      0.2293
     22  N9        -2.5630  -46.7550   22.5990 N.pl3 355  GNP355     -0.2354
     23  C8        -3.7670  -45.9250   22.5990 C.3   355  GNP355      0.2246
     24  N7        -4.0470  -45.5350   21.3860 N.2   355  GNP355     -0.2322
     25  C5        -2.9890  -46.1330   20.5480 C.2   355  GNP355      0.2182
     26  C6        -2.7990  -46.0480   19.1100 C.1   355  GNP355      0.2372
     27  O6        -3.4550  -45.4870   18.3060 O.2   355  GNP355     -0.2069
     28  N1        -1.6700  -46.7610   18.7100 N.2   355  GNP355     -0.2485
     29  C2        -0.9160  -47.4200   19.6600 C.1   355  GNP355      0.2531
     30  N2         0.1850  -48.0810   19.0270 N.pl3 355  GNP355     -0.0226
     31  N3        -1.0160  -47.5480   20.9370 N.2   355  GNP355     -0.3074
     32  C4        -2.1260  -46.8460   21.3270 C.2   355  GNP355      0.2300
@<TRIPOS>BOND
     1    27    26    2
     2    28    26    2
     3    28    29    2
     4    30    29    1
     5    26    25    1
     6    29    31    2
     7    25    32    1
     8    25    24    2
     9    31    32    2
    10    32    22    1
    11    24    23    1
    12    23    22    1
    13    22    21    1
    14    21    16    1
    15    21    19    1
    16    16    15    1
    17    20    19    1
    18    19    17    1
    19    15    17    1
    20    15    14    1
    21    13    14    1
    22    13    10    1
    23    17    18    1
    24    11    10    2
    25     8     6    2
    26     9    10    1
    27     9     6    1
    28    10    12    1
    29     6     7    1
    30     6     5    1
    31     5     1    1
    32     4     1    2
    33     1     2    1
    34     1     3    1
