@<TRIPOS>MOLECULE
1svt_ADP_A_1.pdb
 27 29 0 0 0
SMALL
GASTEIGER

@<TRIPOS>ATOM
      1  PB        32.1460  -43.9940  -18.2270 P.3   600  ADP600      0.5373
      2  O1B       31.4630  -43.2220  -19.2730 O.2   600  ADP600     -0.2221
      3  O2B       31.5530  -45.3630  -17.8200 O.3   600  ADP600     -0.1143
      4  O3B       33.5950  -44.4350  -18.5610 O.3   600  ADP600     -0.1143
      5  PA        31.8090  -41.6070  -16.8860 P.3   600  ADP600      0.2231
      6  O1A       32.6330  -40.8020  -15.9310 O.3   600  ADP600     -0.4370
      7  O2A       31.5610  -41.2980  -18.3580 O.2   600  ADP600     -0.5169
      8  O3A       32.3860  -43.0830  -16.9350 O.3   600  ADP600     -0.2261
      9  O5'       30.4000  -41.7200  -16.1590 O.3   600  ADP600     -0.3111
     10  C5'       29.3320  -42.1420  -16.9480 C.3   600  ADP600      0.1813
     11  C4'       28.1690  -42.4550  -16.0220 C.3   600  ADP600      0.1821
     12  O4'       27.8180  -41.3160  -15.2710 O.3   600  ADP600     -0.3135
     13  C3'       26.9210  -42.8560  -16.8010 C.3   600  ADP600      0.2184
     14  O3'       26.3920  -44.0000  -16.1340 O.3   600  ADP600     -0.2174
     15  C2'       26.0210  -41.6400  -16.7130 C.3   600  ADP600      0.2570
     16  O2'       24.7020  -42.0140  -16.5900 O.3   600  ADP600     -0.2130
     17  C1'       26.4320  -41.0850  -15.3810 C.3   600  ADP600      0.3186
     18  N9        26.0220  -39.6950  -15.1870 N.pl3 600  ADP600     -0.1439
     19  C8        26.3380  -38.5750  -15.8760 C.3   600  ADP600      0.3377
     20  N7        25.7140  -37.5200  -15.3580 N.2   600  ADP600     -0.2095
     21  C5        24.9650  -37.9750  -14.3430 C.2   600  ADP600      0.2526
     22  C6        24.0980  -37.3630  -13.4220 C.2   600  ADP600      0.4393
     23  N6        23.7800  -36.0770  -13.3750 N.pl3 600  ADP600      0.2180
     24  N1        23.4930  -38.1110  -12.4780 N.2   600  ADP600      0.0021
     25  C2        23.7580  -39.4600  -12.4330 C.3   600  ADP600      0.5254
     26  N3        24.5850  -40.0630  -13.3240 N.2   600  ADP600     -0.0055
     27  C4        25.1700  -39.3250  -14.2400 C.2   600  ADP600      0.3518
@<TRIPOS>BOND
     1     2     1    2
     2     4     1    1
     3     7     5    2
     4     1     3    1
     5     1     8    1
     6    10     9    1
     7    10    11    1
     8     8     5    1
     9     5     9    1
    10     5     6    1
    11    13    15    1
    12    13    14    1
    13    13    11    1
    14    15    16    1
    15    15    17    1
    16    11    12    1
    17    19    20    1
    18    19    18    1
    19    17    12    1
    20    17    18    1
    21    20    21    2
    22    18    27    1
    23    21    27    1
    24    21    22    1
    25    27    26    2
    26    22    23    1
    27    22    24    2
    28    26    25    1
    29    24    25    1
