@<TRIPOS>MOLECULE
1svu_SAH_A_1.pdb
 26 28 0 0 0
SMALL
GASTEIGER

@<TRIPOS>ATOM
      1  N         19.2220   -3.3150   10.6020 N.3   401  SAH401     -0.1208
      2  CA        19.7240   -3.4640   11.9690 C.3   401  SAH401      0.1952
      3  CB        20.9910   -4.3340   11.9290 C.3   401  SAH401      0.0422
      4  CG        20.7320   -5.8350   12.1080 C.3   401  SAH401      0.0597
      5  SD        21.7460   -6.8920   13.2060 S.3   401  SAH401     -0.1375
      6  C         20.0190   -2.1340   12.6650 C.2   401  SAH401      0.3819
      7  O         19.4460   -1.0310   12.2580 O.co2 401  SAH401     -0.2441
      8  OXT       20.7250   -2.1540   13.7600 O.co2 401  SAH401     -0.2441
      9  C5'       20.7050   -8.3740   13.0210 C.3   401  SAH401      0.0899
     10  C4'       19.6680   -8.0490   14.0660 C.3   401  SAH401      0.1630
     11  O4'       18.6450   -9.0850   14.1140 O.3   401  SAH401     -0.3153
     12  C3'       20.2030   -7.9080   15.4840 C.3   401  SAH401      0.2168
     13  O3'       19.5310   -6.8420   16.1310 O.3   401  SAH401     -0.2175
     14  C2'       19.8400   -9.2470   16.1160 C.3   401  SAH401      0.2569
     15  O2'       19.6880   -9.1870   17.5200 O.3   401  SAH401     -0.2130
     16  C1'       18.5060   -9.5490   15.4410 C.3   401  SAH401      0.3185
     17  N9        18.1530  -10.9690   15.3950 N.pl3 401  SAH401     -0.1439
     18  C8        18.9790  -12.0430   15.1490 C.3   401  SAH401      0.3377
     19  N7        18.3570  -13.1970   15.1370 N.2   401  SAH401     -0.2095
     20  C5        17.0320  -12.8640   15.3920 C.2   401  SAH401      0.2526
     21  C6        15.8640  -13.6420   15.4880 C.2   401  SAH401      0.4393
     22  N6        15.8430  -14.9670   15.3010 N.pl3 401  SAH401      0.2180
     23  N1        14.7050  -13.0060   15.7760 N.2   401  SAH401      0.0021
     24  C2        14.7300  -11.6780   15.9370 C.3   401  SAH401      0.5254
     25  N3        15.7610  -10.8350   15.8560 N.2   401  SAH401     -0.0055
     26  C4        16.8960  -11.4980   15.5740 C.2   401  SAH401      0.3518
@<TRIPOS>BOND
     1     1     2    1
     2     3     2    1
     3     3     4    1
     4     2     6    1
     5     4     5    1
     6     7     6   ar
     7     6     8   ar
     8     9     5    1
     9     9    10    1
    10    10    11    1
    11    10    12    1
    12    11    16    1
    13    19    18    1
    14    19    20    2
    15    18    17    1
    16    22    21    1
    17    20    21    1
    18    20    26    1
    19    17    16    1
    20    17    26    1
    21    16    14    1
    22    12    14    1
    23    12    13    1
    24    21    23    2
    25    26    25    2
    26    23    24    1
    27    25    24    1
    28    14    15    1
