@<TRIPOS>MOLECULE
1svw_GTP_A_1.pdb
 32 34 0 0 0
SMALL
GASTEIGER

@<TRIPOS>ATOM
      1  PG        13.4970   59.1440   47.9780 P.3   401  GTP401      0.5373
      2  O1G       13.5080   57.6540   48.2400 O.3   401  GTP401     -0.1143
      3  O2G       14.3760   59.5710   46.8160 O.2   401  GTP401     -0.2221
      4  O3G       13.7470   59.8630   49.2340 O.3   401  GTP401     -0.1143
      5  O3B       11.9300   59.4070   47.5390 O.3   401  GTP401     -0.2258
      6  PB        10.5120   59.2470   48.3380 P.3   401  GTP401      0.2277
      7  O1B       10.0380   57.8470   48.0790 O.2   401  GTP401     -0.5168
      8  O2B       10.6960   59.6050   49.7280 O.3   401  GTP401     -0.4368
      9  O3A        9.7160   60.3240   47.5800 O.3   401  GTP401     -0.2700
     10  PA         9.1040   61.7420   48.0400 P.3   401  GTP401      0.2189
     11  O1A        8.3690   61.6710   49.2880 O.3   401  GTP401     -0.4371
     12  O2A       10.3070   62.6870   47.9820 O.2   401  GTP401     -0.5170
     13  O5'        8.0160   62.0490   46.8320 O.3   401  GTP401     -0.3112
     14  C5'        8.7110   62.1490   45.5180 C.3   401  GTP401      0.1813
     15  C4'        7.5250   62.7990   44.6560 C.3   401  GTP401      0.1799
     16  O4'        6.2770   62.0720   44.6840 O.3   401  GTP401     -0.3326
     17  C3'        7.1780   64.1780   44.9750 C.3   401  GTP401      0.2158
     18  O3'        7.0670   64.9880   43.8280 O.3   401  GTP401     -0.2175
     19  C2'        5.8960   64.1560   45.8320 C.3   401  GTP401      0.2310
     20  O2'        5.2190   65.2860   45.8140 O.3   401  GTP401     -0.2158
     21  C1'        5.1670   62.9050   44.9880 C.3   401  GTP401      0.2293
     22  N9         4.2070   62.1740   45.8840 N.pl3 401  GTP401     -0.2354
     23  C8         4.5810   61.4670   47.0250 C.3   401  GTP401      0.2246
     24  N7         3.3440   61.0320   47.4180 N.2   401  GTP401     -0.2322
     25  C5         2.2790   61.4230   46.6010 C.2   401  GTP401      0.2182
     26  C6         1.0250   61.1650   46.7170 C.1   401  GTP401      0.2372
     27  O6         0.2360   60.5400   47.4810 O.2   401  GTP401     -0.2069
     28  N1         0.2250   61.8050   45.5750 N.2   401  GTP401     -0.2485
     29  C2         0.9260   62.4890   44.7000 C.1   401  GTP401      0.2531
     30  N2         0.1190   63.1080   43.5880 N.pl3 401  GTP401     -0.0226
     31  N3         2.2450   62.7630   44.5780 N.2   401  GTP401     -0.3074
     32  C4         2.8650   62.1510   45.6340 C.2   401  GTP401      0.2300
@<TRIPOS>BOND
     1    30    29    1
     2    18    17    1
     3    31    29    2
     4    31    32    2
     5    15    16    1
     6    15    17    1
     7    15    14    1
     8    16    21    1
     9    29    28    2
    10    17    19    1
    11    21    19    1
    12    21    22    1
    13    14    13    1
    14    28    26    2
    15    32    22    1
    16    32    25    1
    17    20    19    1
    18    22    23    1
    19    25    26    1
    20    25    24    2
    21    26    27    2
    22     3     1    2
    23    13    10    1
    24    23    24    1
    25     5     1    1
    26     5     6    1
    27     9    10    1
    28     9     6    1
    29     1     2    1
    30     1     4    1
    31    12    10    2
    32    10    11    1
    33     7     6    2
    34     6     8    1
