@<TRIPOS>MOLECULE
1sw1_PBE_A_1.pdb
 10 10 0 0 0
SMALL
GASTEIGER

@<TRIPOS>ATOM
      1  N         13.5970    2.1320   15.1660 N.4   301  PBE301      0.3955
      2  CD        12.3000    2.1790   15.7850 C.3   301  PBE301     -0.0724
      3  CA        13.9600    3.4960   14.8080 C.3   301  PBE301      0.0515
      4  CB        13.4950    4.2730   16.0480 C.3   301  PBE301     -0.0114
      5  CG        12.5720    3.3170   16.7550 C.3   301  PBE301     -0.0238
      6  CE        14.4490    1.6270   16.2540 C.3   301  PBE301     -0.0950
      7  CF        13.5800    1.3710   13.9090 C.3   301  PBE301     -0.0950
      8  C         15.4350    3.5270   14.5670 C.2   301  PBE301      0.3464
      9  O         15.8980    3.2440   13.4280 O.co2 301  PBE301     -0.2479
     10  OXT       16.1370    3.8610   15.5430 O.co2 301  PBE301     -0.2479
@<TRIPOS>BOND
     1     9     8   ar
     2     7     1    1
     3     8     3    1
     4     8    10   ar
     5     3     1    1
     6     3     4    1
     7     1     2    1
     8     1     6    1
     9     2     5    1
    10     4     5    1
