@<TRIPOS>MOLECULE
1swd_BTN_A_1.pdb
 16 17 0 0 0
SMALL
GASTEIGER

@<TRIPOS>ATOM
      1  C11       15.4410    3.5470   28.6310 C.2   300  BTN300      0.3649
      2  O11       14.5010    3.2160   29.4020 O.co2 300  BTN300     -0.2457
      3  O12       16.1570    2.7050   28.0270 O.co2 300  BTN300     -0.2457
      4  C10       15.5740    5.0030   28.3440 C.3   300  BTN300      0.1141
      5  C9        14.9620    5.3060   26.9590 C.3   300  BTN300      0.0118
      6  C8        14.2000    6.6150   26.9570 C.3   300  BTN300      0.0015
      7  C7        12.6960    6.5060   26.6500 C.3   300  BTN300      0.0129
      8  C2        12.2470    6.6050   25.2080 C.3   300  BTN300      0.0729
      9  S1        13.4390    7.1530   23.9300 S.3   300  BTN300     -0.1369
     10  C6        12.0870    7.0030   22.7020 C.3   300  BTN300      0.0848
     11  C5        10.8460    7.5750   23.3600 C.3   300  BTN300      0.1509
     12  N1        10.7250    9.0180   23.2460 N.2   300  BTN300     -0.1859
     13  C3        10.7590    9.6300   24.4340 C.1   300  BTN300      0.2386
     14  O3        10.6340   10.8520   24.6420 O.2   300  BTN300     -0.2023
     15  N2        10.9130    8.7060   25.4080 N.2   300  BTN300     -0.1860
     16  C4        10.9740    7.3590   24.8900 C.3   300  BTN300      0.1500
@<TRIPOS>BOND
     1    10    11    1
     2    10     9    1
     3    12    11    1
     4    12    13    2
     5    11    16    1
     6     9     8    1
     7    13    14    2
     8    13    15    2
     9    16     8    1
    10    16    15    1
    11     8     7    1
    12     7     6    1
    13     6     5    1
    14     5     4    1
    15     3     1   ar
    16     4     1    1
    17     1     2   ar
