@<TRIPOS>MOLECULE
1swe_BTN_A_1.pdb
 16 17 0 0 0
SMALL
GASTEIGER

@<TRIPOS>ATOM
      1  C11        7.2790  -16.4060   25.2010 C.2   300  BTN300      0.3649
      2  O11        6.7410  -15.3180   25.5320 O.co2 300  BTN300     -0.2457
      3  O12        6.8400  -17.1050   24.2460 O.co2 300  BTN300     -0.2457
      4  C10        8.4810  -16.8140   25.9740 C.3   300  BTN300      0.1141
      5  C9         9.3810  -15.6210   26.3220 C.3   300  BTN300      0.0118
      6  C8        10.0510  -15.0710   25.0660 C.3   300  BTN300      0.0015
      7  C7        11.0130  -13.8950   25.3270 C.3   300  BTN300      0.0129
      8  C2        11.7360  -13.2880   24.1470 C.3   300  BTN300      0.0729
      9  S1        12.9820  -14.3590   23.3390 S.3   300  BTN300     -0.1369
     10  C6        13.5670  -12.9410   22.3590 C.3   300  BTN300      0.0848
     11  C5        13.5460  -11.7430   23.2820 C.3   300  BTN300      0.1509
     12  N1        14.7710  -11.5850   24.0460 N.2   300  BTN300     -0.1859
     13  C3        14.5620  -11.7080   25.3630 C.1   300  BTN300      0.2386
     14  O3        15.4170  -11.6040   26.2690 O.2   300  BTN300     -0.2023
     15  N2        13.2460  -11.9380   25.5960 N.2   300  BTN300     -0.1860
     16  C4        12.4750  -11.9730   24.3640 C.3   300  BTN300      0.1500
@<TRIPOS>BOND
     1    10    11    1
     2    10     9    1
     3    11    12    1
     4    11    16    1
     5     9     8    1
     6    12    13    2
     7     8    16    1
     8     8     7    1
     9     3     1   ar
    10    16    15    1
    11     6     7    1
    12     6     5    1
    13     1     2   ar
    14     1     4    1
    15    13    15    2
    16    13    14    2
    17     4     5    1
