@<TRIPOS>MOLECULE
1swg_BTN_A_1.pdb
 16 17 0 0 0
SMALL
GASTEIGER

@<TRIPOS>ATOM
      1  C11       13.8230   15.4720   18.2480 C.2   600  BTN600      0.3649
      2  O11       14.0450   15.9210   17.0920 O.co2 600  BTN600     -0.2457
      3  O12       14.7540   15.0090   18.9720 O.co2 600  BTN600     -0.2457
      4  C10       12.4110   15.4940   18.7050 C.3   600  BTN600      0.1141
      5  C9        11.5780   16.5940   18.0180 C.3   600  BTN600      0.0118
      6  C8        11.8760   17.9300   18.6780 C.3   600  BTN600      0.0015
      7  C7        11.1330   19.1590   18.1180 C.3   600  BTN600      0.0129
      8  C2        11.4950   20.4790   18.7970 C.3   600  BTN600      0.0729
      9  S1        11.0380   20.5580   20.5830 S.3   600  BTN600     -0.1369
     10  C6        11.4720   22.3320   20.5860 C.3   600  BTN600      0.0848
     11  C5        10.9390   22.9040   19.2940 C.3   600  BTN600      0.1509
     12  N1         9.5410   23.3110   19.3310 N.2   600  BTN600     -0.1859
     13  C3         8.7770   22.5910   18.5060 C.1   600  BTN600      0.2386
     14  O3         7.5460   22.7020   18.2980 O.2   600  BTN600     -0.2023
     15  N2         9.5720   21.7110   17.8520 N.2   600  BTN600     -0.1860
     16  C4        10.9550   21.7700   18.2320 C.3   600  BTN600      0.1500
@<TRIPOS>BOND
     1     2     1   ar
     2    15    16    1
     3    15    13    2
     4     5     6    1
     5     5     4    1
     6     7     6    1
     7     7     8    1
     8    16     8    1
     9    16    11    1
    10     1     4    1
    11     1     3   ar
    12    14    13    2
    13    13    12    2
    14     8     9    1
    15    11    12    1
    16    11    10    1
    17     9    10    1
