@<TRIPOS>MOLECULE
1swk_BTQ_C_1.pdb
 16 17 0 0 0
SMALL
GASTEIGER

@<TRIPOS>ATOM
      1  C11       19.3600   -3.1130    5.3830 C.2   5300  BTQ5300     0.3649
      2  O11       19.9940   -3.9940    6.0250 O.co2 5300  BTQ5300    -0.2457
      3  O12       18.1310   -2.9410    5.5920 O.co2 5300  BTQ5300    -0.2457
      4  C10       20.1440   -2.3890    4.3600 C.3   5300  BTQ5300     0.1141
      5  C9        20.7520   -1.0820    4.8140 C.3   5300  BTQ5300     0.0118
      6  C8        22.0050   -1.1860    5.6500 C.3   5300  BTQ5300     0.0015
      7  C7        21.9430   -0.4870    7.0140 C.3   5300  BTQ5300     0.0129
      8  C2        22.6120    0.7710    7.3270 C.3   5300  BTQ5300     0.0729
      9  S1        21.8290    2.3970    7.1820 S.3   5300  BTQ5300    -0.1369
     10  C6        22.3660    2.8290    8.8680 C.3   5300  BTQ5300     0.0848
     11  C5        23.7420    2.2130    9.0780 C.3   5300  BTQ5300     0.1509
     12  N1        24.8100    3.0730    8.5990 N.2   5300  BTQ5300    -0.1859
     13  C3        25.4950    2.5210    7.5910 C.1   5300  BTQ5300     0.2386
     14  O3        26.4790    2.9950    6.9670 O.2   5300  BTQ5300    -0.2023
     15  N2        24.9800    1.3110    7.3080 N.2   5300  BTQ5300    -0.1860
     16  C4        23.8590    0.9640    8.1630 C.3   5300  BTQ5300     0.1500
@<TRIPOS>BOND
     1     4     5    1
     2     4     1    1
     3     5     6    1
     4     1     3   ar
     5     1     2   ar
     6     6     7    1
     7    14    13    2
     8     7     8    1
     9     9     8    1
    10     9    10    1
    11    15    13    2
    12    15    16    1
    13     8    16    1
    14    13    12    2
    15    16    11    1
    16    12    11    1
    17    10    11    1
