@<TRIPOS>MOLECULE
1swk_BTN_A_1.pdb
 16 17 0 0 0
SMALL
GASTEIGER

@<TRIPOS>ATOM
      1  C11       17.5800   19.2980   31.5830 C.2   5100  BTN5100     0.3649
      2  O11       18.3440   20.1310   31.0260 O.co2 5100  BTN5100    -0.2457
      3  O12       16.3820   19.1300   31.2620 O.co2 5100  BTN5100    -0.2457
      4  C10       18.2140   18.4710   32.6480 C.3   5100  BTN5100     0.1141
      5  C9        19.6750   18.1690   32.2560 C.3   5100  BTN5100     0.0118
      6  C8        19.6780   17.0250   31.2290 C.3   5100  BTN5100     0.0015
      7  C7        21.1010   16.7010   30.6990 C.3   5100  BTN5100     0.0129
      8  C2        21.1970   15.6630   29.6050 C.3   5100  BTN5100     0.0729
      9  S1        20.4740   14.0040   29.9520 S.3   5100  BTN5100    -0.1369
     10  C6        21.1850   13.4210   28.3850 C.3   5100  BTN5100     0.0848
     11  C5        22.5740   14.0190   28.2790 C.3   5100  BTN5100     0.1509
     12  N1        23.6050   13.2520   28.9340 N.2   5100  BTN5100    -0.1859
     13  C3        24.1530   13.9150   29.9720 C.1   5100  BTN5100     0.2386
     14  O3        25.0690   13.4980   30.7110 O.2   5100  BTN5100    -0.2023
     15  N2        23.5880   15.1410   30.0730 N.2   5100  BTN5100    -0.1860
     16  C4        22.5750   15.3580   29.0520 C.3   5100  BTN5100     0.1500
@<TRIPOS>BOND
     1    11    10    1
     2    11    12    1
     3    11    16    1
     4    10     9    1
     5    12    13    2
     6    16     8    1
     7    16    15    1
     8     8     9    1
     9     8     7    1
    10    13    15    2
    11    13    14    2
    12     7     6    1
    13     2     1   ar
    14     6     5    1
    15     3     1   ar
    16     1     4    1
    17     5     4    1
