@<TRIPOS>MOLECULE
1swm_HEM_A_1.pdb
 43 50 0 0 0
SMALL
GASTEIGER

@<TRIPOS>ATOM
      1 FE         14.7550   27.8690    4.7490 Fe    154  HEM154      0.0000
      2  CHA       16.1950   30.9130    4.9560 C.2   154  HEM154      0.0000
      3  CHB       13.9480   27.8060    8.0120 C.2   154  HEM154      0.0000
      4  CHC       13.3030   24.7080    4.3680 C.2   154  HEM154      0.0000
      5  CHD       15.6700   27.7090    1.3470 C.2   154  HEM154      0.0000
      6  NA        15.0810   29.0340    6.1370 N.2   154  HEM154      0.0000
      7  C1A       15.6380   30.3210    6.0620 C.2   154  HEM154      0.0000
      8  C2A       15.5450   30.9590    7.3720 C.2   154  HEM154      0.0000
      9  C3A       14.9910   30.0720    8.2470 C.2   154  HEM154      0.0000
     10  C4A       14.6300   28.8960    7.4410 C.2   154  HEM154      0.0000
     11  CMA       14.6030   30.1990    9.7410 C.3   154  HEM154      0.0000
     12  CAA       16.1220   32.3520    7.6210 C.3   154  HEM154      0.0000
     13  CBA       14.9520   33.3230    7.8380 C.3   154  HEM154      0.0000
     14  CGA       14.0370   33.3550    6.6400 C.2   154  HEM154      0.0000
     15  O1A       14.4740   33.7980    5.5610 O.co2 154  HEM154      0.0000
     16  O2A       12.8450   32.9480    6.7710 O.co2 154  HEM154      0.0000
     17  NB        13.8540   26.4800    5.9710 N.ar  154  HEM154      0.0000
     18  C1B       13.5840   26.6620    7.2990 C.ar  154  HEM154      0.0000
     19  C2B       13.0210   25.4580    7.8630 C.ar  154  HEM154      0.0000
     20  C3B       12.7740   24.6090    6.8490 C.ar  154  HEM154      0.0000
     21  C4B       13.3250   25.2410    5.6590 C.ar  154  HEM154      0.0000
     22  CMB       12.5080   25.3800    9.3240 C.3   154  HEM154      0.0000
     23  CAB       12.0840   23.2220    6.9440 C.2   154  HEM154      0.0000
     24  CBB       12.5430   22.3390    7.8310 C.2   154  HEM154      0.0000
     25  NC        14.5570   26.5140    3.1460 N.2   154  HEM154      0.0000
     26  C1C       14.0030   25.2190    3.2710 C.2   154  HEM154      0.0000
     27  C2C       14.2950   24.4650    2.0580 C.2   154  HEM154      0.0000
     28  C3C       14.8690   25.3720    1.1890 C.2   154  HEM154      0.0000
     29  C4C       14.9480   26.6490    1.8540 C.2   154  HEM154      0.0000
     30  CMC       13.6700   23.0790    1.7630 C.3   154  HEM154      0.0000
     31  CAC       15.4500   25.2090   -0.2230 C.2   154  HEM154      0.0000
     32  CBC       15.2960   24.0240   -0.8090 C.2   154  HEM154      0.0000
     33  ND        15.6680   29.0420    3.4410 N.ar  154  HEM154      0.0000
     34  C1D       15.8900   28.8710    2.0860 C.ar  154  HEM154      0.0000
     35  C2D       16.7320   29.9590    1.5610 C.ar  154  HEM154      0.0000
     36  C3D       16.9030   30.8440    2.5620 C.ar  154  HEM154      0.0000
     37  C4D       16.1990   30.3050    3.7200 C.ar  154  HEM154      0.0000
     38  CMD       17.0700   30.0210    0.0690 C.3   154  HEM154      0.0000
     39  CAD       17.6760   32.1760    2.5500 C.3   154  HEM154      0.0000
     40  CBD       19.0400   31.7520    3.0610 C.3   154  HEM154      0.0000
     41  CGD       19.9740   32.9200    3.0520 C.2   154  HEM154      0.0000
     42  O1D       20.4820   33.2670    1.9870 O.co2 154  HEM154      0.0000
     43  O2D       20.2420   33.5680    4.0650 O.co2 154  HEM154      0.0000
@<TRIPOS>BOND
     1    32    31    2
     2    31    28    1
     3    38    35    1
     4    28    29    1
     5    28    27    2
     6     5    29    1
     7     5    34    2
     8    35    34   ar
     9    35    36   ar
    10    30    27    1
    11    29    25    2
    12    42    41   ar
    13    27    26    1
    14    34    33   ar
    15    39    36    1
    16    39    40    1
    17    36    37   ar
    18    41    40    1
    19    41    43   ar
    20    25    26    1
    21    25     1    1
    22    26     4    2
    23    33    37   ar
    24    33     1    1
    25    37     2    2
    26     4    21    1
    27     1    17    1
    28     1     6    1
    29     2     7    1
    30    15    14   ar
    31    21    17   ar
    32    21    20   ar
    33    17    18   ar
    34     7     6    2
    35     7     8    1
    36     6    10    1
    37    14    16   ar
    38    14    13    1
    39    20    23    1
    40    20    19   ar
    41    23    24    2
    42    18    19   ar
    43    18     3    1
    44     8    12    1
    45     8     9    2
    46    10     3    2
    47    10     9    1
    48    12    13    1
    49    19    22    1
    50     9    11    1
