@<TRIPOS>MOLECULE
1swn_BTN_A_1.pdb
 16 17 0 0 0
SMALL
GASTEIGER

@<TRIPOS>ATOM
      1  C11       16.5220    3.8650   29.4730 C.2   300  BTN300      0.3649
      2  O11       15.5270    3.7200   30.2310 O.co2 300  BTN300     -0.2457
      3  O12       17.1520    2.8740   29.0130 O.co2 300  BTN300     -0.2457
      4  C10       16.9350    5.2480   29.1350 C.3   300  BTN300      0.1141
      5  C9        15.7510    6.2040   28.9590 C.3   300  BTN300      0.0118
      6  C8        15.1620    6.0920   27.5570 C.3   300  BTN300      0.0015
      7  C7        13.9900    7.0720   27.2860 C.3   300  BTN300      0.0129
      8  C2        13.2860    6.9630   25.9530 C.3   300  BTN300      0.0729
      9  S1        14.2620    7.4620   24.4820 S.3   300  BTN300     -0.1369
     10  C6        12.7670    7.2340   23.4570 C.3   300  BTN300      0.0848
     11  C5        11.6080    7.7930   24.2580 C.3   300  BTN300      0.1509
     12  N1        11.4100    9.2220   24.1050 N.2   300  BTN300     -0.1859
     13  C3        11.5930    9.8920   25.2510 C.1   300  BTN300      0.2386
     14  O3        11.4890   11.1330   25.4380 O.2   300  BTN300     -0.2023
     15  N2        11.9020    9.0120   26.2320 N.2   300  BTN300     -0.1860
     16  C4        11.9420    7.6410   25.7600 C.3   300  BTN300      0.1500
@<TRIPOS>BOND
     1    10    11    1
     2    10     9    1
     3    12    11    1
     4    12    13    2
     5    11    16    1
     6     9     8    1
     7    13    14    2
     8    13    15    2
     9    16     8    1
    10    16    15    1
    11     8     7    1
    12     7     6    1
    13     6     5    1
    14     5     4    1
    15     3     1   ar
    16     4     1    1
    17     1     2   ar
