@<TRIPOS>MOLECULE
1swp_BTQ_C_1.pdb
 16 17 0 0 0
SMALL
GASTEIGER

@<TRIPOS>ATOM
      1  C11       23.5800   -2.7340   -2.8930 C.2   500  BTQ500      0.3649
      2  O11       24.8100   -2.9650   -3.0050 O.co2 500  BTQ500     -0.2457
      3  O12       22.7070   -3.6230   -3.0560 O.co2 500  BTQ500     -0.2457
      4  C10       23.2070   -1.3470   -2.5040 C.3   500  BTQ500      0.1141
      5  C9        22.3210   -1.3560   -1.2460 C.3   500  BTQ500      0.0118
      6  C8        23.0790   -0.8150   -0.0400 C.3   500  BTQ500      0.0015
      7  C7        22.8070   -1.6260    1.2570 C.3   500  BTQ500      0.0129
      8  C2        21.9930   -1.0210    2.3120 C.3   500  BTQ500      0.0729
      9  S1        20.1910   -1.1260    2.3870 S.3   500  BTQ500     -0.1369
     10  C6        20.3060   -1.6550    4.1270 C.3   500  BTQ500      0.0848
     11  C5        21.4310   -0.8470    4.7550 C.3   500  BTQ500      0.1509
     12  N1        21.0060    0.4500    5.2520 N.2   500  BTQ500     -0.1859
     13  C3        21.5910    1.4650    4.6050 C.1   500  BTQ500      0.2386
     14  O3        21.4410    2.6890    4.8290 O.2   500  BTQ500     -0.2023
     15  N2        22.4340    0.9760    3.6760 N.2   500  BTQ500     -0.1860
     16  C4        22.4480   -0.4790    3.6390 C.3   500  BTQ500      0.1500
@<TRIPOS>BOND
     1     3     1   ar
     2     2     1   ar
     3     1     4    1
     4     4     5    1
     5     5     6    1
     6     6     7    1
     7     7     8    1
     8     8     9    1
     9     8    16    1
    10     9    10    1
    11    16    15    1
    12    16    11    1
    13    15    13    2
    14    10    11    1
    15    13    14    2
    16    13    12    2
    17    11    12    1
