@<TRIPOS>MOLECULE
1swp_BTN_A_1.pdb
 16 17 0 0 0
SMALL
GASTEIGER

@<TRIPOS>ATOM
      1  C11        7.5200  -16.4160   24.7670 C.2   300  BTN300      0.3649
      2  O11        7.1730  -15.2290   25.0060 O.co2 300  BTN300     -0.2457
      3  O12        6.7380  -17.2320   24.2110 O.co2 300  BTN300     -0.2457
      4  C10        8.9020  -16.7900   25.1610 C.3   300  BTN300      0.1141
      5  C9         9.7040  -15.5770   25.6530 C.3   300  BTN300      0.0118
      6  C8        10.6630  -15.0820   24.5850 C.3   300  BTN300      0.0015
      7  C7        11.2170  -13.6510   24.8280 C.3   300  BTN300      0.0129
      8  C2        12.1150  -13.1040   23.7460 C.3   300  BTN300      0.0729
      9  S1        13.3140  -14.2770   23.0230 S.3   300  BTN300     -0.1369
     10  C6        13.9890  -12.9400   21.9900 C.3   300  BTN300      0.0848
     11  C5        14.0260  -11.7100   22.8730 C.3   300  BTN300      0.1509
     12  N1        15.2420  -11.5890   23.6570 N.2   300  BTN300     -0.1859
     13  C3        14.9960  -11.6340   24.9710 C.1   300  BTN300      0.2386
     14  O3        15.8520  -11.5300   25.8720 O.2   300  BTN300     -0.2023
     15  N2        13.6660  -11.7790   25.1870 N.2   300  BTN300     -0.1860
     16  C4        12.9140  -11.8360   23.9460 C.3   300  BTN300      0.1500
@<TRIPOS>BOND
     1    10    11    1
     2    10     9    1
     3    11    12    1
     4    11    16    1
     5     9     8    1
     6    12    13    2
     7     8    16    1
     8     8     7    1
     9    16    15    1
    10     3     1   ar
    11     6     7    1
    12     6     5    1
    13     1     2   ar
    14     1     4    1
    15    13    15    2
    16    13    14    2
    17     4     5    1
