@<TRIPOS>MOLECULE
1swr_BTN_A_1.pdb
 16 17 0 0 0
SMALL
GASTEIGER

@<TRIPOS>ATOM
      1  C11        7.4080  -16.0990   24.0450 C.2   300  BTN300      0.3649
      2  O11        7.0070  -14.9830   24.4470 O.co2 300  BTN300     -0.2457
      3  O12        6.7640  -16.7410   23.1830 O.co2 300  BTN300     -0.2457
      4  C10        8.6590  -16.6300   24.6440 C.3   300  BTN300      0.1141
      5  C9         9.5830  -15.4990   25.1190 C.3   300  BTN300      0.0118
      6  C8        10.3040  -14.8620   23.9330 C.3   300  BTN300      0.0015
      7  C7        11.1450  -13.6110   24.3200 C.3   300  BTN300      0.0129
      8  C2        11.9520  -12.9880   23.2080 C.3   300  BTN300      0.0729
      9  S1        13.1150  -14.1100   22.3480 S.3   300  BTN300     -0.1369
     10  C6        13.7500  -12.7120   21.3850 C.3   300  BTN300      0.0848
     11  C5        13.8110  -11.5200   22.3220 C.3   300  BTN300      0.1509
     12  N1        15.0560  -11.4480   23.0560 N.2   300  BTN300     -0.1859
     13  C3        14.8650  -11.5730   24.3750 C.1   300  BTN300      0.2386
     14  O3        15.7480  -11.5180   25.2520 O.2   300  BTN300     -0.2023
     15  N2        13.5530  -11.7380   24.6300 N.2   300  BTN300     -0.1860
     16  C4        12.7470  -11.7210   23.4340 C.3   300  BTN300      0.1500
@<TRIPOS>BOND
     1    10    11    1
     2    10     9    1
     3    11    12    1
     4    11    16    1
     5     9     8    1
     6    12    13    2
     7     3     1   ar
     8     8    16    1
     9     8     7    1
    10    16    15    1
    11     6     7    1
    12     6     5    1
    13     1     2   ar
    14     1     4    1
    15    13    15    2
    16    13    14    2
    17     4     5    1
