@<TRIPOS>MOLECULE
1swt_BTN_A_1.pdb
 16 17 0 0 0
SMALL
GASTEIGER

@<TRIPOS>ATOM
      1  C11      -10.1470   39.7600   27.6480 C.2   500  BTN500      0.3652
      2  O11       -9.4990   38.9820   28.3950 O.co2 500  BTN500     -0.2456
      3  O12       -9.7570   40.9390   27.4590 O.co2 500  BTN500     -0.2456
      4  C10      -11.3700   39.2230   27.0030 C.3   500  BTN500      0.1187
      5  C9       -11.2370   37.7230   26.6440 C.3   500  BTN500      0.0375
      6  C8       -10.3210   37.5600   25.4390 C.2   500  BTN500     -0.0292
      7  C7       -10.3140   36.1740   24.7650 C.2   500  BTN500     -0.0182
      8  C2        -9.3320   35.9450   23.6420 C.3   500  BTN500      0.0944
      9  S1        -9.7150   36.6900   22.0040 S.3   500  BTN500     -0.1325
     10  C6        -8.2190   35.8820   21.3260 C.3   500  BTN500      0.0851
     11  C5        -8.1810   34.4880   21.9300 C.3   500  BTN500      0.1513
     12  N1        -8.9450   33.5060   21.2020 N.2   500  BTN500     -0.1859
     13  C3        -9.9660   33.0100   21.9170 C.1   500  BTN500      0.2387
     14  O3       -10.7800   32.1370   21.5400 O.2   500  BTN500     -0.2023
     15  N2        -9.9730   33.5830   23.1390 N.2   500  BTN500     -0.1856
     16  C4        -8.8850   34.5380   23.3070 C.3   500  BTN500      0.1541
@<TRIPOS>BOND
     1    12    13    2
     2    12    11    1
     3    10    11    1
     4    10     9    1
     5    14    13    2
     6    13    15    2
     7    11    16    1
     8     9     8    1
     9    15    16    1
    10    16     8    1
    11     8     7    1
    12     7     6    2
    13     6     5    1
    14     5     4    1
    15     4     1    1
    16     3     1   ar
    17     1     2   ar
