@<TRIPOS>MOLECULE
1sx3_ATP_A_1.pdb
 31 33 0 0 0
SMALL
GASTEIGER

@<TRIPOS>ATOM
      1  PG       123.7480   22.7270    0.3410 P.3     1  ATP1        0.5373
      2  O1G      123.0010   21.5260    0.9280 O.3     1  ATP1       -0.1143
      3  O2G      123.1240   23.5270   -0.8050 O.2     1  ATP1       -0.2221
      4  O3G      125.1270   22.2580   -0.1980 O.3     1  ATP1       -0.1143
      5  PB       125.2970   24.3120    2.1670 P.3     1  ATP1        0.2277
      6  O1B      126.1630   24.6300    1.0000 O.2     1  ATP1       -0.5168
      7  O2B      125.1390   25.3290    3.3300 O.3     1  ATP1       -0.4368
      8  O3B      123.9500   23.6270    1.7060 O.3     1  ATP1       -0.2258
      9  PA       127.3550   22.2550    2.9500 P.3     1  ATP1        0.2189
     10  O1A      127.2570   21.0030    3.6370 O.3     1  ATP1       -0.4371
     11  O2A      127.5980   22.2280    1.4260 O.2     1  ATP1       -0.5170
     12  O3A      125.9960   23.1850    3.1010 O.3     1  ATP1       -0.2700
     13  O5'      128.4470   22.9900    3.8740 O.3     1  ATP1       -0.3112
     14  C5'      128.7910   24.3010    3.5460 C.3     1  ATP1        0.1813
     15  C4'      129.5760   24.9690    4.6680 C.3     1  ATP1        0.1821
     16  O4'      130.6420   24.0990    5.0010 O.3     1  ATP1       -0.3135
     17  C3'      130.2080   26.2700    4.1140 C.3     1  ATP1        0.2184
     18  O3'      130.0130   27.0720    5.2750 O.3     1  ATP1       -0.2174
     19  C2'      131.6680   25.8330    3.9690 C.3     1  ATP1        0.2570
     20  O2'      132.6470   26.8090    4.2200 O.3     1  ATP1       -0.2130
     21  C1'      131.8000   24.8250    5.1040 C.3     1  ATP1        0.3186
     22  N9       133.0070   24.0170    5.0230 N.pl3   1  ATP1       -0.1439
     23  C8       133.6240   23.3690    3.9500 C.3     1  ATP1        0.3377
     24  N7       134.8160   22.8070    4.3740 N.2     1  ATP1       -0.2095
     25  C5       134.9410   23.1160    5.7220 C.2     1  ATP1        0.2526
     26  C6       135.8950   22.8770    6.7010 C.2     1  ATP1        0.4393
     27  N6       136.9740   22.1510    6.5290 N.pl3   1  ATP1        0.2180
     28  N1       135.7200   23.3580    7.9990 N.2     1  ATP1        0.0021
     29  C2       134.6310   24.0970    8.3560 C.3     1  ATP1        0.5254
     30  N3       133.6930   24.3680    7.3760 N.2     1  ATP1       -0.0055
     31  C4       133.8540   23.9030    6.1010 C.2     1  ATP1        0.3518
@<TRIPOS>BOND
     1     3     1    2
     2     4     1    1
     3     1     2    1
     4     1     8    1
     5     6     5    2
     6    11     9    2
     7     8     5    1
     8     5    12    1
     9     5     7    1
    10     9    12    1
    11     9    10    1
    12     9    13    1
    13    14    13    1
    14    14    15    1
    15    23    24    1
    16    23    22    1
    17    19    17    1
    18    19    20    1
    19    19    21    1
    20    17    15    1
    21    17    18    1
    22    24    25    2
    23    15    16    1
    24    16    21    1
    25    22    21    1
    26    22    31    1
    27    25    31    1
    28    25    26    1
    29    31    30    2
    30    27    26    1
    31    26    28    2
    32    30    29    1
    33    28    29    1
