@<TRIPOS>MOLECULE
1sx4_ADP_A_1.pdb
 27 29 0 0 0
SMALL
GASTEIGER

@<TRIPOS>ATOM
      1  PB        32.2420  -44.0100  -18.1390 P.3   600  ADP600      0.5373
      2  O1B       31.4260  -43.5860  -19.3490 O.2   600  ADP600     -0.2221
      3  O2B       32.2310  -45.4200  -17.4290 O.3   600  ADP600     -0.1143
      4  O3B       33.6700  -43.6990  -18.7670 O.3   600  ADP600     -0.1143
      5  PA        31.6720  -41.6100  -16.8810 P.3   600  ADP600      0.2231
      6  O1A       32.3370  -40.9020  -15.8350 O.3   600  ADP600     -0.4370
      7  O2A       32.0750  -41.4220  -18.4240 O.2   600  ADP600     -0.5169
      8  O3A       31.9020  -43.1830  -16.7330 O.3   600  ADP600     -0.2261
      9  O5'       30.1730  -41.3030  -16.6020 O.3   600  ADP600     -0.3111
     10  C5'       29.3840  -42.4500  -16.5210 C.3   600  ADP600      0.1813
     11  C4'       28.0860  -42.4090  -15.7240 C.3   600  ADP600      0.1821
     12  O4'       27.8040  -41.0910  -15.4640 O.3   600  ADP600     -0.3135
     13  C3'       26.9280  -42.8290  -16.5940 C.3   600  ADP600      0.2184
     14  O3'       26.3330  -43.9090  -15.9860 O.3   600  ADP600     -0.2174
     15  C2'       25.9500  -41.6710  -16.4980 C.3   600  ADP600      0.2570
     16  O2'       24.6370  -42.0530  -16.2590 O.3   600  ADP600     -0.2130
     17  C1'       26.4450  -40.9790  -15.2750 C.3   600  ADP600      0.3186
     18  N9        25.9640  -39.6020  -15.1650 N.pl3 600  ADP600     -0.1439
     19  C8        26.1070  -38.5420  -15.9760 C.3   600  ADP600      0.3377
     20  N7        25.4250  -37.5220  -15.4140 N.2   600  ADP600     -0.2095
     21  C5        24.8380  -37.9260  -14.2440 C.2   600  ADP600      0.2526
     22  C6        24.0560  -37.3420  -13.2030 C.2   600  ADP600      0.4393
     23  N6        23.5720  -36.1130  -13.1070 N.pl3 600  ADP600      0.2180
     24  N1        23.6970  -38.0810  -12.1440 N.2   600  ADP600      0.0021
     25  C2        24.0830  -39.3890  -12.0310 C.3   600  ADP600      0.5254
     26  N3        24.8430  -39.9510  -13.0200 N.2   600  ADP600     -0.0055
     27  C4        25.2140  -39.2370  -14.0960 C.2   600  ADP600      0.3518
@<TRIPOS>BOND
     1     2     1    2
     2     4     1    1
     3     7     5    2
     4     1     3    1
     5     1     8    1
     6     5     8    1
     7     5     9    1
     8     5     6    1
     9     9    10    1
    10    13    15    1
    11    13    14    1
    12    13    11    1
    13    10    11    1
    14    15    16    1
    15    15    17    1
    16    19    20    1
    17    19    18    1
    18    11    12    1
    19    12    17    1
    20    20    21    2
    21    17    18    1
    22    18    27    1
    23    21    27    1
    24    21    22    1
    25    27    26    2
    26    22    23    1
    27    22    24    2
    28    26    25    1
    29    24    25    1
