@<TRIPOS>MOLECULE
1sx6_LAT_A_1.pdb
 23 24 0 0 0
SMALL
GASTEIGER

@<TRIPOS>ATOM
      1  C1        25.8730    4.5170   17.3660 C.3   300  LAT300      0.2695
      2  C2        25.2280    5.5980   18.2200 C.3   300  LAT300      0.2406
      3  C3        26.2860    6.6470   18.5950 C.3   300  LAT300      0.2198
      4  C4        27.5410    5.9570   19.1420 C.3   300  LAT300      0.2144
      5  C5        28.0020    4.8560   18.1870 C.3   300  LAT300      0.1835
      6  C6        29.2680    4.1180   18.6390 C.3   300  LAT300      0.2142
      7  O1        24.9010    3.5800   16.9750 O.3   300  LAT300     -0.3257
      8  O2        24.1730    6.1260   17.4540 O.3   300  LAT300     -0.2149
      9  O3        25.7880    7.6110   19.5030 O.3   300  LAT300     -0.2174
     10  O4        27.2420    5.3780   20.3860 O.3   300  LAT300     -0.2176
     11  O5        26.9500    3.9290   18.0680 O.3   300  LAT300     -0.3256
     12  O6        30.2160    4.0920   17.5790 O.3   300  LAT300     -0.2176
     13  C1'       23.1540    0.4600   19.0720 C.3   300  LAT300      0.3023
     14  C2'       22.3040    1.7390   18.8430 C.3   300  LAT300      0.2433
     15  C3'       22.9140    2.7500   17.8930 C.3   300  LAT300      0.2168
     16  C4'       24.4300    2.6420   17.9030 C.3   300  LAT300      0.1804
     17  C5'       24.8720    1.2540   17.4640 C.3   300  LAT300      0.1804
     18  C6'       26.4010    1.0700   17.4500 C.3   300  LAT300      0.2141
     19  O1'       22.3590   -0.7080   19.0660 O.3   300  LAT300     -0.1869
     20  O2'       20.9570    1.5260   18.4990 O.3   300  LAT300     -0.2148
     21  O3'       22.5330    4.0460   18.3140 O.3   300  LAT300     -0.2175
     22  O5'       24.2730    0.2180   18.2280 O.3   300  LAT300     -0.3237
     23  O6'       26.7190   -0.1930   16.8860 O.3   300  LAT300     -0.2176
@<TRIPOS>BOND
     1    23    18    1
     2     7     1    1
     3     7    16    1
     4     1    11    1
     5     1     2    1
     6    18    17    1
     7     8     2    1
     8    17    16    1
     9    17    22    1
    10    12     6    1
    11    15    16    1
    12    15    21    1
    13    15    14    1
    14    11     5    1
    15     5     6    1
    16     5     4    1
    17     2     3    1
    18    22    13    1
    19    20    14    1
    20     3     4    1
    21     3     9    1
    22    14    13    1
    23    19    13    1
    24     4    10    1
