@<TRIPOS>MOLECULE
1sxg_171_A_1.pdb
 13 13 0 0 0
SMALL
GASTEIGER

@<TRIPOS>ATOM
      1  C3'      134.9610  -12.0710   35.1560 C.ar  3256  1713256     0.0013
      2  C2'      134.8810  -10.8470   35.8370 C.ar  3256  1713256     0.0161
      3  C1'      135.8320   -9.8190   35.6290 C.ar  3256  1713256     0.0654
      4  C6'      136.8960  -10.0180   34.7000 C.ar  3256  1713256     0.0161
      5  N        135.7080   -8.6550   36.3190 N.pl3 3256  1713256    -0.2359
      6  C1       134.5620   -7.9240   35.8320 C.3   3256  1713256     0.1336
      7  C2       134.1610   -6.5430   36.3700 C.3   3256  1713256     0.1285
      8  S        132.7900   -6.2940   35.3330 S.3   3256  1713256    -0.1942
      9  O1       132.1890   -4.9080   35.5620 O.3   3256  1713256    -0.3074
     10  O2       133.1900   -6.5240   33.8450 O.3   3256  1713256    -0.3074
     11  O3       131.7530   -7.3400   35.7330 O.3   3256  1713256    -0.3074
     12  C5'      136.9660  -11.2570   34.0180 C.ar  3256  1713256     0.0013
     13  C4'      136.0060  -12.2720   34.2370 C.ar  3256  1713256     0.0001
@<TRIPOS>BOND
     1    10     8    1
     2    12    13   ar
     3    12     4   ar
     4    13     1   ar
     5     4     3   ar
     6     1     2   ar
     7     8     9    1
     8     8    11    1
     9     8     7    1
    10     3     2   ar
    11     3     5    1
    12     6     5    1
    13     6     7    1
