@<TRIPOS>MOLECULE
1sxj_ADP_E_1.pdb
 27 29 0 0 0
SMALL
GASTEIGER

@<TRIPOS>ATOM
      1  PB        27.9740   18.7360   22.1180 P.3   805  ADP805      0.5373
      2  O1B       26.7790   17.9040   21.6440 O.2   805  ADP805     -0.2221
      3  O2B       28.0170   20.1310   21.6780 O.3   805  ADP805     -0.1143
      4  O3B       28.0520   18.7580   23.6860 O.3   805  ADP805     -0.1143
      5  PA        30.8200   18.4710   21.9980 P.3   805  ADP805      0.2231
      6  O1A       31.4700   18.5130   20.6540 O.2   805  ADP805     -0.5169
      7  O2A       30.9390   19.7590   22.7630 O.3   805  ADP805     -0.4370
      8  O3A       29.2880   18.0660   21.7500 O.3   805  ADP805     -0.2261
      9  O5'       31.3500   17.1890   22.8390 O.3   805  ADP805     -0.3111
     10  C5'       32.6790   17.3860   23.4500 C.3   805  ADP805      0.1813
     11  C4'       33.5840   16.1310   23.5240 C.3   805  ADP805      0.1821
     12  O4'       32.9640   15.0060   22.8020 O.3   805  ADP805     -0.3135
     13  C3'       34.9780   16.2340   22.8710 C.3   805  ADP805      0.2184
     14  O3'       35.9360   16.9400   23.6350 O.3   805  ADP805     -0.2174
     15  C2'       35.3050   14.7600   22.5850 C.3   805  ADP805      0.2570
     16  O2'       35.9760   14.0590   23.6190 O.3   805  ADP805     -0.2130
     17  C1'       33.9920   14.1430   22.2510 C.3   805  ADP805      0.3186
     18  N9        33.7490   13.9290   20.7440 N.pl3 805  ADP805     -0.1439
     19  C8        32.6910   14.5170   20.0830 C.3   805  ADP805      0.3377
     20  N7        32.5830   14.2570   18.7910 N.2   805  ADP805     -0.2095
     21  C5        33.6330   13.4350   18.5460 C.2   805  ADP805      0.2526
     22  C6        34.1270   12.7660   17.3390 C.2   805  ADP805      0.4393
     23  N6        33.5350   12.8690   16.1240 N.pl3 805  ADP805      0.2180
     24  N1        35.2680   11.9730   17.4600 N.2   805  ADP805      0.0021
     25  C2        35.9080   11.8350   18.6880 C.3   805  ADP805      0.5254
     26  N3        35.5370   12.4160   19.8780 N.2   805  ADP805     -0.0055
     27  C4        34.3920   13.2130   19.7560 C.2   805  ADP805      0.3518
@<TRIPOS>BOND
     1    23    22    1
     2    22    24    2
     3    22    21    1
     4    24    25    1
     5    21    20    2
     6    21    27    1
     7    25    26    1
     8    20    19    1
     9    27    26    2
    10    27    18    1
    11    19    18    1
    12     6     5    2
    13    18    17    1
    14     2     1    2
    15     3     1    1
    16     8     5    1
    17     8     1    1
    18     5     7    1
    19     5     9    1
    20     1     4    1
    21    17    15    1
    22    17    12    1
    23    15    13    1
    24    15    16    1
    25    12    11    1
    26     9    10    1
    27    13    11    1
    28    13    14    1
    29    10    11    1
