@<TRIPOS>MOLECULE
1sxj_AGS_A_1.pdb
 31 33 0 0 0
SMALL
GASTEIGER

@<TRIPOS>ATOM
      1  PG        29.2400   45.6850   58.2950 P.3   801  AGS801      0.4340
      2  S1G       29.9720   44.8030   57.0300 S.3   801  AGS801      0.0416
      3  O2G       27.7380   45.7190   58.2000 O.2   801  AGS801     -0.2423
      4  O3G       29.8030   47.1330   58.2880 O.3   801  AGS801     -0.1305
      5  PB        31.0080   44.5540   60.3780 P.3   801  AGS801      0.2262
      6  O1B       32.0180   45.5280   59.8740 O.2   801  AGS801     -0.5168
      7  O2B       31.2850   43.0890   60.2770 O.3   801  AGS801     -0.4369
      8  O3B       29.6520   44.9210   59.6740 O.3   801  AGS801     -0.2405
      9  PA        31.5090   45.5740   63.0820 P.3   801  AGS801      0.2189
     10  O1A       31.6940   47.0540   62.8760 O.2   801  AGS801     -0.5170
     11  O2A       32.7870   44.7910   63.1810 O.3   801  AGS801     -0.4371
     12  O3A       30.6790   44.9160   61.8790 O.3   801  AGS801     -0.2701
     13  O5'       30.5150   45.2020   64.3100 O.3   801  AGS801     -0.3112
     14  C5'       29.6060   46.2430   64.7750 C.3   801  AGS801      0.1813
     15  C4'       29.2210   46.0560   66.2490 C.3   801  AGS801      0.1821
     16  O4'       28.7150   44.6750   66.4010 O.3   801  AGS801     -0.3135
     17  C3'       30.4030   46.1540   67.2290 C.3   801  AGS801      0.2184
     18  O3'       30.5950   47.4680   67.7680 O.3   801  AGS801     -0.2174
     19  C2'       30.1180   45.0450   68.2630 C.3   801  AGS801      0.2570
     20  O2'       29.4980   45.4900   69.4530 O.3   801  AGS801     -0.2130
     21  C1'       29.2700   44.0320   67.5570 C.3   801  AGS801      0.3186
     22  N9        30.0370   42.8060   67.0490 N.pl3 801  AGS801     -0.1439
     23  C8        30.0630   42.4780   65.7050 C.3   801  AGS801      0.3377
     24  N7        30.7590   41.3980   65.3740 N.2   801  AGS801     -0.2095
     25  C5        31.2470   40.9570   66.5680 C.2   801  AGS801      0.2526
     26  C6        32.0850   39.8320   66.9350 C.2   801  AGS801      0.4393
     27  N6        32.5800   38.9290   66.0510 N.pl3 801  AGS801      0.2180
     28  N1        32.3910   39.6890   68.2670 N.2   801  AGS801      0.0021
     29  C2        31.9030   40.5890   69.1890 C.3   801  AGS801      0.5254
     30  N3        31.1140   41.6700   68.9650 N.2   801  AGS801     -0.0055
     31  C4        30.8090   41.8140   67.6320 C.2   801  AGS801      0.3518
@<TRIPOS>BOND
     1     2     1    1
     2     3     1    2
     3     4     1    1
     4     1     8    1
     5     8     5    1
     6     6     5    2
     7     7     5    1
     8     5    12    1
     9    12     9    1
    10    10     9    2
    11     9    11    1
    12     9    13    1
    13    13    14    1
    14    14    15    1
    15    24    23    1
    16    24    25    2
    17    23    22    1
    18    27    26    1
    19    15    16    1
    20    15    17    1
    21    16    21    1
    22    25    26    1
    23    25    31    1
    24    26    28    2
    25    22    21    1
    26    22    31    1
    27    17    18    1
    28    17    19    1
    29    21    19    1
    30    31    30    2
    31    19    20    1
    32    28    29    1
    33    30    29    1
