@<TRIPOS>MOLECULE
1sxk_BHA_A_1.pdb
 11 11 0 0 0
SMALL
GASTEIGER

@<TRIPOS>ATOM
      1  C1'        6.2720   32.4470   16.0250 C.2   251  BHA251      0.3909
      2  O1'        6.9610   31.7430   16.7480 O.co2 251  BHA251     -0.2404
      3  O2'        6.6310   33.7070   15.8560 O.co2 251  BHA251     -0.2404
      4  C1         5.0310   32.0240   15.2900 C.ar  251  BHA251      0.1186
      5  C2         4.4120   30.6700   15.3160 C.ar  251  BHA251      0.2034
      6  C3         3.2540   30.4530   14.5730 C.ar  251  BHA251      0.0603
      7  C4         2.6990   31.4880   13.8250 C.ar  251  BHA251      0.0923
      8  C5         3.2790   32.7480   13.8030 C.ar  251  BHA251      0.0185
      9  C6         4.4280   33.0120   14.5280 C.ar  251  BHA251      0.0112
     10  O2         4.9540   29.6530   16.0410 O.3   251  BHA251     -0.2863
     11  N4         1.5750   31.2830   13.1010 N.pl3 251  BHA251     -0.1280
@<TRIPOS>BOND
     1    11     7    1
     2     8     7   ar
     3     8     9   ar
     4     7     6   ar
     5     9     4   ar
     6     6     5   ar
     7     4     5   ar
     8     4     1    1
     9     5    10    1
    10     3     1   ar
    11     1     2   ar
