@<TRIPOS>MOLECULE
1sxq_UDP_A_1.pdb
 25 26 0 0 0
SMALL
GASTEIGER

@<TRIPOS>ATOM
      1  N1        26.4300   -5.4110    1.5060 N.am  400  UDP400     -0.1766
      2  C2        26.4390   -4.1090    1.9670 C.1   400  UDP400      0.2845
      3  N3        26.8640   -3.9540    3.2640 N.2   400  UDP400     -0.2452
      4  C4        27.2760   -4.9500    4.1280 C.1   400  UDP400      0.2182
      5  C5        27.2580   -6.2660    3.5700 C.2   400  UDP400      0.1242
      6  C6        26.8430   -6.4480    2.3090 C.2   400  UDP400      0.0929
      7  O2        26.0950   -3.1620    1.2770 O.2   400  UDP400     -0.1918
      8  O4        27.5530   -4.6630    5.2950 O.2   400  UDP400     -0.2085
      9  C1'       25.9640   -5.6330    0.1280 C.3   400  UDP400      0.2401
     10  C2'       27.1000   -5.6930   -0.8980 C.3   400  UDP400      0.2319
     11  O2'       26.7190   -4.9880   -2.0600 O.3   400  UDP400     -0.2157
     12  C3'       27.2310   -7.1940   -1.1350 C.3   400  UDP400      0.2158
     13  C4'       25.7980   -7.6700   -1.0170 C.3   400  UDP400      0.1799
     14  O4'       25.2590   -6.8660    0.0650 O.3   400  UDP400     -0.3320
     15  O3'       27.7240   -7.4900   -2.4330 O.3   400  UDP400     -0.2175
     16  C5'       25.6610   -9.1410   -0.7060 C.3   400  UDP400      0.1813
     17  O5'       24.2930   -9.4990   -0.5490 O.3   400  UDP400     -0.3111
     18  PA        23.8940  -10.9780   -0.1080 P.3   400  UDP400      0.2231
     19  O1A       24.2730  -11.1340    1.3220 O.3   400  UDP400     -0.4370
     20  O2A       22.4940  -11.2410   -0.5260 O.2   400  UDP400     -0.5169
     21  O3A       24.9070  -11.9230   -0.9630 O.3   400  UDP400     -0.2261
     22  PB        24.9500  -12.2770   -2.5570 P.3   400  UDP400      0.5373
     23  O1B       24.8350  -10.9650   -3.3050 O.2   400  UDP400     -0.2221
     24  O2B       23.7800  -13.2140   -2.8080 O.3   400  UDP400     -0.1143
     25  O3B       26.3020  -12.9490   -2.7520 O.3   400  UDP400     -0.1143
@<TRIPOS>BOND
     1    23    22    2
     2    24    22    1
     3    25    22    1
     4    22    21    1
     5    15    12    1
     6    11    10    1
     7    12    13    1
     8    12    10    1
     9    13    16    1
    10    13    14    1
    11    21    18    1
    12    10     9    1
    13    16    17    1
    14    17    18    1
    15    20    18    2
    16    18    19    1
    17    14     9    1
    18     9     1    1
    19     7     2    2
    20     1     2   am
    21     1     6    1
    22     2     3    2
    23     6     5    2
    24     3     4    2
    25     5     4    1
    26     4     8    2
