@<TRIPOS>MOLECULE
1sxu_HEM_A_1.pdb
 43 50 0 0 0
SMALL
GASTEIGER

@<TRIPOS>ATOM
      1 FE         11.0480   20.1500   36.4460 Fe    185  HEM185      0.0000
      2  CHA       11.4910   23.1480   34.8530 C.2   185  HEM185      0.0000
      3  CHB        7.6810   20.4200   36.0250 C.2   185  HEM185      0.0000
      4  CHC       10.6010   17.3760   38.4620 C.2   185  HEM185      0.0000
      5  CHD       14.4290   19.6630   36.5870 C.2   185  HEM185      0.0000
      6  NA         9.8510   21.4710   35.5990 N.ar  185  HEM185      0.0000
      7  C1A       10.2200   22.6970   35.1000 C.ar  185  HEM185      0.0000
      8  C2A        9.0330   23.4370   34.7610 C.ar  185  HEM185      0.0000
      9  C3A        7.9610   22.6880   35.0930 C.ar  185  HEM185      0.0000
     10  C4A        8.4850   21.4370   35.5880 C.ar  185  HEM185      0.0000
     11  CMA        6.4580   23.0550   34.9310 C.3   185  HEM185      0.0000
     12  CAA        9.0510   24.8730   34.1860 C.3   185  HEM185      0.0000
     13  CBA        8.7030   25.8980   35.2840 C.3   185  HEM185      0.0000
     14  CGA        8.7270   27.3390   34.8580 C.2   185  HEM185      0.0000
     15  O1A        9.5250   27.7450   33.9620 O.co2 185  HEM185      0.0000
     16  O2A        7.9010   28.1160   35.3990 O.co2 185  HEM185      0.0000
     17  NB         9.5080   19.1110   37.1110 N.2   185  HEM185      0.0000
     18  C1B        8.1440   19.3390   36.7760 C.2   185  HEM185      0.0000
     19  C2B        7.2840   18.3170   37.3790 C.2   185  HEM185      0.0000
     20  C3B        8.0940   17.4810   38.0870 C.2   185  HEM185      0.0000
     21  C4B        9.4660   17.9670   37.9200 C.2   185  HEM185      0.0000
     22  CMB        5.7300   18.2470   37.2010 C.3   185  HEM185      0.0000
     23  CAB        7.6840   16.2410   38.9300 C.2   185  HEM185      0.0000
     24  CBB        7.4200   16.4770   40.2080 C.2   185  HEM185      0.0000
     25  NC        12.3060   18.7980   37.3470 N.ar  185  HEM185      0.0000
     26  C1C       11.9100   17.7480   38.1360 C.ar  185  HEM185      0.0000
     27  C2C       13.0970   17.0500   38.5450 C.ar  185  HEM185      0.0000
     28  C3C       14.1710   17.6270   37.9860 C.ar  185  HEM185      0.0000
     29  C4C       13.6790   18.7590   37.2480 C.ar  185  HEM185      0.0000
     30  CMC       13.0250   15.8190   39.4420 C.3   185  HEM185      0.0000
     31  CAC       15.6640   17.2130   38.1120 C.2   185  HEM185      0.0000
     32  CBC       16.6340   17.9950   37.6850 C.2   185  HEM185      0.0000
     33  ND        12.6040   21.2100   35.8090 N.2   185  HEM185      0.0000
     34  C1D       13.9510   20.8340   35.9960 C.2   185  HEM185      0.0000
     35  C2D       14.8410   21.8140   35.3970 C.2   185  HEM185      0.0000
     36  C3D       13.9680   22.8790   34.8750 C.2   185  HEM185      0.0000
     37  C4D       12.6230   22.4400   35.1730 C.2   185  HEM185      0.0000
     38  CMD       16.3850   21.8190   35.3760 C.3   185  HEM185      0.0000
     39  CAD       14.3940   24.1620   34.1510 C.3   185  HEM185      0.0000
     40  CBD       14.0390   23.9240   32.6970 C.3   185  HEM185      0.0000
     41  CGD       14.4790   25.0420   31.8050 C.2   185  HEM185      0.0000
     42  O1D       13.8830   26.1370   31.9130 O.co2 185  HEM185      0.0000
     43  O2D       15.4100   24.8040   30.9770 O.co2 185  HEM185      0.0000
@<TRIPOS>BOND
     1    43    41   ar
     2    41    42   ar
     3    41    40    1
     4    40    39    1
     5    15    14   ar
     6    39    36    1
     7    12     8    1
     8    12    13    1
     9     8     9   ar
    10     8     7   ar
    11     2     7    2
    12     2    37    1
    13    14    13    1
    14    14    16   ar
    15    36    37    1
    16    36    35    2
    17    11     9    1
    18     9    10   ar
    19     7     6   ar
    20    37    33    2
    21    38    35    1
    22    35    34    1
    23    10     6   ar
    24    10     3    2
    25     6     1    1
    26    33    34    1
    27    33     1    1
    28    34     5    2
    29     3    18    1
    30     1    17    1
    31     1    25    1
    32     5    29    1
    33    18    17    2
    34    18    19    1
    35    17    21    1
    36    22    19    1
    37    29    25   ar
    38    29    28   ar
    39    25    26   ar
    40    19    20    2
    41    32    31    2
    42    21    20    1
    43    21     4    2
    44    28    31    1
    45    28    27   ar
    46    20    23    1
    47    26     4    1
    48    26    27   ar
    49    27    30    1
    50    23    24    2
