@<TRIPOS>MOLECULE
1sxw_HEM_A_1.pdb
 43 50 0 0 0
SMALL
GASTEIGER

@<TRIPOS>ATOM
      1 FE         10.8240   20.6110   36.4320 Fe    185  HEM185      0.0000
      2  CHA       11.3440   23.6650   35.0160 C.2   185  HEM185      0.0000
      3  CHB        7.4880   20.9910   36.0430 C.2   185  HEM185      0.0000
      4  CHC       10.3230   17.9870   38.5250 C.2   185  HEM185      0.0000
      5  CHD       14.1520   20.0000   36.4960 C.2   185  HEM185      0.0000
      6  NA         9.6610   22.0410   35.6840 N.ar  185  HEM185      0.0000
      7  C1A       10.0520   23.2660   35.1920 C.ar  185  HEM185      0.0000
      8  C2A        8.8800   24.0580   34.8650 C.ar  185  HEM185      0.0000
      9  C3A        7.8080   23.3180   35.1220 C.ar  185  HEM185      0.0000
     10  C4A        8.2740   22.0420   35.6440 C.ar  185  HEM185      0.0000
     11  CMA        6.3450   23.7160   34.9270 C.3   185  HEM185      0.0000
     12  CAA        8.9140   25.4690   34.3020 C.3   185  HEM185      0.0000
     13  CBA        8.6250   26.4950   35.4170 C.3   185  HEM185      0.0000
     14  CGA        8.6370   27.9360   34.9530 C.2   185  HEM185      0.0000
     15  O1A        9.3280   28.3190   33.9830 O.co2 185  HEM185      0.0000
     16  O2A        7.8930   28.7160   35.5220 O.co2 185  HEM185      0.0000
     17  NB         9.2300   19.6670   37.1300 N.2   185  HEM185      0.0000
     18  C1B        7.9060   19.9310   36.8040 C.2   185  HEM185      0.0000
     19  C2B        7.0530   18.9470   37.3970 C.2   185  HEM185      0.0000
     20  C3B        7.8310   18.1350   38.1110 C.2   185  HEM185      0.0000
     21  C4B        9.2080   18.5720   37.9830 C.2   185  HEM185      0.0000
     22  CMB        5.5270   18.9150   37.2180 C.3   185  HEM185      0.0000
     23  CAB        7.3790   16.9420   38.9600 C.2   185  HEM185      0.0000
     24  CBB        7.7880   16.8120   40.2210 C.2   185  HEM185      0.0000
     25  NC        12.0290   19.2620   37.3470 N.ar  185  HEM185      0.0000
     26  C1C       11.6350   18.2370   38.1630 C.ar  185  HEM185      0.0000
     27  C2C       12.7800   17.4930   38.5700 C.ar  185  HEM185      0.0000
     28  C3C       13.8320   18.0480   37.9730 C.ar  185  HEM185      0.0000
     29  C4C       13.3810   19.1650   37.2200 C.ar  185  HEM185      0.0000
     30  CMC       12.7020   16.2750   39.4950 C.3   185  HEM185      0.0000
     31  CAC       15.2980   17.6320   38.0300 C.2   185  HEM185      0.0000
     32  CBC       15.8220   16.9480   39.0200 C.2   185  HEM185      0.0000
     33  ND        12.4230   21.6320   35.8390 N.2   185  HEM185      0.0000
     34  C1D       13.7410   21.1790   35.9180 C.2   185  HEM185      0.0000
     35  C2D       14.6290   22.1550   35.3500 C.2   185  HEM185      0.0000
     36  C3D       13.7910   23.2590   34.9280 C.2   185  HEM185      0.0000
     37  C4D       12.4420   22.8880   35.2570 C.2   185  HEM185      0.0000
     38  CMD       16.1400   22.0820   35.2420 C.3   185  HEM185      0.0000
     39  CAD       14.2200   24.5610   34.2780 C.3   185  HEM185      0.0000
     40  CBD       14.6500   24.3810   32.8500 C.3   185  HEM185      0.0000
     41  CGD       13.5600   24.6100   31.8690 C.2   185  HEM185      0.0000
     42  O1D       13.7080   24.1090   30.7260 O.co2 185  HEM185      0.0000
     43  O2D       12.5400   25.2860   32.1520 O.co2 185  HEM185      0.0000
@<TRIPOS>BOND
     1    42    41   ar
     2    41    43   ar
     3    41    40    1
     4    40    39    1
     5    15    14   ar
     6    39    36    1
     7    12     8    1
     8    12    13    1
     9     8     9   ar
    10     8     7   ar
    11    11     9    1
    12    36    37    1
    13    36    35    2
    14    14    13    1
    15    14    16   ar
    16     2     7    2
    17     2    37    1
    18     9    10   ar
    19     7     6   ar
    20    38    35    1
    21    37    33    2
    22    35    34    1
    23    10     6   ar
    24    10     3    2
    25     6     1    1
    26    33    34    1
    27    33     1    1
    28    34     5    2
    29     3    18    1
    30     1    17    1
    31     1    25    1
    32     5    29    1
    33    18    17    2
    34    18    19    1
    35    17    21    1
    36    22    19    1
    37    29    25   ar
    38    29    28   ar
    39    25    26   ar
    40    19    20    2
    41    28    31    1
    42    28    27   ar
    43    21    20    1
    44    21     4    2
    45    31    32    2
    46    20    23    1
    47    26     4    1
    48    26    27   ar
    49    27    30    1
    50    23    24    2
