@<TRIPOS>MOLECULE
1sxx_HEM_A_1.pdb
 43 50 0 0 0
SMALL
GASTEIGER

@<TRIPOS>ATOM
      1 FE         10.7650   20.1590   36.5350 Fe    185  HEM185      0.0000
      2  CHA       11.2710   23.2360   35.1750 C.2   185  HEM185      0.0000
      3  CHB        7.4400   20.5330   36.0990 C.2   185  HEM185      0.0000
      4  CHC       10.2610   17.5280   38.6200 C.2   185  HEM185      0.0000
      5  CHD       14.0990   19.6110   36.6110 C.2   185  HEM185      0.0000
      6  NA         9.5960   21.6010   35.7830 N.ar  185  HEM185      0.0000
      7  C1A        9.9820   22.8190   35.3140 C.ar  185  HEM185      0.0000
      8  C2A        8.8170   23.5960   34.9560 C.ar  185  HEM185      0.0000
      9  C3A        7.7500   22.8560   35.1940 C.ar  185  HEM185      0.0000
     10  C4A        8.2230   21.5820   35.7000 C.ar  185  HEM185      0.0000
     11  CMA        6.3000   23.2430   34.9820 C.3   185  HEM185      0.0000
     12  CAA        8.8570   25.0180   34.3980 C.3   185  HEM185      0.0000
     13  CBA        8.6000   26.0160   35.5190 C.3   185  HEM185      0.0000
     14  CGA        8.6230   27.4470   35.0680 C.2   185  HEM185      0.0000
     15  O1A        9.4150   27.8200   34.1720 O.co2 185  HEM185      0.0000
     16  O2A        7.8320   28.2380   35.5860 O.co2 185  HEM185      0.0000
     17  NB         9.1450   19.2000   37.2210 N.2   185  HEM185      0.0000
     18  C1B        7.8450   19.4530   36.8540 C.2   185  HEM185      0.0000
     19  C2B        6.9950   18.4580   37.4500 C.2   185  HEM185      0.0000
     20  C3B        7.7750   17.6590   38.1860 C.2   185  HEM185      0.0000
     21  C4B        9.1440   18.1100   38.0580 C.2   185  HEM185      0.0000
     22  CMB        5.4760   18.4090   37.2420 C.3   185  HEM185      0.0000
     23  CAB        7.3620   16.4460   39.0220 C.2   185  HEM185      0.0000
     24  CBB        7.7490   16.3680   40.3010 C.2   185  HEM185      0.0000
     25  NC        11.9670   18.8350   37.4540 N.ar  185  HEM185      0.0000
     26  C1C       11.5620   17.7950   38.2680 C.ar  185  HEM185      0.0000
     27  C2C       12.7070   17.0220   38.6340 C.ar  185  HEM185      0.0000
     28  C3C       13.7740   17.5840   38.0520 C.ar  185  HEM185      0.0000
     29  C4C       13.3220   18.7300   37.3020 C.ar  185  HEM185      0.0000
     30  CMC       12.6020   15.7790   39.5270 C.3   185  HEM185      0.0000
     31  CAC       15.2410   17.1370   38.0820 C.2   185  HEM185      0.0000
     32  CBC       15.8080   16.5670   39.1320 C.2   185  HEM185      0.0000
     33  ND        12.3740   21.2120   35.9940 N.2   185  HEM185      0.0000
     34  C1D       13.6890   20.8090   36.0820 C.2   185  HEM185      0.0000
     35  C2D       14.5850   21.8150   35.5690 C.2   185  HEM185      0.0000
     36  C3D       13.7140   22.9140   35.1370 C.2   185  HEM185      0.0000
     37  C4D       12.3820   22.4690   35.4260 C.2   185  HEM185      0.0000
     38  CMD       16.1080   21.7370   35.4880 C.3   185  HEM185      0.0000
     39  CAD       14.1690   24.2320   34.5300 C.3   185  HEM185      0.0000
     40  CBD       14.0140   24.1720   33.0140 C.3   185  HEM185      0.0000
     41  CGD       14.3380   25.5160   32.4190 C.2   185  HEM185      0.0000
     42  O1D       13.3880   26.2570   32.0580 O.co2 185  HEM185      0.0000
     43  O2D       15.5490   25.8450   32.3100 O.co2 185  HEM185      0.0000
@<TRIPOS>BOND
     1    42    41   ar
     2    43    41   ar
     3    41    40    1
     4    40    39    1
     5    15    14   ar
     6    12     8    1
     7    12    13    1
     8    39    36    1
     9     8     9   ar
    10     8     7   ar
    11    11     9    1
    12    14    13    1
    13    14    16   ar
    14    36    37    1
    15    36    35    2
    16     2     7    2
    17     2    37    1
    18     9    10   ar
    19     7     6   ar
    20    37    33    2
    21    38    35    1
    22    35    34    1
    23    10     6   ar
    24    10     3    2
    25     6     1    1
    26    33    34    1
    27    33     1    1
    28    34     5    2
    29     3    18    1
    30     1    17    1
    31     1    25    1
    32     5    29    1
    33    18    17    2
    34    18    19    1
    35    17    21    1
    36    22    19    1
    37    29    25   ar
    38    29    28   ar
    39    19    20    2
    40    25    26   ar
    41    28    31    1
    42    28    27   ar
    43    21    20    1
    44    21     4    2
    45    31    32    2
    46    20    23    1
    47    26     4    1
    48    26    27   ar
    49    27    30    1
    50    23    24    2
