@<TRIPOS>MOLECULE
1sxy_HEM_A_1.pdb
 43 50 0 0 0
SMALL
GASTEIGER

@<TRIPOS>ATOM
      1 FE         10.9460   20.2100   36.4450 Fe    185  HEM185      0.0000
      2  CHA       11.4220   23.2150   34.9090 C.2   185  HEM185      0.0000
      3  CHB        7.6120   20.5350   36.0090 C.2   185  HEM185      0.0000
      4  CHC       10.4620   17.5230   38.4470 C.2   185  HEM185      0.0000
      5  CHD       14.2860   19.6110   36.4610 C.2   185  HEM185      0.0000
      6  NA         9.7580   21.5780   35.6000 N.ar  185  HEM185      0.0000
      7  C1A       10.1420   22.7990   35.0960 C.ar  185  HEM185      0.0000
      8  C2A        8.9870   23.5870   34.7720 C.ar  185  HEM185      0.0000
      9  C3A        7.9150   22.8550   35.0650 C.ar  185  HEM185      0.0000
     10  C4A        8.3860   21.5860   35.5770 C.ar  185  HEM185      0.0000
     11  CMA        6.4500   23.2290   34.8590 C.3   185  HEM185      0.0000
     12  CAA        9.0070   24.9990   34.2120 C.3   185  HEM185      0.0000
     13  CBA        8.7040   26.0040   35.3300 C.3   185  HEM185      0.0000
     14  CGA        8.7200   27.4340   34.8650 C.2   185  HEM185      0.0000
     15  O1A        9.4380   27.8200   33.9120 O.co2 185  HEM185      0.0000
     16  O2A        7.9370   28.2180   35.4110 O.co2 185  HEM185      0.0000
     17  NB         9.3550   19.1840   37.0750 N.2   185  HEM185      0.0000
     18  C1B        8.0310   19.4570   36.7670 C.2   185  HEM185      0.0000
     19  C2B        7.1670   18.4650   37.3720 C.2   185  HEM185      0.0000
     20  C3B        7.9620   17.6550   38.0650 C.2   185  HEM185      0.0000
     21  C4B        9.3270   18.0890   37.9140 C.2   185  HEM185      0.0000
     22  CMB        5.6440   18.4400   37.2240 C.3   185  HEM185      0.0000
     23  CAB        7.5600   16.4420   38.9080 C.2   185  HEM185      0.0000
     24  CBB        6.4930   16.4220   39.6860 C.2   185  HEM185      0.0000
     25  NC        12.1430   18.8450   37.2770 N.ar  185  HEM185      0.0000
     26  C1C       11.7590   17.7980   38.0940 C.ar  185  HEM185      0.0000
     27  C2C       12.9110   17.0540   38.4870 C.ar  185  HEM185      0.0000
     28  C3C       13.9480   17.6310   37.9070 C.ar  185  HEM185      0.0000
     29  C4C       13.4890   18.7600   37.1450 C.ar  185  HEM185      0.0000
     30  CMC       12.8360   15.8510   39.4210 C.3   185  HEM185      0.0000
     31  CAC       15.3870   17.1520   37.9950 C.2   185  HEM185      0.0000
     32  CBC       16.4510   17.9160   37.8790 C.2   185  HEM185      0.0000
     33  ND        12.5480   21.2000   35.7520 N.2   185  HEM185      0.0000
     34  C1D       13.8680   20.7930   35.8790 C.2   185  HEM185      0.0000
     35  C2D       14.7470   21.7530   35.2790 C.2   185  HEM185      0.0000
     36  C3D       13.8720   22.8560   34.8480 C.2   185  HEM185      0.0000
     37  C4D       12.5440   22.4590   35.1700 C.2   185  HEM185      0.0000
     38  CMD       16.2620   21.6850   35.1820 C.3   185  HEM185      0.0000
     39  CAD       14.2960   24.1210   34.1150 C.3   185  HEM185      0.0000
     40  CBD       14.0210   23.9820   32.6230 C.3   185  HEM185      0.0000
     41  CGD       14.4540   25.1980   31.8470 C.2   185  HEM185      0.0000
     42  O1D       15.5320   25.1290   31.1900 O.co2 185  HEM185      0.0000
     43  O2D       13.7230   26.2230   31.8470 O.co2 185  HEM185      0.0000
@<TRIPOS>BOND
     1    42    41   ar
     2    43    41   ar
     3    41    40    1
     4    40    39    1
     5    15    14   ar
     6    39    36    1
     7    12     8    1
     8    12    13    1
     9     8     9   ar
    10     8     7   ar
    11    36    37    1
    12    36    35    2
    13    11     9    1
    14    14    13    1
    15    14    16   ar
    16     2     7    2
    17     2    37    1
    18     9    10   ar
    19     7     6   ar
    20    37    33    2
    21    38    35    1
    22    35    34    1
    23    10     6   ar
    24    10     3    2
    25     6     1    1
    26    33    34    1
    27    33     1    1
    28    34     5    2
    29     3    18    1
    30     1    17    1
    31     1    25    1
    32     5    29    1
    33    18    17    2
    34    18    19    1
    35    17    21    1
    36    29    25   ar
    37    29    28   ar
    38    22    19    1
    39    25    26   ar
    40    19    20    2
    41    32    31    2
    42    28    31    1
    43    28    27   ar
    44    21    20    1
    45    21     4    2
    46    20    23    1
    47    26     4    1
    48    26    27   ar
    49    27    30    1
    50    23    24    2
