@<TRIPOS>MOLECULE
1sy0_HEM_A_1.pdb
 43 50 0 0 0
SMALL
GASTEIGER

@<TRIPOS>ATOM
      1  CHA       11.9790   23.3450   34.9580 C.2   185  HEM185      0.0000
      2  CHB        8.1120   20.7100   36.0350 C.2   185  HEM185      0.0000
      3  CHC       10.9000   17.6800   38.5200 C.2   185  HEM185      0.0000
      4  CHD       14.7940   19.7580   36.5560 C.2   185  HEM185      0.0000
      5  C1A       10.6690   22.9650   35.1280 C.ar  185  HEM185      0.0000
      6  C2A        9.5280   23.7500   34.8050 C.ar  185  HEM185      0.0000
      7  C3A        8.4530   23.0140   35.1020 C.ar  185  HEM185      0.0000
      8  C4A        8.8980   21.7470   35.6180 C.ar  185  HEM185      0.0000
      9  CMA        6.9970   23.4140   34.9470 C.3   185  HEM185      0.0000
     10  CAA        9.5300   25.1660   34.2420 C.3   185  HEM185      0.0000
     11  CBA        9.1790   26.1800   35.3370 C.3   185  HEM185      0.0000
     12  CGA        9.2140   27.6080   34.8870 C.2   185  HEM185      0.0000
     13  O1A        9.9120   27.9770   33.9280 O.co2 185  HEM185      0.0000
     14  O2A        8.4750   28.4200   35.4420 O.co2 185  HEM185      0.0000
     15  C1B        8.5260   19.6270   36.7820 C.2   185  HEM185      0.0000
     16  C2B        7.6690   18.6380   37.3700 C.2   185  HEM185      0.0000
     17  C3B        8.4360   17.8350   38.1100 C.2   185  HEM185      0.0000
     18  C4B        9.8000   18.2580   37.9520 C.2   185  HEM185      0.0000
     19  CMB        6.1590   18.6390   37.1930 C.3   185  HEM185      0.0000
     20  CAB        7.9670   16.6460   38.9730 C.2   185  HEM185      0.0000
     21  CBB        8.1920   16.6700   40.2840 C.2   185  HEM185      0.0000
     22  C1C       12.2060   17.9740   38.1740 C.ar  185  HEM185      0.0000
     23  C2C       13.3420   17.2150   38.5680 C.ar  185  HEM185      0.0000
     24  C3C       14.4330   17.7680   38.0260 C.ar  185  HEM185      0.0000
     25  C4C       13.9950   18.9050   37.2440 C.ar  185  HEM185      0.0000
     26  CMC       13.2510   16.0250   39.5250 C.3   185  HEM185      0.0000
     27  CAC       15.8620   17.2050   38.2480 C.2   185  HEM185      0.0000
     28  CBC       16.9620   17.6890   37.6980 C.2   185  HEM185      0.0000
     29  C1D       14.3800   20.9110   35.9610 C.2   185  HEM185      0.0000
     30  C2D       15.2610   21.8350   35.3300 C.2   185  HEM185      0.0000
     31  C3D       14.4050   22.9370   34.8550 C.2   185  HEM185      0.0000
     32  C4D       13.0770   22.5730   35.2260 C.2   185  HEM185      0.0000
     33  CMD       16.7740   21.7620   35.1880 C.3   185  HEM185      0.0000
     34  CAD       14.8530   24.1690   34.0890 C.3   185  HEM185      0.0000
     35  CBD       14.4520   24.0200   32.6300 C.3   185  HEM185      0.0000
     36  CGD       14.9260   25.1660   31.8000 C.2   185  HEM185      0.0000
     37  O1D       15.8040   24.9310   30.9220 O.co2 185  HEM185      0.0000
     38  O2D       14.4220   26.3020   32.0040 O.co2 185  HEM185      0.0000
     39  NA        10.2570   21.7510   35.6380 N.ar  185  HEM185      0.0000
     40  NB         9.8310   19.3510   37.1080 N.2   185  HEM185      0.0000
     41  NC        12.6220   18.9990   37.3530 N.ar  185  HEM185      0.0000
     42  ND        13.0780   21.3530   35.8700 N.2   185  HEM185      0.0000
     43 FE         11.4500   20.3740   36.5140 Fe    185  HEM185      0.0000
@<TRIPOS>BOND
     1    37    36   ar
     2    36    38   ar
     3    36    35    1
     4    35    34    1
     5    13    12   ar
     6    34    31    1
     7    10     6    1
     8    10    11    1
     9     6     7   ar
    10     6     5   ar
    11    31    32    1
    12    31    30    2
    13    12    11    1
    14    12    14   ar
    15     9     7    1
    16     1     5    2
    17     1    32    1
    18     7     8   ar
    19     5    39   ar
    20    33    30    1
    21    32    42    2
    22    30    29    1
    23     8    39   ar
    24     8     2    2
    25    39    43    1
    26    42    29    1
    27    42    43    1
    28    29     4    2
    29     2    15    1
    30    43    40    1
    31    43    41    1
    32     4    25    1
    33    15    40    2
    34    15    16    1
    35    40    18    1
    36    19    16    1
    37    25    41   ar
    38    25    24   ar
    39    41    22   ar
    40    16    17    2
    41    28    27    2
    42    18    17    1
    43    18     3    2
    44    24    27    1
    45    24    23   ar
    46    17    20    1
    47    22     3    1
    48    22    23   ar
    49    23    26    1
    50    20    21    2
