@<TRIPOS>MOLECULE
1sy1_HEM_A_1.pdb
 43 50 0 0 0
SMALL
GASTEIGER

@<TRIPOS>ATOM
      1 FE         10.6040   20.2990   36.5530 Fe    185  HEM185      0.0000
      2  CHA       11.1950   23.3160   35.1480 C.2   185  HEM185      0.0000
      3  CHB        7.2690   20.7350   36.1740 C.2   185  HEM185      0.0000
      4  CHC       10.0620   17.7310   38.7070 C.2   185  HEM185      0.0000
      5  CHD       13.9230   19.5920   36.5390 C.2   185  HEM185      0.0000
      6  NA         9.4590   21.7580   35.8170 N.ar  185  HEM185      0.0000
      7  C1A        9.8910   22.9640   35.3310 C.ar  185  HEM185      0.0000
      8  C2A        8.7410   23.7680   34.9800 C.ar  185  HEM185      0.0000
      9  C3A        7.6530   23.0410   35.2300 C.ar  185  HEM185      0.0000
     10  C4A        8.0890   21.7690   35.7610 C.ar  185  HEM185      0.0000
     11  CMA        6.1970   23.4590   35.0760 C.3   185  HEM185      0.0000
     12  CAA        8.7810   25.1820   34.3940 C.3   185  HEM185      0.0000
     13  CBA        8.6490   26.2060   35.5030 C.3   185  HEM185      0.0000
     14  CGA        8.5990   27.6330   35.0130 C.2   185  HEM185      0.0000
     15  O1A        9.3750   28.0060   34.1060 O.co2 185  HEM185      0.0000
     16  O2A        7.7550   28.3980   35.5360 O.co2 185  HEM185      0.0000
     17  NB         8.9790   19.3960   37.2940 N.2   185  HEM185      0.0000
     18  C1B        7.6710   19.6670   36.9430 C.2   185  HEM185      0.0000
     19  C2B        6.7980   18.7230   37.6040 C.2   185  HEM185      0.0000
     20  C3B        7.5650   17.9620   38.3710 C.2   185  HEM185      0.0000
     21  C4B        8.9400   18.3380   38.1760 C.2   185  HEM185      0.0000
     22  CMB        5.2910   18.7290   37.4340 C.3   185  HEM185      0.0000
     23  CAB        7.1220   16.8210   39.2590 C.2   185  HEM185      0.0000
     24  CBB        7.5100   16.7570   40.5250 C.2   185  HEM185      0.0000
     25  NC        11.7810   18.9330   37.4620 N.ar  185  HEM185      0.0000
     26  C1C       11.3660   17.9380   38.2980 C.ar  185  HEM185      0.0000
     27  C2C       12.4810   17.1320   38.6710 C.ar  185  HEM185      0.0000
     28  C3C       13.5470   17.6210   38.0450 C.ar  185  HEM185      0.0000
     29  C4C       13.1210   18.7640   37.2850 C.ar  185  HEM185      0.0000
     30  CMC       12.3820   15.9220   39.6030 C.3   185  HEM185      0.0000
     31  CAC       14.9610   17.0660   38.0830 C.2   185  HEM185      0.0000
     32  CBC       16.0640   17.7860   37.9810 C.2   185  HEM185      0.0000
     33  ND        12.2320   21.2690   35.9420 N.2   185  HEM185      0.0000
     34  C1D       13.5390   20.7880   35.9950 C.2   185  HEM185      0.0000
     35  C2D       14.4480   21.7290   35.4150 C.2   185  HEM185      0.0000
     36  C3D       13.6110   22.8610   35.0060 C.2   185  HEM185      0.0000
     37  C4D       12.2750   22.5110   35.3660 C.2   185  HEM185      0.0000
     38  CMD       15.9490   21.5880   35.2580 C.3   185  HEM185      0.0000
     39  CAD       14.0460   24.1360   34.3010 C.3   185  HEM185      0.0000
     40  CBD       13.7270   23.9770   32.7880 C.3   185  HEM185      0.0000
     41  CGD       14.0570   25.1540   31.9150 C.2   185  HEM185      0.0000
     42  O1D       14.8430   26.0130   32.3590 O.co2 185  HEM185      0.0000
     43  O2D       13.5350   25.2330   30.7620 O.co2 185  HEM185      0.0000
@<TRIPOS>BOND
     1    43    41   ar
     2    41    42   ar
     3    41    40    1
     4    40    39    1
     5    15    14   ar
     6    39    36    1
     7    12     8    1
     8    12    13    1
     9     8     9   ar
    10     8     7   ar
    11    36    37    1
    12    36    35    2
    13    14    13    1
    14    14    16   ar
    15    11     9    1
    16     2     7    2
    17     2    37    1
    18     9    10   ar
    19    38    35    1
    20     7     6   ar
    21    37    33    2
    22    35    34    1
    23    10     6   ar
    24    10     3    2
    25     6     1    1
    26    33    34    1
    27    33     1    1
    28    34     5    2
    29     3    18    1
    30     5    29    1
    31     1    17    1
    32     1    25    1
    33    18    17    2
    34    18    19    1
    35    29    25   ar
    36    29    28   ar
    37    17    21    1
    38    22    19    1
    39    25    26   ar
    40    19    20    2
    41    32    31    2
    42    28    31    1
    43    28    27   ar
    44    21    20    1
    45    21     4    2
    46    26    27   ar
    47    26     4    1
    48    20    23    1
    49    27    30    1
    50    23    24    2
