@<TRIPOS>MOLECULE
1sy2_HEM_A_1.pdb
 43 50 0 0 0
SMALL
GASTEIGER

@<TRIPOS>ATOM
      1 FE         11.1190   20.2070   36.4350 Fe    185  HEM185      0.0000
      2  CHA       11.5900   23.2490   34.9240 C.2   185  HEM185      0.0000
      3  CHB        7.7780   20.5410   36.0050 C.2   185  HEM185      0.0000
      4  CHC       10.6390   17.4700   38.3690 C.2   185  HEM185      0.0000
      5  CHD       14.4610   19.6800   36.4260 C.2   185  HEM185      0.0000
      6  NA         9.9260   21.5920   35.6030 N.ar  185  HEM185      0.0000
      7  C1A       10.3150   22.8240   35.1060 C.ar  185  HEM185      0.0000
      8  C2A        9.1620   23.5990   34.7730 C.ar  185  HEM185      0.0000
      9  C3A        8.1100   22.8570   35.0730 C.ar  185  HEM185      0.0000
     10  C4A        8.5610   21.5800   35.5790 C.ar  185  HEM185      0.0000
     11  CMA        6.6380   23.2440   34.9060 C.3   185  HEM185      0.0000
     12  CAA        9.1760   25.0160   34.1960 C.3   185  HEM185      0.0000
     13  CBA        8.9650   26.0300   35.3040 C.3   185  HEM185      0.0000
     14  CGA        8.9410   27.4500   34.8290 C.2   185  HEM185      0.0000
     15  O1A        9.6860   27.8320   33.8980 O.co2 185  HEM185      0.0000
     16  O2A        8.1320   28.2160   35.3400 O.co2 185  HEM185      0.0000
     17  NB         9.5150   19.1880   37.0440 N.2   185  HEM185      0.0000
     18  C1B        8.1990   19.4500   36.7350 C.2   185  HEM185      0.0000
     19  C2B        7.3590   18.4410   37.3300 C.2   185  HEM185      0.0000
     20  C3B        8.1650   17.6060   38.0130 C.2   185  HEM185      0.0000
     21  C4B        9.5200   18.0600   37.8330 C.2   185  HEM185      0.0000
     22  CMB        5.8340   18.4050   37.1770 C.3   185  HEM185      0.0000
     23  CAB        7.7860   16.3710   38.8150 C.2   185  HEM185      0.0000
     24  CBB        6.6930   16.3160   39.5600 C.2   185  HEM185      0.0000
     25  NC        12.3150   18.8470   37.2460 N.ar  185  HEM185      0.0000
     26  C1C       11.9300   17.7850   38.0300 C.ar  185  HEM185      0.0000
     27  C2C       13.0890   17.0450   38.4050 C.ar  185  HEM185      0.0000
     28  C3C       14.1470   17.6480   37.8550 C.ar  185  HEM185      0.0000
     29  C4C       13.6740   18.7940   37.1110 C.ar  185  HEM185      0.0000
     30  CMC       13.0580   15.7840   39.2830 C.3   185  HEM185      0.0000
     31  CAC       15.6070   17.1830   37.9370 C.2   185  HEM185      0.0000
     32  CBC       16.6550   17.9600   37.6720 C.2   185  HEM185      0.0000
     33  ND        12.7220   21.2500   35.7750 N.2   185  HEM185      0.0000
     34  C1D       14.0410   20.8610   35.8920 C.2   185  HEM185      0.0000
     35  C2D       14.9130   21.8530   35.3410 C.2   185  HEM185      0.0000
     36  C3D       14.0150   22.9500   34.8800 C.2   185  HEM185      0.0000
     37  C4D       12.6970   22.4980   35.1930 C.2   185  HEM185      0.0000
     38  CMD       16.4360   21.8030   35.2460 C.3   185  HEM185      0.0000
     39  CAD       14.4130   24.2630   34.2110 C.3   185  HEM185      0.0000
     40  CBD       14.1720   24.1150   32.7090 C.3   185  HEM185      0.0000
     41  CGD       14.7160   25.3150   31.9840 C.2   185  HEM185      0.0000
     42  O1D       15.8240   25.2110   31.3970 O.co2 185  HEM185      0.0000
     43  O2D       14.0380   26.3700   31.9790 O.co2 185  HEM185      0.0000
@<TRIPOS>BOND
     1    42    41   ar
     2    43    41   ar
     3    41    40    1
     4    40    39    1
     5    15    14   ar
     6    12     8    1
     7    12    13    1
     8    39    36    1
     9     8     9   ar
    10     8     7   ar
    11    14    13    1
    12    14    16   ar
    13    36    37    1
    14    36    35    2
    15    11     9    1
    16     2     7    2
    17     2    37    1
    18     9    10   ar
    19     7     6   ar
    20    37    33    2
    21    38    35    1
    22    35    34    1
    23    10     6   ar
    24    10     3    2
    25     6     1    1
    26    33    34    1
    27    33     1    1
    28    34     5    2
    29     3    18    1
    30     5    29    1
    31     1    17    1
    32     1    25    1
    33    18    17    2
    34    18    19    1
    35    17    21    1
    36    29    25   ar
    37    29    28   ar
    38    22    19    1
    39    25    26   ar
    40    19    20    2
    41    32    31    2
    42    21    20    1
    43    21     4    2
    44    28    31    1
    45    28    27   ar
    46    20    23    1
    47    26     4    1
    48    26    27   ar
    49    27    30    1
    50    23    24    2
