@<TRIPOS>MOLECULE
1sy3_HEM_A_1.pdb
 43 50 0 0 0
SMALL
GASTEIGER

@<TRIPOS>ATOM
      1 FE         10.7550   20.1300   36.5440 Fe    185  HEM185      0.0000
      2  CHA       11.2800   23.1630   35.1130 C.2   185  HEM185      0.0000
      3  CHB        7.4220   20.5060   36.1390 C.2   185  HEM185      0.0000
      4  CHC       10.2530   17.4860   38.6070 C.2   185  HEM185      0.0000
      5  CHD       14.0910   19.5460   36.5690 C.2   185  HEM185      0.0000
      6  NA         9.5760   21.5470   35.7770 N.ar  185  HEM185      0.0000
      7  C1A        9.9850   22.7680   35.2900 C.ar  185  HEM185      0.0000
      8  C2A        8.8240   23.5630   34.9560 C.ar  185  HEM185      0.0000
      9  C3A        7.7490   22.8310   35.2290 C.ar  185  HEM185      0.0000
     10  C4A        8.2050   21.5620   35.7380 C.ar  185  HEM185      0.0000
     11  CMA        6.3010   23.2270   35.0440 C.3   185  HEM185      0.0000
     12  CAA        8.8530   24.9810   34.3880 C.3   185  HEM185      0.0000
     13  CBA        8.6110   25.9990   35.4890 C.3   185  HEM185      0.0000
     14  CGA        8.6070   27.4310   35.0240 C.2   185  HEM185      0.0000
     15  O1A        9.3540   27.8160   34.0870 O.co2 185  HEM185      0.0000
     16  O2A        7.7990   28.2100   35.5560 O.co2 185  HEM185      0.0000
     17  NB         9.1410   19.1590   37.2180 N.2   185  HEM185      0.0000
     18  C1B        7.8330   19.4260   36.8810 C.2   185  HEM185      0.0000
     19  C2B        6.9730   18.4370   37.4860 C.2   185  HEM185      0.0000
     20  C3B        7.7550   17.6310   38.2070 C.2   185  HEM185      0.0000
     21  C4B        9.1240   18.0580   38.0540 C.2   185  HEM185      0.0000
     22  CMB        5.4580   18.4050   37.3080 C.3   185  HEM185      0.0000
     23  CAB        7.3430   16.4380   39.0350 C.2   185  HEM185      0.0000
     24  CBB        7.6440   16.3750   40.3320 C.2   185  HEM185      0.0000
     25  NC        11.9690   18.7960   37.4330 N.ar  185  HEM185      0.0000
     26  C1C       11.5610   17.7510   38.2470 C.ar  185  HEM185      0.0000
     27  C2C       12.7070   16.9940   38.6440 C.ar  185  HEM185      0.0000
     28  C3C       13.7610   17.5500   38.0450 C.ar  185  HEM185      0.0000
     29  C4C       13.3190   18.6870   37.2860 C.ar  185  HEM185      0.0000
     30  CMC       12.6320   15.7720   39.5570 C.3   185  HEM185      0.0000
     31  CAC       15.1990   17.0590   38.1090 C.2   185  HEM185      0.0000
     32  CBC       16.2630   17.8420   38.0500 C.2   185  HEM185      0.0000
     33  ND        12.3680   21.1410   35.9200 N.2   185  HEM185      0.0000
     34  C1D       13.6870   20.7280   36.0150 C.2   185  HEM185      0.0000
     35  C2D       14.5680   21.6990   35.4550 C.2   185  HEM185      0.0000
     36  C3D       13.7200   22.8080   35.0240 C.2   185  HEM185      0.0000
     37  C4D       12.3850   22.3880   35.3530 C.2   185  HEM185      0.0000
     38  CMD       16.0860   21.6250   35.3480 C.3   185  HEM185      0.0000
     39  CAD       14.1530   24.0970   34.3410 C.3   185  HEM185      0.0000
     40  CBD       13.9230   23.9440   32.8410 C.3   185  HEM185      0.0000
     41  CGD       14.3600   25.1750   32.1050 C.2   185  HEM185      0.0000
     42  O1D       13.6090   26.1850   32.0980 O.co2 185  HEM185      0.0000
     43  O2D       15.4600   25.1440   31.4970 O.co2 185  HEM185      0.0000
@<TRIPOS>BOND
     1    43    41   ar
     2    42    41   ar
     3    41    40    1
     4    40    39    1
     5    15    14   ar
     6    39    36    1
     7    12     8    1
     8    12    13    1
     9     8     9   ar
    10     8     7   ar
    11    36    37    1
    12    36    35    2
    13    14    13    1
    14    14    16   ar
    15    11     9    1
    16     2     7    2
    17     2    37    1
    18     9    10   ar
    19     7     6   ar
    20    38    35    1
    21    37    33    2
    22    35    34    1
    23    10     6   ar
    24    10     3    2
    25     6     1    1
    26    33    34    1
    27    33     1    1
    28    34     5    2
    29     3    18    1
    30     1    17    1
    31     1    25    1
    32     5    29    1
    33    18    17    2
    34    18    19    1
    35    17    21    1
    36    29    25   ar
    37    29    28   ar
    38    22    19    1
    39    25    26   ar
    40    19    20    2
    41    28    31    1
    42    28    27   ar
    43    32    31    2
    44    21    20    1
    45    21     4    2
    46    20    23    1
    47    26     4    1
    48    26    27   ar
    49    27    30    1
    50    23    24    2
