@<TRIPOS>MOLECULE
1sy7_HDD_A_1.pdb
 44 52 0 0 0
SMALL
GASTEIGER

@<TRIPOS>ATOM
      1 FE        -17.2430  -15.1900   -2.4940 Fe    1880  HDD1880     0.0000
      2  CHA      -14.1270  -14.8080   -4.0600 C.2   1880  HDD1880     0.0000
      3  CHB      -17.9070  -17.8040   -4.7970 C.2   1880  HDD1880     0.0000
      4  CHC      -20.2350  -15.9300   -0.8600 C.2   1880  HDD1880     0.0000
      5  CHD      -16.5710  -12.6310   -0.3850 C.2   1880  HDD1880     0.0000
      6  NA       -16.2410  -16.1010   -4.0470 N.ar  1880  HDD1880     0.0000
      7  C1A      -14.9250  -15.8010   -4.5160 C.ar  1880  HDD1880     0.0000
      8  C2A      -14.6380  -16.7050   -5.6660 C.ar  1880  HDD1880     0.0000
      9  C3A      -15.6820  -17.5210   -5.8830 C.ar  1880  HDD1880     0.0000
     10  C4A      -16.7130  -17.1260   -4.8760 C.ar  1880  HDD1880     0.0000
     11  CMA      -15.8620  -18.6270   -6.9350 C.3   1880  HDD1880     0.0000
     12  CAA      -13.2990  -16.6520   -6.4330 C.3   1880  HDD1880     0.0000
     13  CBA      -13.2340  -15.7850   -7.6640 C.3   1880  HDD1880     0.0000
     14  CGA      -11.7740  -15.9570   -8.1760 C.2   1880  HDD1880     0.0000
     15  O1A      -11.0670  -14.9890   -7.9590 O.co2 1880  HDD1880     0.0000
     16  O2A      -11.5680  -17.0300   -8.7270 O.co2 1880  HDD1880     0.0000
     17  NB       -18.7530  -16.6170   -2.8270 N.2   1880  HDD1880     0.0000
     18  C1B      -18.8900  -17.5070   -3.8300 C.2   1880  HDD1880     0.0000
     19  C2B      -20.1820  -18.2340   -3.7380 C.2   1880  HDD1880     0.0000
     20  C3B      -20.7680  -17.6990   -2.6110 C.2   1880  HDD1880     0.0000
     21  C4B      -19.8930  -16.6800   -2.0050 C.2   1880  HDD1880     0.0000
     22  CMB      -20.7160  -19.3260   -4.6890 C.3   1880  HDD1880     0.0000
     23  CAB      -22.1420  -18.0200   -1.9780 C.3   1880  HDD1880     0.0000
     24  CBB      -23.3970  -17.7550   -2.6240 C.3   1880  HDD1880     0.0000
     25  NC       -18.1680  -14.5380   -0.8540 N.ar  1880  HDD1880     0.0000
     26  C1C      -19.4150  -14.9130   -0.3890 C.ar  1880  HDD1880     0.0000
     27  C2C      -19.8860  -13.9130    0.5910 C.ar  1880  HDD1880     0.0000
     28  C3C      -18.8490  -13.0010    0.7260 C.ar  1880  HDD1880     0.0000
     29  C4C      -17.7420  -13.3940   -0.1910 C.ar  1880  HDD1880     0.0000
     30  CMC      -21.2340  -13.9510    1.4070 C.3   1880  HDD1880     0.0000
     31  CAC      -18.6910  -11.7910    1.5530 C.2   1880  HDD1880     0.0000
     32  CBC      -19.5790  -10.8960    1.5550 C.2   1880  HDD1880     0.0000
     33  ND       -15.5130  -13.9930   -2.2710 N.2   1880  HDD1880     0.0000
     34  C1D      -15.5890  -12.9810   -1.3020 C.2   1880  HDD1880     0.0000
     35  C2D      -14.3780  -12.1400   -1.3910 C.2   1880  HDD1880     0.0000
     36  C3D      -13.5340  -12.7520   -2.5030 C.2   1880  HDD1880     0.0000
     37  C4D      -14.3250  -13.8870   -2.9990 C.2   1880  HDD1880     0.0000
     38  CMD      -13.7220  -12.0160    0.0470 C.3   1880  HDD1880     0.0000
     39  CAD      -12.0590  -13.2890   -2.3120 C.3   1880  HDD1880     0.0000
     40  CBD      -11.1390  -12.1850   -2.8390 C.3   1880  HDD1880     0.0000
     41  CGD      -11.8510  -11.7570   -4.0640 C.2   1880  HDD1880     0.0000
     42  O1D      -13.0840  -12.0440   -3.8480 O.3   1880  HDD1880     0.0000
     43  O2D      -11.4620  -11.2470   -5.0620 O.2   1880  HDD1880     0.0000
     44  OND      -14.6200  -10.7040   -1.8340 O.2   1880  HDD1880     0.0000
@<TRIPOS>BOND
     1    16    14   ar
     2    14    15   ar
     3    14    13    1
     4    13    12    1
     5    11     9    1
     6    12     8    1
     7     9     8   ar
     8     9    10   ar
     9     8     7   ar
    10    43    41    2
    11    10     3    2
    12    10     6   ar
    13     3    18    1
    14    22    19    1
    15     7     2    2
    16     7     6   ar
    17    41    42    1
    18    41    40    1
    19     2    37    1
    20     6     1    1
    21    42    36    1
    22    18    19    1
    23    18    17    2
    24    19    20    2
    25    37    36    1
    26    37    33    2
    27    40    39    1
    28    17     1    1
    29    17    21    1
    30    24    23    1
    31    20    21    1
    32    20    23    1
    33    36    39    1
    34    36    35    2
    35     1    33    1
    36     1    25    1
    37    33    34    1
    38    21     4    2
    39    44    35    1
    40    35    34    1
    41    35    38    1
    42    34     5    2
    43     4    26    1
    44    25    26   ar
    45    25    29   ar
    46    26    27   ar
    47     5    29    1
    48    29    28   ar
    49    27    28   ar
    50    27    30    1
    51    28    31    1
    52    31    32    2
