@<TRIPOS>MOLECULE
1sy7_HEM_A_1.pdb
 43 50 0 0 0
SMALL
GASTEIGER

@<TRIPOS>ATOM
      1  CHA      -13.9830  -14.7140   -4.0220 C.2   1883  HEM1883     0.0000
      2  CHB      -17.8280  -17.7580   -4.6920 C.2   1883  HEM1883     0.0000
      3  CHC      -20.2960  -15.6390   -0.8420 C.2   1883  HEM1883     0.0000
      4  CHD      -16.3790  -12.5110   -0.2250 C.2   1883  HEM1883     0.0000
      5  C1A      -14.7750  -15.7570   -4.4670 C.ar  1883  HEM1883     0.0000
      6  C2A      -14.5030  -16.6760   -5.6150 C.ar  1883  HEM1883     0.0000
      7  C3A      -15.5660  -17.4930   -5.8230 C.ar  1883  HEM1883     0.0000
      8  C4A      -16.5770  -17.1160   -4.7800 C.ar  1883  HEM1883     0.0000
      9  CMA      -15.7690  -18.5980   -6.8700 C.3   1883  HEM1883     0.0000
     10  CAA      -13.1820  -16.6170   -6.4090 C.3   1883  HEM1883     0.0000
     11  CBA      -13.1410  -15.7250   -7.6230 C.3   1883  HEM1883     0.0000
     12  CGA      -11.6970  -15.8880   -8.1830 C.2   1883  HEM1883     0.0000
     13  O1A      -11.5200  -16.9310   -8.7900 O.co2 1883  HEM1883     0.0000
     14  O2A      -10.9660  -14.9370   -7.9410 O.co2 1883  HEM1883     0.0000
     15  C1B      -18.8490  -17.4440   -3.7080 C.2   1883  HEM1883     0.0000
     16  C2B      -20.1780  -18.1270   -3.6370 C.2   1883  HEM1883     0.0000
     17  C3B      -20.8010  -17.5140   -2.5560 C.2   1883  HEM1883     0.0000
     18  C4B      -19.9300  -16.4710   -1.9650 C.2   1883  HEM1883     0.0000
     19  CMB      -20.7000  -19.2480   -4.5530 C.3   1883  HEM1883     0.0000
     20  CAB      -22.2000  -17.7610   -1.9530 C.3   1883  HEM1883     0.0000
     21  CBB      -23.4220  -17.5960   -2.6910 C.3   1883  HEM1883     0.0000
     22  C1C      -19.4430  -14.6260   -0.3230 C.ar  1883  HEM1883     0.0000
     23  C2C      -19.7660  -13.7770    0.8570 C.ar  1883  HEM1883     0.0000
     24  C3C      -18.7260  -12.7990    0.9110 C.ar  1883  HEM1883     0.0000
     25  C4C      -17.6620  -13.1860   -0.0830 C.ar  1883  HEM1883     0.0000
     26  CMC      -21.1380  -13.7690    1.6350 C.3   1883  HEM1883     0.0000
     27  CAC      -18.2860  -11.8910    2.0320 C.3   1883  HEM1883     0.0000
     28  CBC      -19.2600  -11.3000    2.6780 C.3   1883  HEM1883     0.0000
     29  C1D      -15.2890  -12.9850   -1.0450 C.2   1883  HEM1883     0.0000
     30  C2D      -14.2440  -11.8690   -1.4400 C.2   1883  HEM1883     0.0000
     31  C3D      -13.4720  -12.4440   -2.5930 C.2   1883  HEM1883     0.0000
     32  C4D      -14.0080  -13.9030   -2.7840 C.2   1883  HEM1883     0.0000
     33  CMD      -13.5970  -11.0490   -0.1870 C.3   1883  HEM1883     0.0000
     34  CAD      -12.0770  -12.5000   -2.9160 C.3   1883  HEM1883     0.0000
     35  CBD      -12.2100  -11.6650   -4.3230 C.3   1883  HEM1883     0.0000
     36  CGD      -10.7300  -11.3710   -4.5370 C.2   1883  HEM1883     0.0000
     37  O1D      -10.5700  -10.7720   -5.6110 O.co2 1883  HEM1883     0.0000
     38  O2D       -9.8400  -11.6800   -3.7540 O.co2 1883  HEM1883     0.0000
     39  NA       -16.0800  -16.0780   -3.9840 N.ar  1883  HEM1883     0.0000
     40  NB       -18.7470  -16.4960   -2.7380 N.2   1883  HEM1883     0.0000
     41  NC       -18.1820  -14.2680   -0.7680 N.ar  1883  HEM1883     0.0000
     42  ND       -15.2710  -13.8920   -2.1160 N.2   1883  HEM1883     0.0000
     43 FE        -17.1720  -15.0230   -2.5130 Fe    1883  HEM1883     0.0000
@<TRIPOS>BOND
     1    13    12   ar
     2    12    14   ar
     3    12    11    1
     4    11    10    1
     5     9     7    1
     6    10     6    1
     7     7     6   ar
     8     7     8   ar
     9     6     5   ar
    10    37    36   ar
    11     8     2    2
    12     8    39   ar
    13     2    15    1
    14    19    16    1
    15    36    35    1
    16    36    38   ar
    17     5     1    2
    18     5    39   ar
    19    35    34    1
    20     1    32    1
    21    39    43    1
    22    15    16    1
    23    15    40    2
    24    16    17    2
    25    34    31    1
    26    32    31    1
    27    32    42    2
    28    40    43    1
    29    40    18    1
    30    21    20    1
    31    31    30    2
    32    17    18    1
    33    17    20    1
    34    43    42    1
    35    43    41    1
    36    42    29    1
    37    18     3    2
    38    30    29    1
    39    30    33    1
    40    29     4    2
    41     3    22    1
    42    41    22   ar
    43    41    25   ar
    44    22    23   ar
    45     4    25    1
    46    25    24   ar
    47    23    24   ar
    48    23    26    1
    49    24    27    1
    50    27    28    1
