@<TRIPOS>MOLECULE
1syb_THP_A_1.pdb
 25 26 0 0 0
SMALL
GASTEIGER

@<TRIPOS>ATOM
      1  P2         6.2310   13.8910   20.5680 P.3   180  THP180      0.5327
      2  O4P        6.7380   12.5720   21.0460 O.3   180  THP180     -0.1145
      3  O5P        5.2230   13.8040   19.4140 O.2   180  THP180     -0.2224
      4  O6P        7.4530   14.7050   20.2300 O.3   180  THP180     -0.1145
      5  P1         4.8370   11.6650   26.3840 P.3   180  THP180      0.5326
      6  O1P        6.1120   11.4260   25.6120 O.2   180  THP180     -0.2224
      7  O2P        4.9420   11.3550   27.8470 O.3   180  THP180     -0.1145
      8  O3P        3.7110   10.9070   25.6950 O.3   180  THP180     -0.1145
      9  O5'        5.6300   14.6400   21.7530 O.3   180  THP180     -0.2675
     10  C5'        4.4220   14.2630   22.4970 C.3   180  THP180      0.1857
     11  C4'        4.9020   14.1460   23.9470 C.3   180  THP180      0.1748
     12  O4'        5.2910   15.4880   24.3840 O.3   180  THP180     -0.3340
     13  C3'        3.8050   13.7660   24.9780 C.3   180  THP180      0.1600
     14  O3'        4.4750   13.1460   26.1370 O.3   180  THP180     -0.2700
     15  C2'        3.0840   15.0730   25.3260 C.3   180  THP180      0.0847
     16  C1'        4.3190   16.0560   25.2640 C.3   180  THP180      0.2089
     17  N1         3.8140   17.3630   24.8420 N.am  180  THP180     -0.1794
     18  C2         3.4260   18.2200   25.8150 C.1   180  THP180      0.2844
     19  O2         3.6080   17.9050   27.0010 O.2   180  THP180     -0.1918
     20  N3         2.8480   19.4020   25.4890 N.2   180  THP180     -0.2455
     21  C4         2.6890   19.7260   24.2360 C.1   180  THP180      0.2134
     22  O4         2.1510   20.8490   23.9010 O.2   180  THP180     -0.2088
     23  C5         3.0900   18.8480   23.1730 C.2   180  THP180      0.0891
     24  C5M        2.8950   19.1570   21.7080 C.3   180  THP180      0.0462
     25  C6         3.6320   17.6140   23.5200 C.2   180  THP180      0.0877
@<TRIPOS>BOND
     1     3     1    2
     2     4     1    1
     3     1     2    1
     4     1     9    1
     5    24    23    1
     6     9    10    1
     7    10    11    1
     8    23    25    2
     9    23    21    1
    10    25    17    1
    11    22    21    2
    12    11    12    1
    13    11    13    1
    14    21    20    2
    15    12    16    1
    16    17    16    1
    17    17    18   am
    18    13    15    1
    19    13    14    1
    20    16    15    1
    21    20    18    2
    22     6     5    2
    23     8     5    1
    24    18    19    2
    25    14     5    1
    26     5     7    1
