@<TRIPOS>MOLECULE
1syd_THP_A_1.pdb
 25 26 0 0 0
SMALL
GASTEIGER

@<TRIPOS>ATOM
      1  P2         6.1440   14.3250   20.5170 P.3   180  THP180      0.5327
      2  O4P        6.4940   12.9280   20.9940 O.3   180  THP180     -0.1145
      3  O5P        5.1610   14.3150   19.3470 O.2   180  THP180     -0.2224
      4  O6P        7.4980   14.9710   20.1850 O.3   180  THP180     -0.1145
      5  P1         4.9390   12.1510   26.3310 P.3   180  THP180      0.5326
      6  O1P        6.3090   12.0130   25.6950 O.3   180  THP180     -0.1145
      7  O2P        4.8900   11.8160   27.7990 O.3   180  THP180     -0.1145
      8  O3P        3.8380   11.5240   25.4570 O.2   180  THP180     -0.2224
      9  O5'        5.5810   15.1470   21.6860 O.3   180  THP180     -0.2675
     10  C5'        4.4590   14.6200   22.4980 C.3   180  THP180      0.1857
     11  C4'        4.9570   14.5420   23.9310 C.3   180  THP180      0.1748
     12  O4'        5.3710   15.8830   24.3570 O.3   180  THP180     -0.3340
     13  C3'        3.8670   14.1880   24.9760 C.3   180  THP180      0.1600
     14  O3'        4.6080   13.6770   26.1670 O.3   180  THP180     -0.2700
     15  C2'        3.1220   15.5070   25.2910 C.3   180  THP180      0.0847
     16  C1'        4.3160   16.5120   25.0990 C.3   180  THP180      0.2089
     17  N1         3.7970   17.8070   24.6210 N.am  180  THP180     -0.1794
     18  C2         3.4260   18.6360   25.6510 C.1   180  THP180      0.2844
     19  O2         3.6140   18.3190   26.8300 O.2   180  THP180     -0.1918
     20  N3         2.8480   19.8430   25.3690 N.2   180  THP180     -0.2455
     21  C4         2.6420   20.1830   24.1380 C.1   180  THP180      0.2134
     22  O4         2.0690   21.3010   23.8910 O.2   180  THP180     -0.2088
     23  C5         3.0190   19.3460   23.0330 C.2   180  THP180      0.0891
     24  C5M        2.7760   19.8030   21.6110 C.3   180  THP180      0.0462
     25  C6         3.5860   18.1180   23.3270 C.2   180  THP180      0.0877
@<TRIPOS>BOND
     1     3     1    2
     2     4     1    1
     3     1     2    1
     4     1     9    1
     5    24    23    1
     6     9    10    1
     7    10    11    1
     8    23    25    2
     9    23    21    1
    10    25    17    1
    11    22    21    2
    12    11    12    1
    13    11    13    1
    14    21    20    2
    15    12    16    1
    16    17    16    1
    17    17    18   am
    18    13    15    1
    19    13    14    1
    20    16    15    1
    21    20    18    2
    22     8     5    2
    23    18    19    2
    24     6     5    1
    25    14     5    1
    26     5     7    1
