@<TRIPOS>MOLECULE
1syf_THP_A_1.pdb
 25 26 0 0 0
SMALL
GASTEIGER

@<TRIPOS>ATOM
      1  P2         6.1250   14.1180   20.5870 P.3   180  THP180      0.5327
      2  O4P        6.5600   12.7460   21.0460 O.3   180  THP180     -0.1145
      3  O5P        5.1540   14.0130   19.4240 O.2   180  THP180     -0.2224
      4  O6P        7.4090   14.8660   20.2080 O.3   180  THP180     -0.1145
      5  P1         4.9830   11.8870   26.3360 P.3   180  THP180      0.5326
      6  O1P        6.2090   11.7590   25.4510 O.2   180  THP180     -0.2224
      7  O2P        5.3450   11.6920   27.7820 O.3   180  THP180     -0.1145
      8  O3P        3.8530   11.1020   25.7430 O.3   180  THP180     -0.1145
      9  O5'        5.5650   14.9310   21.7470 O.3   180  THP180     -0.2675
     10  C5'        4.4600   14.4500   22.5900 C.3   180  THP180      0.1857
     11  C4'        4.8900   14.4770   24.0410 C.3   180  THP180      0.1748
     12  O4'        5.2000   15.8450   24.4210 O.3   180  THP180     -0.3340
     13  C3'        3.7990   14.0520   25.0530 C.3   180  THP180      0.1600
     14  O3'        4.4780   13.3490   26.1460 O.3   180  THP180     -0.2700
     15  C2'        3.0780   15.3680   25.4850 C.3   180  THP180      0.0847
     16  C1'        4.2440   16.3910   25.3520 C.3   180  THP180      0.2089
     17  N1         3.7340   17.6970   24.8940 N.am  180  THP180     -0.1794
     18  C2         3.3690   18.5570   25.8750 C.1   180  THP180      0.2844
     19  O2         3.5640   18.2710   27.0530 O.2   180  THP180     -0.1918
     20  N3         2.7940   19.7460   25.5490 N.2   180  THP180     -0.2455
     21  C4         2.6260   20.0570   24.2920 C.1   180  THP180      0.2134
     22  O4         2.0710   21.1610   23.9920 O.2   180  THP180     -0.2088
     23  C5         3.0230   19.1800   23.2270 C.2   180  THP180      0.0891
     24  C5M        2.8210   19.5480   21.7710 C.3   180  THP180      0.0462
     25  C6         3.5620   17.9540   23.5660 C.2   180  THP180      0.0877
@<TRIPOS>BOND
     1     3     1    2
     2     4     1    1
     3     1     2    1
     4     1     9    1
     5     9    10    1
     6    24    23    1
     7    10    11    1
     8    23    25    2
     9    23    21    1
    10    25    17    1
    11    22    21    2
    12    11    12    1
    13    11    13    1
    14    21    20    2
    15    12    16    1
    16    17    16    1
    17    17    18   am
    18    13    15    1
    19    13    14    1
    20    16    15    1
    21     6     5    2
    22    20    18    2
    23     8     5    1
    24    18    19    2
    25    14     5    1
    26     5     7    1
