@<TRIPOS>MOLECULE
1syh_CPW_A_1.pdb
 17 18 0 0 0
SMALL
GASTEIGER

@<TRIPOS>ATOM
      1  C1        21.8970   14.2400   24.8080 C.3   501  CPW501      0.1391
      2  N1        21.8160   14.3210   23.3530 N.am  501  CPW501     -0.2068
      3  C2        22.8650   15.0780   22.6130 C.1   501  CPW501      0.2823
      4  N2        22.8760   14.9850   21.2790 N.2   501  CPW501     -0.2456
      5  C3        20.8290   13.6450   22.6210 C.2   501  CPW501      0.0483
      6  O1        23.6870   15.7320   23.2890 O.2   501  CPW501     -0.1919
      7  C4        20.8270   13.6530   21.2500 C.2   501  CPW501      0.0834
      8  C5        21.9390   14.3130   20.5340 C.1   501  CPW501      0.2130
      9  O2        22.0150   14.2380   19.3010 O.2   501  CPW501     -0.2088
     10  C6        19.6900   12.8090   23.1870 C.3   501  CPW501      0.0430
     11  C7        19.0260   12.1900   21.9160 C.3   501  CPW501      0.0116
     12  C8        19.6330   12.9380   20.6790 C.3   501  CPW501      0.0406
     13  C9        23.0830   13.3710   25.2740 C.3   501  CPW501      0.2151
     14  C10       23.2920   13.6760   26.7820 C.2   501  CPW501      0.3836
     15  O3        23.5480   14.8670   27.1120 O.co2 501  CPW501     -0.2440
     16  O4        23.2080   12.6850   27.5730 O.co2 501  CPW501     -0.2440
     17  N3        22.7700   11.9280   24.9570 N.3   501  CPW501     -0.1189
@<TRIPOS>BOND
     1     9     8    2
     2     8     7    1
     3     8     4    2
     4    12     7    1
     5    12    11    1
     6     7     5    2
     7     4     3    2
     8    11    10    1
     9     3     6    2
    10     3     2   am
    11     5    10    1
    12     5     2    1
    13     2     1    1
    14     1    13    1
    15    17    13    1
    16    13    14    1
    17    14    15   ar
    18    14    16   ar
