@<TRIPOS>MOLECULE
1syi_CPW_A_1.pdb
 17 18 0 0 0
SMALL
GASTEIGER

@<TRIPOS>ATOM
      1  C1        20.8260   14.5010   57.5680 C.3   381  CPW381      0.1392
      2  N1        20.8810   13.0440   57.5190 N.am  381  CPW381     -0.2059
      3  C2        22.2080   12.3740   57.4970 C.1   381  CPW381      0.2821
      4  N2        22.2400   11.0200   57.4930 N.2   381  CPW381     -0.2489
      5  C3        19.7250   12.2500   57.6040 C.2   381  CPW381      0.0609
      6  O1        23.2100   13.1160   57.4860 O.2   381  CPW381     -0.1919
      7  C4        19.7900   10.8900   57.6220 C.3   381  CPW381      0.1775
      8  C5        21.1160   10.2230   57.5340 C.1   381  CPW381      0.2008
      9  O2        21.1840    8.9800   57.4860 O.2   381  CPW381     -0.2127
     10  C6        18.2910   12.7570   57.6120 C.2   381  CPW381      0.0123
     11  C7        17.4400   11.4640   57.6990 C.2   381  CPW381     -0.0021
     12  C8        18.4250   10.2590   57.6340 C.2   381  CPW381     -0.0031
     13  C9        21.1450   15.0390   58.9950 C.3   381  CPW381      0.2151
     14  C10       21.5240   16.5440   58.8350 C.2   381  CPW381      0.3836
     15  O3        22.4710   16.8500   58.0640 O.co2 381  CPW381     -0.2440
     16  O4        20.8510   17.3600   59.5430 O.co2 381  CPW381     -0.2440
     17  N3        20.0300   14.7180   59.9580 N.3   381  CPW381     -0.1189
@<TRIPOS>BOND
     1     9     8    2
     2     6     3    2
     3     4     3    2
     4     4     8    2
     5     3     2   am
     6     2     1    1
     7     2     5    1
     8     8     7    1
     9     1    13    1
    10     5    10    2
    11     5     7    1
    12    10    11    1
    13     7    12    1
    14    12    11    2
    15    15    14   ar
    16    14    13    1
    17    14    16   ar
    18    13    17    1
