@<TRIPOS>MOLECULE
1syl_DUT_A_1.pdb
 28 29 0 0 0
SMALL
GASTEIGER

@<TRIPOS>ATOM
      1  N1        52.1330   22.2400   45.5020 N.am  777  DUT777     -0.1790
      2  C2        52.3280   20.9520   46.0120 C.1   777  DUT777      0.2844
      3  N3        51.3270   20.3760   46.7220 N.2   777  DUT777     -0.2452
      4  C4        50.1610   21.0070   46.9690 C.1   777  DUT777      0.2182
      5  C5        49.9510   22.2960   46.4730 C.2   777  DUT777      0.1242
      6  C6        50.9520   22.9010   45.7420 C.2   777  DUT777      0.0928
      7  O2        53.3940   20.3440   45.8070 O.2   777  DUT777     -0.1918
      8  O4        49.2740   20.4150   47.6430 O.2   777  DUT777     -0.2085
      9  C1'       53.1840   22.8910   44.7470 C.3   777  DUT777      0.2090
     10  C2'       52.7910   23.0030   43.2800 C.3   777  DUT777      0.0874
     11  C3'       52.4040   24.4470   43.0820 C.3   777  DUT777      0.1857
     12  C4'       53.2550   25.1420   44.1570 C.3   777  DUT777      0.1773
     13  O4'       53.2820   24.2230   45.2690 O.3   777  DUT777     -0.3339
     14  O3'       52.6500   24.8600   41.7510 O.3   777  DUT777     -0.2203
     15  C5'       52.7030   26.4720   44.5910 C.3   777  DUT777      0.1812
     16  O5'       51.3260   26.3180   44.9310 O.3   777  DUT777     -0.3112
     17  PA        50.4690   27.5910   45.4000 P.3   777  DUT777      0.2189
     18  O1A       50.6890   28.5700   44.2720 O.2   777  DUT777     -0.5170
     19  O2A       49.0840   27.1060   45.7860 O.3   777  DUT777     -0.4371
     20  O3A       51.1680   28.0360   46.7620 O.3   777  DUT777     -0.2700
     21  PB        51.8550   29.4460   47.1350 P.3   777  DUT777      0.2277
     22  O1B       51.2850   30.5890   46.2730 O.2   777  DUT777     -0.5168
     23  O2B       51.7340   29.6230   48.6000 O.3   777  DUT777     -0.4368
     24  O3B       53.4010   29.3310   46.7870 O.3   777  DUT777     -0.2258
     25  PG        54.0630   30.2140   45.5960 P.3   777  DUT777      0.5373
     26  O1G       54.2780   31.5740   46.2130 O.3   777  DUT777     -0.1143
     27  O2G       53.1610   30.2570   44.3120 O.2   777  DUT777     -0.2221
     28  O3G       55.3060   29.4670   45.1960 O.3   777  DUT777     -0.1143
@<TRIPOS>BOND
     1    14    11    1
     2    11    10    1
     3    11    12    1
     4    10     9    1
     5    12    15    1
     6    12    13    1
     7    18    17    2
     8    27    25    2
     9    15    16    1
    10     9    13    1
    11     9     1    1
    12    16    17    1
    13    28    25    1
    14    17    19    1
    15    17    20    1
    16     1     6    1
    17     1     2   am
    18    25    26    1
    19    25    24    1
    20     6     5    2
    21     7     2    2
    22     2     3    2
    23    22    21    2
    24     5     4    1
    25     3     4    2
    26    20    21    1
    27    24    21    1
    28     4     8    2
    29    21    23    1
