@<TRIPOS>MOLECULE
1syn_F89_A_1.pdb
 37 41 0 0 0
SMALL
GASTEIGER

@<TRIPOS>ATOM
      1  C1        14.7360   17.9660   33.1400 C.1   301  F89301      0.1997
      2  O1A       15.1760   17.7760   34.2730 O.2   301  F89301     -0.2127
      3  N2        13.8690   18.9970   33.0040 N.2   301  F89301     -0.2742
      4  C3        13.1190   19.1680   31.9000 C.1   301  F89301      0.1259
      5  C3M       12.1070   20.2660   31.8200 C.3   301  F89301      0.1438
      6  N4        13.2810   18.3350   30.8590 N.2   301  F89301     -0.3500
      7  C4A       14.1510   17.3180   30.8890 C.2   301  F89301      0.1195
      8  C5        14.1870   16.4410   29.7980 C.3   301  F89301      0.0616
      9  C6        15.3250   15.6690   29.5950 C.3   301  F89301      0.0332
     10  C6A       16.0850   15.3290   30.7180 C.ar  301  F89301     -0.0243
     11  C7        16.9290   14.2140   30.6380 C.ar  301  F89301     -0.0048
     12  C8        17.7670   13.9050   31.7110 C.ar  301  F89301     -0.0029
     13  C9        17.7930   14.7380   32.8470 C.ar  301  F89301     -0.0009
     14  C10       16.9190   15.8370   32.9370 C.ar  301  F89301     -0.0057
     15  C1B       16.0000   16.1130   31.9080 C.ar  301  F89301     -0.0038
     16  C1A       14.9940   17.1220   32.0090 C.3   301  F89301      0.1894
     17  C11       18.7270   14.4680   33.9600 C.3   301  F89301      0.1385
     18  N12       18.9910   13.0500   34.1820 N.pl3 301  F89301     -0.2328
     19  C13       18.0780   12.1900   34.8990 C.ar  301  F89301      0.0654
     20  C14       16.9390   12.7190   35.5410 C.ar  301  F89301      0.0136
     21  C15       16.1060   11.8480   36.2470 C.ar  301  F89301      0.0033
     22  C16       16.3710   10.4980   36.3330 C.ar  301  F89301      0.0513
     23  C17       17.4800    9.9450   35.6640 C.ar  301  F89301      0.0056
     24  C18       18.3400   10.8050   34.9520 C.ar  301  F89301      0.0162
     25  C19       14.8870   12.1420   36.9880 C.3   301  F89301      0.1211
     26  C         15.3900    9.8680   37.1950 C.2   301  F89301      0.2494
     27  O         15.4310    8.7150   37.6460 O.2   301  F89301     -0.2699
     28  N         14.5070   10.8360   37.5300 N.am  301  F89301     -0.2636
     29  CA        13.0330   10.8010   37.6030 C.3   301  F89301      0.1800
     30  CT        12.5530   11.5850   38.8450 C.2   301  F89301      0.3825
     31  O1        11.9920   12.6720   38.6720 O.co2 301  F89301     -0.2438
     32  O2        12.7940   11.1640   39.9860 O.co2 301  F89301     -0.2438
     33  CB        12.5280    9.3410   37.6720 C.3   301  F89301      0.0433
     34  CG        11.4820    8.9490   36.6280 C.3   301  F89301      0.1163
     35  CD        10.6990    7.6760   36.9730 C.2   301  F89301      0.3649
     36  OE1       11.1070    6.5910   36.5380 O.co2 301  F89301     -0.2457
     37  OE2        9.6460    7.7460   37.6120 O.co2 301  F89301     -0.2457
@<TRIPOS>BOND
     1     9     8    1
     2     9    10    1
     3     8     7    1
     4    11    10   ar
     5    11    12   ar
     6    10    15   ar
     7     6     7    2
     8     6     4    2
     9     7    16    1
    10    12    13   ar
    11     5     4    1
    12     4     3    2
    13    15    16    1
    14    15    14   ar
    15    16     1    1
    16    13    14   ar
    17    13    17    1
    18     3     1    2
    19     1     2    2
    20    17    18    1
    21    18    19    1
    22    19    24   ar
    23    19    20   ar
    24    24    23   ar
    25    20    21   ar
    26    23    22   ar
    27    21    22   ar
    28    21    25    1
    29    22    26    1
    30    36    35   ar
    31    34    35    1
    32    34    33    1
    33    35    37   ar
    34    25    28    1
    35    26    28   am
    36    26    27    2
    37    28    29    1
    38    29    33    1
    39    29    30    1
    40    31    30   ar
    41    30    32   ar
