@<TRIPOS>MOLECULE
1syn_UMP_A_1.pdb
 20 21 0 0 0
SMALL
GASTEIGER

@<TRIPOS>ATOM
      1  N1        17.3690   20.0500   31.5650 N.am  300  UMP300     -0.1790
      2  C2        18.1800   20.0800   32.6840 C.1   300  UMP300      0.2844
      3  N3        19.1650   19.1280   32.7080 N.2   300  UMP300     -0.2452
      4  C4        19.4090   18.1680   31.7430 C.1   300  UMP300      0.2182
      5  C5        18.5100   18.2060   30.6100 C.2   300  UMP300      0.1242
      6  C6        17.5110   19.1650   30.5890 C.2   300  UMP300      0.0928
      7  O2        18.1240   20.9090   33.5810 O.2   300  UMP300     -0.1918
      8  O4        20.3980   17.4380   31.8130 O.2   300  UMP300     -0.2085
      9  C1'       16.2630   21.0210   31.4020 C.3   300  UMP300      0.2090
     10  C2'       16.6670   22.4210   31.0090 C.3   300  UMP300      0.0874
     11  C3'       15.3400   23.0750   30.6210 C.3   300  UMP300      0.1857
     12  C4'       14.7860   21.9250   29.7780 C.3   300  UMP300      0.1774
     13  O3'       14.5080   23.2520   31.7880 O.3   300  UMP300     -0.2203
     14  O4'       15.2890   20.6960   30.3690 O.3   300  UMP300     -0.3339
     15  C5'       15.2450   21.9550   28.3250 C.3   300  UMP300      0.1858
     16  O5'       14.4760   22.9870   27.6090 O.3   300  UMP300     -0.2675
     17  P         15.1750   24.0760   26.7500 P.3   300  UMP300      0.5327
     18  OP1       14.2300   25.0510   26.2730 O.3   300  UMP300     -0.1145
     19  OP2       16.1530   24.8280   27.5350 O.3   300  UMP300     -0.1145
     20  OP3       15.7660   23.4660   25.5760 O.2   300  UMP300     -0.2224
@<TRIPOS>BOND
     1    20    17    2
     2    18    17    1
     3    17    19    1
     4    17    16    1
     5    16    15    1
     6    15    12    1
     7    12    14    1
     8    12    11    1
     9    14     9    1
    10     6     5    2
    11     6     1    1
    12     5     4    1
    13    11    10    1
    14    11    13    1
    15    10     9    1
    16     9     1    1
    17     1     2   am
    18     4     8    2
    19     4     3    2
    20     2     3    2
    21     2     7    2
