@<TRIPOS>MOLECULE
1syo_M6P_A_1.pdb
 16 16 0 0 0
SMALL
GASTEIGER

@<TRIPOS>ATOM
      1  C1        31.4410  -14.2150   20.3590 C.3   500  M6P500      0.3024
      2  C2        31.7100  -12.9810   19.4700 C.3   500  M6P500      0.2434
      3  C3        31.5690  -11.6480   20.2960 C.3   500  M6P500      0.2199
      4  C4        30.1390  -11.5830   20.8670 C.3   500  M6P500      0.2143
      5  C5        29.9430  -12.8130   21.7980 C.3   500  M6P500      0.1808
      6  C6        28.5600  -12.8840   22.4040 C.3   500  M6P500      0.1859
      7  O1        32.4520  -14.3110   21.3940 O.3   500  M6P500     -0.1869
      8  O2        30.7000  -12.9860   18.4610 O.3   500  M6P500     -0.2148
      9  O3        31.8190  -10.5340   19.4570 O.3   500  M6P500     -0.2174
     10  O4        29.9620  -10.3850   21.6300 O.3   500  M6P500     -0.2176
     11  O5        30.1350  -14.0660   21.0180 O.3   500  M6P500     -0.3237
     12  O6        28.4980  -14.0110   23.2540 O.3   500  M6P500     -0.2675
     13  P         27.1690  -14.3620   24.0220 P.3   500  M6P500      0.5327
     14  O1P       27.4000  -15.6780   24.9320 O.3   500  M6P500     -0.1145
     15  O2P       26.0820  -14.7180   22.9030 O.2   500  M6P500     -0.2224
     16  O3P       26.6510  -13.1170   24.9040 O.3   500  M6P500     -0.1145
@<TRIPOS>BOND
     1     8     2    1
     2     9     3    1
     3     2     3    1
     4     2     1    1
     5     3     4    1
     6     1    11    1
     7     1     7    1
     8     4    10    1
     9     4     5    1
    10    11     5    1
    11     5     6    1
    12     6    12    1
    13    15    13    2
    14    12    13    1
    15    13    16    1
    16    13    14    1
