@<TRIPOS>MOLECULE
1sz0_M6P_A_1.pdb
 16 16 0 0 0
SMALL
GASTEIGER

@<TRIPOS>ATOM
      1  C1        31.7030  -14.0640   19.9670 C.3   500  M6P500      0.3024
      2  C2        31.9870  -12.8300   19.0580 C.3   500  M6P500      0.2434
      3  C3        31.7570  -11.4800   19.8390 C.3   500  M6P500      0.2199
      4  C4        30.2920  -11.4500   20.3370 C.3   500  M6P500      0.2143
      5  C5        30.0740  -12.6690   21.2810 C.3   500  M6P500      0.1808
      6  C6        28.6550  -12.7760   21.8050 C.3   500  M6P500      0.1859
      7  O1        32.6570  -14.1280   21.0660 O.3   500  M6P500     -0.1869
      8  O2        31.0370  -12.8810   17.9900 O.3   500  M6P500     -0.2148
      9  O3        32.0160  -10.3720   18.9780 O.3   500  M6P500     -0.2174
     10  O4        30.0380  -10.2390   21.0600 O.3   500  M6P500     -0.2176
     11  O5        30.3520  -13.9310   20.5510 O.3   500  M6P500     -0.3237
     12  O6        28.5740  -13.9020   22.6660 O.3   500  M6P500     -0.2675
     13  P         27.2110  -14.2900   23.3500 P.3   500  M6P500      0.5327
     14  O1P       27.4150  -15.5850   24.2920 O.3   500  M6P500     -0.1145
     15  O2P       26.1980  -14.6920   22.1800 O.2   500  M6P500     -0.2224
     16  O3P       26.6090  -13.0570   24.1760 O.3   500  M6P500     -0.1145
@<TRIPOS>BOND
     1     8     2    1
     2     9     3    1
     3     2     3    1
     4     2     1    1
     5     3     4    1
     6     1    11    1
     7     1     7    1
     8     4    10    1
     9     4     5    1
    10    11     5    1
    11     5     6    1
    12     6    12    1
    13    15    13    2
    14    12    13    1
    15    13    16    1
    16    13    14    1
