@<TRIPOS>MOLECULE
1sz2_BGC_A_1.pdb
 12 12 0 0 0
SMALL
GASTEIGER

@<TRIPOS>ATOM
      1  C2         8.5710    3.4390   17.3060 C.3   1001  BGC1001     0.2434
      2  C3         9.1330    2.1800   17.9590 C.3   1001  BGC1001     0.2199
      3  C4         8.8160    0.9660   17.0870 C.3   1001  BGC1001     0.2144
      4  C5         9.2080    1.2030   15.6260 C.3   1001  BGC1001     0.1836
      5  C6         8.7650    0.0630   14.7030 C.3   1001  BGC1001     0.2142
      6  C1         9.0910    3.5000   15.8780 C.3   1001  BGC1001     0.3024
      7  O1         8.5530    4.6460   15.3130 O.3   1001  BGC1001    -0.1869
      8  O2         9.0670    4.6040   17.9620 O.3   1001  BGC1001    -0.2148
      9  O3         8.6800    2.0470   19.3170 O.3   1001  BGC1001    -0.2174
     10  O4         9.5180   -0.1640   17.5560 O.3   1001  BGC1001    -0.2176
     11  O5         8.6390    2.3950   15.1510 O.3   1001  BGC1001    -0.3236
     12  O6         7.3460   -0.0650   14.7240 O.3   1001  BGC1001    -0.2176
@<TRIPOS>BOND
     1     5    12    1
     2     5     4    1
     3    11     4    1
     4    11     6    1
     5     7     6    1
     6     4     3    1
     7     6     1    1
     8     3    10    1
     9     3     2    1
    10     1     2    1
    11     1     8    1
    12     2     9    1
