@<TRIPOS>MOLECULE
1sz3_GNP_A_1.pdb
 32 34 0 0 0
SMALL
GASTEIGER

@<TRIPOS>ATOM
      1  PG        43.1050    5.7050   23.5380 P.3   3030  GNP3030     0.4884
      2  O1G       44.4050    5.6020   22.6310 O.2   3030  GNP3030    -0.2331
      3  O2G       41.9910    5.5520   23.3460 O.3   3030  GNP3030    -0.1240
      4  O3G       43.4420    7.4730   23.9420 O.3   3030  GNP3030    -0.1240
      5  N3B       43.7220    5.0070   24.9140 N.3   3030  GNP3030    -0.0163
      6  PB        42.7570    4.1270   25.8200 P.3   3030  GNP3030     0.4669
      7  O1B       42.8950    2.7200   25.3850 O.2   3030  GNP3030    -0.2351
      8  O2B       41.4080    4.6830   25.6570 O.3   3030  GNP3030    -0.1253
      9  O3A       43.1870    4.1980   27.3500 O.3   3030  GNP3030    -0.2360
     10  PA        43.5500    3.1270   28.5140 P.3   3030  GNP3030     0.2220
     11  O1A       43.2110    1.7730   27.9850 O.2   3030  GNP3030    -0.5170
     12  O2A       42.9170    3.5350   29.7920 O.3   3030  GNP3030    -0.4370
     13  O5'       45.1230    3.3080   28.5940 O.3   3030  GNP3030    -0.3111
     14  C5'       45.9830    2.3270   29.1740 C.3   3030  GNP3030     0.1813
     15  C4'       46.7330    1.6100   28.0750 C.3   3030  GNP3030     0.1799
     16  O4'       48.0690    1.2790   28.5100 O.3   3030  GNP3030    -0.3326
     17  C3'       46.1140    0.2840   27.6490 C.3   3030  GNP3030     0.2158
     18  O3'       45.1310    0.4900   26.6370 O.3   3030  GNP3030    -0.2175
     19  C2'       47.2960   -0.5200   27.1640 C.3   3030  GNP3030     0.2310
     20  O2'       47.4850   -0.2530   25.7740 O.3   3030  GNP3030    -0.2158
     21  C1'       48.4960    0.0660   27.8810 C.3   3030  GNP3030     0.2293
     22  N9        49.0690   -0.7490   28.9550 N.pl3 3030  GNP3030    -0.2354
     23  C8        48.7600   -0.6460   30.2910 C.3   3030  GNP3030     0.2246
     24  N7        49.4160   -1.4830   31.0430 N.2   3030  GNP3030    -0.2322
     25  C5        50.2180   -2.1860   30.1540 C.2   3030  GNP3030     0.2182
     26  C6        51.1570   -3.2180   30.3920 C.1   3030  GNP3030     0.2372
     27  O6        51.4820   -3.7580   31.4550 O.2   3030  GNP3030    -0.2069
     28  N1        51.7550   -3.6500   29.2110 N.2   3030  GNP3030    -0.2485
     29  C2        51.4800   -3.1320   27.9660 C.1   3030  GNP3030     0.2531
     30  N2        52.1670   -3.6850   26.9570 N.pl3 3030  GNP3030    -0.0226
     31  N3        50.6140   -2.1640   27.7310 N.2   3030  GNP3030    -0.3074
     32  C4        50.0140   -1.7390   28.8670 C.2   3030  GNP3030     0.2300
@<TRIPOS>BOND
     1     2     1    2
     2     3     1    1
     3     1     4    1
     4     1     5    1
     5     5     6    1
     6     7     6    2
     7     8     6    1
     8    20    19    1
     9     6     9    1
    10    18    17    1
    11    30    29    1
    12    19    17    1
    13    19    21    1
    14     9    10    1
    15    17    15    1
    16    31    29    2
    17    31    32    2
    18    21    16    1
    19    21    22    1
    20    29    28    2
    21    11    10    2
    22    15    16    1
    23    15    14    1
    24    10    13    1
    25    10    12    1
    26    13    14    1
    27    32    22    1
    28    32    25    1
    29    22    23    1
    30    28    26    2
    31    25    26    1
    32    25    24    2
    33    23    24    1
    34    26    27    2
