@<TRIPOS>MOLECULE
1szc_CNA_A_1.pdb
 44 48 0 0 0
SMALL
GASTEIGER

@<TRIPOS>ATOM
      1  PA        -9.4320   32.4120  -44.0350 P.3   1001  CNA1001     0.2189
      2  O1A      -10.6610   33.1320  -44.4250 O.3   1001  CNA1001    -0.4371
      3  O2A       -8.9150   31.5560  -45.1350 O.2   1001  CNA1001    -0.5170
      4  O5B       -9.6800   31.5600  -42.8430 O.3   1001  CNA1001    -0.3112
      5  C5B      -10.2080   31.9800  -41.5390 C.3   1001  CNA1001     0.1813
      6  C4B      -10.2920   30.7790  -40.6550 C.3   1001  CNA1001     0.1821
      7  O4B      -10.8020   31.1330  -39.3690 O.3   1001  CNA1001    -0.3135
      8  C3B      -11.1780   29.7200  -41.1260 C.3   1001  CNA1001     0.2184
      9  O3B      -10.2480   28.5940  -41.2340 O.3   1001  CNA1001    -0.2174
     10  C2B      -12.2160   29.4670  -40.1130 C.3   1001  CNA1001     0.2570
     11  O2B      -12.4020   28.0930  -39.6850 O.3   1001  CNA1001    -0.2130
     12  C1B      -11.9210   30.3720  -39.0170 C.3   1001  CNA1001     0.3186
     13  N9A      -12.9250   31.3860  -38.5710 N.pl3 1001  CNA1001    -0.1439
     14  C8A      -13.8700   32.2280  -39.2100 C.3   1001  CNA1001     0.3377
     15  N7A      -14.5620   32.9930  -38.2910 N.2   1001  CNA1001    -0.2095
     16  C5A      -14.0410   32.6230  -37.0330 C.2   1001  CNA1001     0.2526
     17  C6A      -14.2740   33.0020  -35.6190 C.2   1001  CNA1001     0.4393
     18  N6A      -15.1630   33.9060  -35.2500 N.pl3 1001  CNA1001     0.2180
     19  N1A      -13.5070   32.3760  -34.5290 N.2   1001  CNA1001     0.0021
     20  C2A      -12.5000   31.3690  -34.8120 C.3   1001  CNA1001     0.5254
     21  N3A      -12.2150   30.9540  -36.1200 N.2   1001  CNA1001    -0.0055
     22  C4A      -13.0170   31.6180  -37.1890 C.2   1001  CNA1001     0.3518
     23  O3        -8.4070   33.4370  -43.8240 O.3   1001  CNA1001    -0.2703
     24  PN        -7.0050   33.6290  -43.4490 P.3   1001  CNA1001     0.2188
     25  O1N       -6.4270   32.3000  -43.1620 O.2   1001  CNA1001    -0.5170
     26  O2N       -6.6560   34.3030  -42.2710 O.3   1001  CNA1001    -0.4371
     27  O5D       -6.4320   33.4860  -44.8130 O.3   1001  CNA1001    -0.3138
     28  C5D       -5.7890   34.7990  -45.0140 C.3   1001  CNA1001     0.1517
     29  C4D       -6.5120   35.7020  -45.9320 C.3   1001  CNA1001     0.0648
     30  C4'       -7.8690   36.0220  -45.7050 C.3   1001  CNA1001     0.0276
     31  C3D       -6.0160   36.3200  -47.0350 C.3   1001  CNA1001     0.1862
     32  O3D       -5.5880   35.7580  -48.3480 O.3   1001  CNA1001    -0.2203
     33  C2D       -6.9690   37.5000  -47.1750 C.3   1001  CNA1001     0.2000
     34  O2D       -6.7960   38.0800  -48.4390 O.3   1001  CNA1001    -0.2186
     35  C1D       -8.2810   36.8850  -46.6850 C.3   1001  CNA1001     0.1061
     36  N1N       -9.0640   37.8600  -45.9000 N.pl3 1001  CNA1001    -0.3015
     37  C2N       -8.5370   38.8710  -44.9410 C.3   1001  CNA1001     0.1224
     38  C3N       -9.4930   39.7180  -44.2810 C.2   1001  CNA1001     0.0543
     39  C7N       -9.1440   40.7740  -43.3040 C.2   1001  CNA1001     0.2818
     40  O7N       -7.9250   41.4350  -43.5840 O.2   1001  CNA1001    -0.2670
     41  N7N       -9.9630   41.0710  -42.1870 N.am  1001  CNA1001    -0.0839
     42  C4N      -10.9370   39.5690  -44.5630 C.2   1001  CNA1001     0.0033
     43  C5N      -11.4070   38.5650  -45.5140 C.2   1001  CNA1001     0.0157
     44  C6N      -10.5290   37.6650  -46.2310 C.2   1001  CNA1001     0.0616
@<TRIPOS>BOND
     1    34    33    1
     2    32    31    1
     3    33    31    1
     4    33    35    1
     5    31    29    1
     6    35    36    1
     7    35    30    1
     8    44    36    1
     9    44    43    2
    10    29    30    1
    11    29    28    1
    12    36    37    1
    13    43    42    1
    14     3     1    2
    15    28    27    1
    16    37    38    1
    17    27    24    1
    18    42    38    2
    19     2     1    1
    20    38    39    1
    21     1    23    1
    22     1     4    1
    23    23    24    1
    24    40    39    2
    25    24    25    2
    26    24    26    1
    27    39    41   am
    28     4     5    1
    29     5     6    1
    30     9     8    1
    31     8     6    1
    32     8    10    1
    33     6     7    1
    34    10    11    1
    35    10    12    1
    36     7    12    1
    37    14    13    1
    38    14    15    1
    39    12    13    1
    40    13    22    1
    41    15    16    2
    42    22    16    1
    43    22    21    2
    44    16    17    1
    45    21    20    1
    46    17    18    1
    47    17    19    2
    48    20    19    1
