@<TRIPOS>MOLECULE
1szd_APR_A_1.pdb
 36 39 0 0 0
SMALL
GASTEIGER

@<TRIPOS>ATOM
      1  N1       -13.1970   32.4900  -34.3580 N.2   1001  APR1001     0.0021
      2  C2       -12.1780   31.5510  -34.6210 C.3   1001  APR1001     0.5254
      3  N3       -11.8390   31.0940  -35.9550 N.2   1001  APR1001    -0.0055
      4  C4       -12.6420   31.6880  -36.9760 C.2   1001  APR1001     0.3518
      5  C5       -13.6850   32.6270  -36.8310 C.2   1001  APR1001     0.2526
      6  C6       -13.9700   33.0450  -35.4480 C.2   1001  APR1001     0.4393
      7  N6       -14.9910   33.9960  -35.1210 N.pl3 1001  APR1001     0.2180
      8  N7       -14.2160   32.9540  -38.0560 N.2   1001  APR1001    -0.2095
      9  C8       -13.5180   32.2390  -38.9410 C.3   1001  APR1001     0.3377
     10  N9       -12.5480   31.4570  -38.3260 N.pl3 1001  APR1001    -0.1439
     11  C1'      -11.5530   30.5400  -38.8690 C.3   1001  APR1001     0.3186
     12  C2'      -11.8920   29.7570  -40.0570 C.3   1001  APR1001     0.2570
     13  O2'      -12.2890   28.4150  -39.7130 O.3   1001  APR1001    -0.2130
     14  C3'      -10.7140   29.7710  -40.9290 C.3   1001  APR1001     0.2184
     15  O3'       -9.8220   28.6440  -40.7920 O.3   1001  APR1001    -0.2174
     16  O4'      -10.5540   31.4300  -39.2840 O.3   1001  APR1001    -0.3135
     17  C4'       -9.9790   31.0440  -40.5380 C.3   1001  APR1001     0.1821
     18  C5'      -10.0860   32.2430  -41.5020 C.3   1001  APR1001     0.1813
     19  O5'       -9.5480   31.8810  -42.7890 O.3   1001  APR1001    -0.3112
     20  PA        -9.4880   32.8610  -43.9620 P.3   1001  APR1001     0.2189
     21  O1A      -10.7950   33.4870  -44.1880 O.3   1001  APR1001    -0.4371
     22  O2A       -8.9410   32.1710  -45.1380 O.2   1001  APR1001    -0.5170
     23  O3A       -8.4410   33.9480  -43.7350 O.3   1001  APR1001    -0.2703
     24  PB        -7.0180   34.1300  -43.4470 P.3   1001  APR1001     0.2189
     25  O1B       -6.3480   32.8550  -43.2620 O.2   1001  APR1001    -0.5170
     26  O2B       -6.5540   34.8920  -42.3940 O.3   1001  APR1001    -0.4371
     27  O5D       -6.7540   34.4970  -44.8790 O.3   1001  APR1001    -0.3112
     28  C5D       -6.9450   35.5660  -45.6440 C.3   1001  APR1001     0.1813
     29  O4D       -7.9050   36.6760  -47.1900 O.3   1001  APR1001    -0.3237
     30  O1D       -6.5320   38.4170  -47.7010 O.3   1001  APR1001    -0.1869
     31  C1D       -7.2320   37.3180  -48.2500 C.3   1001  APR1001     0.3023
     32  O2D       -6.9930   36.0840  -49.8250 O.3   1001  APR1001    -0.2148
     33  C2D       -6.1870   36.5590  -48.7430 C.3   1001  APR1001     0.2433
     34  O3D       -6.3030   34.0130  -48.8210 O.3   1001  APR1001    -0.2175
     35  C3D       -6.1700   35.2420  -48.1280 C.3   1001  APR1001     0.2168
     36  C4D       -7.1590   35.3780  -47.0310 C.3   1001  APR1001     0.1807
@<TRIPOS>BOND
     1    32    33    1
     2    34    35    1
     3    33    31    1
     4    33    35    1
     5    31    30    1
     6    31    29    1
     7    35    36    1
     8    29    36    1
     9    36    28    1
    10    28    27    1
    11    22    20    2
    12    27    24    1
    13    21    20    1
    14    20    23    1
    15    20    19    1
    16    23    24    1
    17    24    25    2
    18    24    26    1
    19    19    18    1
    20    18    17    1
    21    14    15    1
    22    14    17    1
    23    14    12    1
    24    17    16    1
    25    12    13    1
    26    12    11    1
    27    16    11    1
    28     9    10    1
    29     9     8    1
    30    11    10    1
    31    10     4    1
    32     8     5    2
    33     4     5    1
    34     4     3    2
    35     5     6    1
    36     3     2    1
    37     6     7    1
    38     6     1    2
    39     2     1    1
