@<TRIPOS>MOLECULE
1sze_FMN_A_1.pdb
 31 33 0 0 0
SMALL
GASTEIGER

@<TRIPOS>ATOM
      1  N1        67.0430   52.8800   -1.3350 N.2   5570  FMN5570    -0.2890
      2  C2        67.8700   51.8690   -1.7400 C.1   5570  FMN5570     0.3669
      3  O2        67.6150   50.6840   -1.7590 O.2   5570  FMN5570    -0.1744
      4  N3        69.1470   52.2600   -2.1950 N.2   5570  FMN5570    -0.2300
      5  C4        69.6270   53.5250   -2.2570 C.1   5570  FMN5570     0.2513
      6  O4        70.7510   53.7640   -2.6660 O.2   5570  FMN5570    -0.2057
      7  C4A       68.6970   54.5640   -1.8140 C.2   5570  FMN5570     0.2700
      8  N5        69.0800   55.8080   -1.8800 N.2   5570  FMN5570    -0.3878
      9  C5A       68.2470   56.8130   -1.5040 C.2   5570  FMN5570     0.1320
     10  C6        68.6560   58.1440   -1.5150 C.2   5570  FMN5570     0.0250
     11  C7        67.8690   59.1970   -1.1710 C.2   5570  FMN5570    -0.0238
     12  C7M       68.4370   60.5930   -0.9960 C.3   5570  FMN5570     0.0308
     13  C8        66.6000   58.8620   -0.6470 C.2   5570  FMN5570    -0.0280
     14  C8M       65.5870   59.8890   -0.1830 C.3   5570  FMN5570     0.0304
     15  C9        66.1480   57.5710   -0.6020 C.2   5570  FMN5570    -0.0041
     16  C9A       66.9330   56.4950   -1.0120 C.3   5570  FMN5570     0.1497
     17  N10       66.5600   55.1590   -0.9690 N.pl3 5570  FMN5570    -0.2691
     18  C10       67.4030   54.1350   -1.3680 C.2   5570  FMN5570     0.2416
     19  C1'       65.2220   54.7840   -0.5110 C.3   5570  FMN5570     0.1294
     20  C2'       65.1040   54.5490    0.9410 C.3   5570  FMN5570     0.2044
     21  O2'       65.9060   53.4900    1.4050 O.3   5570  FMN5570    -0.2185
     22  C3'       63.7220   54.7060    1.5690 C.3   5570  FMN5570     0.2164
     23  O3'       62.9360   53.6470    0.9600 O.3   5570  FMN5570    -0.2175
     24  C4'       63.0750   56.0720    1.6050 C.3   5570  FMN5570     0.2147
     25  O4'       63.9790   57.0370    2.0930 O.3   5570  FMN5570    -0.2176
     26  C5'       61.8120   55.9000    2.4190 C.3   5570  FMN5570     0.1892
     27  O5'       61.2000   57.1550    2.3760 O.3   5570  FMN5570    -0.2674
     28  P         61.2480   58.4530    3.2870 P.3   5570  FMN5570     0.5327
     29  O1P       62.4980   59.2680    2.9150 O.2   5570  FMN5570    -0.2224
     30  O2P       61.3590   57.8810    4.6980 O.3   5570  FMN5570    -0.1145
     31  O3P       59.8790   59.0950    3.1380 O.3   5570  FMN5570    -0.1145
@<TRIPOS>BOND
     1     6     5    2
     2     5     4    2
     3     5     7    1
     4     4     2    2
     5     8     7    2
     6     8     9    2
     7     7    18    1
     8     3     2    2
     9     2     1    2
    10    10     9    1
    11    10    11    2
    12     9    16    1
    13    18     1    2
    14    18    17    1
    15    11    12    1
    16    11    13    1
    17    16    17    1
    18    16    15    1
    19    17    19    1
    20    13    15    2
    21    13    14    1
    22    19    20    1
    23    20    21    1
    24    20    22    1
    25    23    22    1
    26    22    24    1
    27    24    25    1
    28    24    26    1
    29    27    26    1
    30    27    28    1
    31    29    28    2
    32    31    28    1
    33    28    30    1
