@<TRIPOS>MOLECULE
1sze_173_A_1.pdb
 11 11 0 0 0
SMALL
GASTEIGER

@<TRIPOS>ATOM
      1  O1B       69.1020   58.3900   -5.1970 O.co2 5580  1735580    -0.2369
      2  C1        68.5060   57.3210   -4.9720 C.2   5580  1735580     0.4260
      3  O1A       67.3040   57.2310   -4.5960 O.co2 5580  1735580    -0.2369
      4  C2        69.2120   55.9920   -5.1890 C.2   5580  1735580     0.2746
      5  O2        68.6590   55.0480   -4.6370 O.2   5580  1735580    -0.2795
      6  C1G       70.3480   55.7940   -5.9950 C.ar  5580  1735580     0.0457
      7  C2D       71.2450   56.7750   -6.3790 C.ar  5580  1735580     0.0034
      8  C2E       72.3520   56.5030   -7.2050 C.ar  5580  1735580     0.0001
      9  C3        72.5930   55.2290   -7.6830 C.ar  5580  1735580     0.0000
     10  C1E       71.7020   54.2390   -7.3170 C.ar  5580  1735580     0.0001
     11  C1D       70.6030   54.5270   -6.4970 C.ar  5580  1735580     0.0034
@<TRIPOS>BOND
     1     9    10   ar
     2     9     8   ar
     3    10    11   ar
     4     8     7   ar
     5    11     6   ar
     6     7     6   ar
     7     6     4    1
     8     1     2   ar
     9     4     2    1
    10     4     5    2
    11     2     3   ar
