@<TRIPOS>MOLECULE
1szf_FMN_A_1.pdb
 31 33 0 0 0
SMALL
GASTEIGER

@<TRIPOS>ATOM
      1  N1       -12.6640   84.6060   35.9870 N.2   5570  FMN5570    -0.2887
      2  C2       -11.3820   84.7340   35.5430 C.1   5570  FMN5570     0.3669
      3  O2       -10.5090   83.9060   35.5280 O.2   5570  FMN5570    -0.1744
      4  N3       -11.0450   85.9930   35.0330 N.2   5570  FMN5570    -0.2300
      5  C4       -11.8370   87.0810   34.9320 C.1   5570  FMN5570     0.2513
      6  O4       -11.3900   88.1070   34.4620 O.2   5570  FMN5570    -0.2057
      7  C4A      -13.2170   86.8940   35.4190 C.2   5570  FMN5570     0.2706
      8  N5       -14.0940   87.8850   35.3800 N.2   5570  FMN5570    -0.3841
      9  C5A      -15.3630   87.7240   35.8460 C.2   5570  FMN5570     0.1452
     10  C6       -16.3180   88.7400   35.8340 C.2   5570  FMN5570     0.0252
     11  C7       -17.5930   88.5930   36.3200 C.2   5570  FMN5570    -0.0375
     12  C7M      -18.5090   89.7710   36.5660 C.3   5570  FMN5570     0.0268
     13  C8       -17.9620   87.3200   36.8340 C.3   5570  FMN5570     0.0417
     14  C8M      -19.3440   87.0090   37.3830 C.3   5570  FMN5570     0.0091
     15  C9       -17.0490   86.2910   36.8670 C.2   5570  FMN5570    -0.0049
     16  C9A      -15.7480   86.4500   36.3850 C.2   5570  FMN5570     0.0795
     17  N10      -14.8030   85.4570   36.4060 N.pl3 5570  FMN5570    -0.2545
     18  C10      -13.5160   85.5910   35.9380 C.2   5570  FMN5570     0.2449
     19  C1'      -15.2000   84.1530   36.9270 C.3   5570  FMN5570     0.1336
     20  C2'      -14.8260   83.7390   38.3250 C.3   5570  FMN5570     0.2048
     21  O2'      -13.5090   83.9680   38.8160 O.3   5570  FMN5570    -0.2185
     22  C3'      -15.7230   82.6600   38.9110 C.3   5570  FMN5570     0.2165
     23  O3'      -15.3300   81.5480   38.0680 O.3   5570  FMN5570    -0.2175
     24  C4'      -17.2110   82.8340   39.0770 C.3   5570  FMN5570     0.2147
     25  O4'      -17.5170   84.1710   39.4290 O.3   5570  FMN5570    -0.2176
     26  C5'      -17.6360   81.6920   39.9910 C.3   5570  FMN5570     0.1892
     27  O5'      -19.0260   81.7640   39.9910 O.3   5570  FMN5570    -0.2674
     28  P        -20.1270   82.5370   40.8260 P.3   5570  FMN5570     0.5327
     29  O1P      -20.0630   84.0030   40.4620 O.2   5570  FMN5570    -0.2224
     30  O2P      -19.6980   82.3080   42.2660 O.3   5570  FMN5570    -0.1145
     31  O3P      -21.4860   81.9380   40.5600 O.3   5570  FMN5570    -0.1145
@<TRIPOS>BOND
     1     6     5    2
     2     5     4    2
     3     5     7    1
     4     4     2    2
     5     8     7    2
     6     8     9    2
     7     7    18    1
     8     3     2    2
     9     2     1    2
    10    10     9    1
    11    10    11    2
    12     9    16    1
    13    18     1    2
    14    18    17    1
    15    11    12    1
    16    11    13    1
    17    16    17    1
    18    16    15    2
    19    17    19    1
    20    13    15    1
    21    13    14    1
    22    19    20    1
    23    23    22    1
    24    20    21    1
    25    20    22    1
    26    22    24    1
    27    24    25    1
    28    24    26    1
    29    26    27    1
    30    27    28    1
    31    29    28    2
    32    31    28    1
    33    28    30    1
