@<TRIPOS>MOLECULE
1szg_FNS_A_1.pdb
 35 37 0 0 0
SMALL
GASTEIGER

@<TRIPOS>ATOM
      1  N1        67.3680   53.4890   -1.6270 N.2   5570  FNS5570    -0.2939
      2  C2        68.2130   52.5210   -2.1510 C.1   5570  FNS5570     0.3663
      3  O2        67.8970   51.3220   -2.0480 O.2   5570  FNS5570    -0.1745
      4  N3        69.4150   53.0210   -2.7590 N.2   5570  FNS5570    -0.2348
      5  C4        69.6930   54.3820   -2.8150 C.1   5570  FNS5570     0.2213
      6  O4        70.7960   54.6990   -3.2800 O.2   5570  FNS5570    -0.2111
      7  C4A       68.6160   55.2590   -2.3880 C.3   5570  FNS5570     0.2808
      8  N5        68.7930   56.5550   -2.6190 N.pl3 5570  FNS5570    -0.1643
      9  S         69.2660   56.8120   -4.3610 S.3   5570  FNS5570     0.0952
     10  O1S       70.3180   57.9480   -4.6400 O.3   5570  FNS5570    -0.0500
     11  O2S       69.5230   55.4820   -5.2340 O.3   5570  FNS5570    -0.0500
     12  O3S       67.9150   57.4260   -5.0760 O.3   5570  FNS5570    -0.0500
     13  C5A       68.2740   57.5680   -1.9240 C.ar  5570  FNS5570     0.0839
     14  C6        68.7360   58.8330   -2.0640 C.ar  5570  FNS5570     0.0129
     15  C7        68.0290   59.8370   -1.4320 C.ar  5570  FNS5570    -0.0244
     16  C7M       68.4800   61.2840   -1.4780 C.3   5570  FNS5570     0.0307
     17  C8        66.9030   59.4860   -0.7030 C.ar  5570  FNS5570    -0.0245
     18  C8M       66.2250   60.4900    0.1410 C.3   5570  FNS5570     0.0307
     19  C9        66.4700   58.2030   -0.5590 C.ar  5570  FNS5570     0.0116
     20  C9A       67.1650   57.2150   -1.1660 C.ar  5570  FNS5570     0.0681
     21  N10       66.7800   55.8510   -1.0980 N.pl3 5570  FNS5570    -0.2592
     22  C10       67.5570   54.8430   -1.6270 C.2   5570  FNS5570     0.2166
     23  C1'       65.5870   55.5470   -0.6350 C.3   5570  FNS5570     0.1333
     24  C2'       65.7100   55.2290    0.8150 C.3   5570  FNS5570     0.2048
     25  O2'       66.3360   53.9420    0.9520 O.3   5570  FNS5570    -0.2185
     26  C3'       64.3080   55.2090    1.3700 C.3   5570  FNS5570     0.2165
     27  O3'       63.4010   54.3210    0.6550 O.3   5570  FNS5570    -0.2175
     28  C4'       63.7020   56.5860    1.3180 C.3   5570  FNS5570     0.2147
     29  O4'       64.5740   57.6910    1.6550 O.3   5570  FNS5570    -0.2176
     30  C5'       62.5850   56.4710    2.2720 C.3   5570  FNS5570     0.1892
     31  O5'       61.7990   57.6000    2.0910 O.3   5570  FNS5570    -0.2674
     32  P         61.8570   58.8610    3.1550 P.3   5570  FNS5570     0.5327
     33  O1P       63.1380   59.5990    2.7680 O.2   5570  FNS5570    -0.2224
     34  O2P       61.8330   58.2160    4.5680 O.3   5570  FNS5570    -0.1145
     35  O3P       60.5580   59.5700    2.8220 O.3   5570  FNS5570    -0.1145
@<TRIPOS>BOND
     1    11     9    1
     2    12     9    1
     3    10     9    1
     4     9     8    1
     5     6     5    2
     6     5     4    2
     7     5     7    1
     8     4     2    2
     9     8     7    1
    10     8    13    1
    11     7    22    1
    12     2     3    2
    13     2     1    2
    14    14    13   ar
    15    14    15   ar
    16    13    20   ar
    17     1    22    2
    18    22    21    1
    19    16    15    1
    20    15    17   ar
    21    20    21    1
    22    20    19   ar
    23    21    23    1
    24    17    19   ar
    25    17    18    1
    26    23    24    1
    27    27    26    1
    28    24    25    1
    29    24    26    1
    30    28    26    1
    31    28    29    1
    32    28    30    1
    33    31    30    1
    34    31    32    1
    35    33    32    2
    36    35    32    1
    37    32    34    1
