@<TRIPOS>MOLECULE
1szj_NAD_G_1.pdb
 44 48 0 0 0
SMALL
GASTEIGER

@<TRIPOS>ATOM
      1  PA        -4.5090    9.3510   18.1510 P.3   335  NAD335      0.2189
      2  O1A       -4.1110    8.0450   18.7060 O.3   335  NAD335     -0.4371
      3  O2A       -3.7610    9.8740   16.9900 O.2   335  NAD335     -0.5170
      4  O5B       -4.4510   10.4410   19.3390 O.3   335  NAD335     -0.3112
      5  C5B       -4.8140   10.1640   20.6980 C.3   335  NAD335      0.1813
      6  C4B       -3.8710   11.0470   21.5100 C.3   335  NAD335      0.1821
      7  O4B       -4.2890   11.2490   22.8640 O.3   335  NAD335     -0.3135
      8  C3B       -2.4460   10.4990   21.5480 C.3   335  NAD335      0.2184
      9  O3B       -1.4790   11.4860   21.1490 O.3   335  NAD335     -0.2174
     10  C2B       -2.2430   10.0410   22.9870 C.3   335  NAD335      0.2570
     11  O2B       -0.8490   10.1070   23.3900 O.3   335  NAD335     -0.2130
     12  C1B       -3.1580   11.0040   23.7300 C.3   335  NAD335      0.3186
     13  N9A       -3.5180   10.5420   25.0990 N.pl3 335  NAD335     -0.1439
     14  C8A       -3.7480    9.2680   25.5050 C.3   335  NAD335      0.3377
     15  N7A       -4.0640    9.2200   26.8120 N.2   335  NAD335     -0.2095
     16  C5A       -4.0170   10.4960   27.1850 C.2   335  NAD335      0.2526
     17  C6A       -4.3620   10.9270   28.4470 C.2   335  NAD335      0.4393
     18  N6A       -4.7630   10.0800   29.3900 N.pl3 335  NAD335      0.2180
     19  N1A       -4.3600   12.2640   28.6170 N.2   335  NAD335      0.0021
     20  C2A       -4.0550   13.0890   27.6120 C.3   335  NAD335      0.5254
     21  N3A       -3.7170   12.6710   26.3990 N.2   335  NAD335     -0.0055
     22  C4A       -3.6910   11.3390   26.1460 C.2   335  NAD335      0.3518
     23  O3        -6.0470    9.3730   17.6640 O.3   335  NAD335     -0.2703
     24  PN        -7.0080   10.4130   16.9300 P.3   335  NAD335      0.2189
     25  O1N       -6.4390   11.7780   17.1390 O.3   335  NAD335     -0.4371
     26  O2N       -7.2990    9.9470   15.5390 O.2   335  NAD335     -0.5170
     27  O5D       -8.3650   10.2780   17.7630 O.3   335  NAD335     -0.3112
     28  C5D       -8.6240   10.9550   19.0120 C.3   335  NAD335      0.1813
     29  C4D      -10.1420   11.0200   19.1650 C.3   335  NAD335      0.1799
     30  O4D      -10.6950   11.7270   18.0240 O.3   335  NAD335     -0.3327
     31  C3D      -10.7760    9.6300   19.1240 C.3   335  NAD335      0.2158
     32  O3D      -11.9490    9.6030   19.9190 O.3   335  NAD335     -0.2175
     33  C2D      -11.2090    9.4380   17.6730 C.3   335  NAD335      0.2309
     34  O2D      -12.2820    8.4950   17.5570 O.3   335  NAD335     -0.2158
     35  C1D      -11.6170   10.8650   17.3380 C.3   335  NAD335      0.2263
     36  N1N      -11.6610   11.1710   15.8880 N.pl3 335  NAD335     -0.2787
     37  C2N      -10.6810   10.7040   14.9890 C.3   335  NAD335      0.1244
     38  C3N      -10.8100   11.0280   13.6360 C.2   335  NAD335      0.0544
     39  C7N       -9.7290   10.6280   12.6120 C.2   335  NAD335      0.2818
     40  O7N       -9.9990   10.5950   11.4070 O.2   335  NAD335     -0.2670
     41  N7N       -8.5820   10.1840   13.1090 N.am  335  NAD335     -0.0839
     42  C4N      -11.9080   11.7730   13.1760 C.2   335  NAD335      0.0033
     43  C5N      -12.8780   12.2170   14.0560 C.2   335  NAD335      0.0157
     44  C6N      -12.7370   11.9400   15.4050 C.2   335  NAD335      0.0633
@<TRIPOS>BOND
     1    40    39    2
     2    39    41   am
     3    39    38    1
     4    42    38    2
     5    42    43    1
     6    38    37    1
     7    43    44    2
     8    37    36    1
     9    44    36    1
    10    26    24    2
    11    36    35    1
    12    24    25    1
    13    24    23    1
    14    24    27    1
    15     3     1    2
    16    35    33    1
    17    35    30    1
    18    34    33    1
    19    23     1    1
    20    33    31    1
    21    27    28    1
    22    30    29    1
    23     1     2    1
    24     1     4    1
    25    28    29    1
    26    31    29    1
    27    31    32    1
    28     4     5    1
    29     5     6    1
    30     9     8    1
    31     6     8    1
    32     6     7    1
    33     8    10    1
    34     7    12    1
    35    10    11    1
    36    10    12    1
    37    12    13    1
    38    13    14    1
    39    13    22    1
    40    14    15    1
    41    22    21    2
    42    22    16    1
    43    21    20    1
    44    15    16    2
    45    16    17    1
    46    20    19    1
    47    17    19    2
    48    17    18    1
