@<TRIPOS>MOLECULE
1szk_PMP_A_1.pdb
 16 16 0 0 0
SMALL
GASTEIGER

@<TRIPOS>ATOM
      1  N1        35.0820   33.5310   27.4290 N.ar  750  PMP750     -0.2452
      2  C2        35.5920   32.4160   26.7370 C.ar  750  PMP750      0.0978
      3  C2A       34.7640   31.1440   26.8630 C.3   750  PMP750      0.0555
      4  C3        36.8780   32.5860   25.9510 C.ar  750  PMP750      0.2063
      5  O3        37.3310   31.5060   25.3080 O.3   750  PMP750     -0.2856
      6  C4        37.5510   33.8010   25.8970 C.ar  750  PMP750      0.0369
      7  C4A       38.8260   33.9680   25.1000 C.3   750  PMP750      0.1386
      8  N4A       40.1820   34.1530   25.7180 N.3   750  PMP750     -0.1261
      9  C5        36.9140   35.0200   26.7030 C.ar  750  PMP750      0.0275
     10  C6        35.7270   34.8090   27.4150 C.ar  750  PMP750      0.0965
     11  C5A       37.5590   36.3770   26.6980 C.3   750  PMP750      0.1816
     12  O4P       37.2580   37.0710   25.5040 O.3   750  PMP750     -0.2653
     13  P         38.1040   38.3320   25.1430 P.3   750  PMP750      0.5329
     14  O1P       37.4890   38.7850   23.8410 O.2   750  PMP750     -0.2224
     15  O2P       39.5170   37.8860   24.9560 O.3   750  PMP750     -0.1145
     16  O3P       38.0000   39.3390   26.2350 O.3   750  PMP750     -0.1145
@<TRIPOS>BOND
     1    14    13    2
     2    15    13    1
     3     7     8    1
     4     7     6    1
     5    13    12    1
     6    13    16    1
     7     5     4    1
     8    12    11    1
     9     6     4   ar
    10     6     9   ar
    11     4     2   ar
    12    11     9    1
    13     9    10   ar
    14     2     3    1
    15     2     1   ar
    16    10     1   ar
