@<TRIPOS>MOLECULE
1szm_BI4_A_1.pdb
 33 38 0 0 0
SMALL
GASTEIGER

@<TRIPOS>ATOM
      1  O32       48.3440   39.2310   43.9710 O.2   351  BI4351     -0.2086
      2  C18       49.5440   39.2690   44.2510 C.1   351  BI4351      0.2155
      3  C17       50.2000   38.7710   45.4560 C.2   351  BI4351      0.1056
      4  C16       49.4490   38.0950   46.5400 C.2   351  BI4351      0.0190
      5  C15       49.6990   38.0210   47.9770 C.3   351  BI4351      0.0866
      6  C14       50.7370   38.4940   48.8320 C.2   351  BI4351     -0.0160
      7  C13       50.6920   38.2160   50.2020 C.2   351  BI4351     -0.0038
      8  C12       49.6250   37.4770   50.7580 C.2   351  BI4351      0.0009
      9  C10       48.6540   37.2980   48.5730 C.2   351  BI4351      0.0668
     10  C11       48.5850   37.0110   49.9470 C.2   351  BI4351      0.0153
     11  N9        47.7350   36.9300   47.5740 N.2   351  BI4351     -0.2478
     12  C8        48.2550   37.4190   46.3450 C.2   351  BI4351      0.0956
     13  N19       50.4970   39.8680   43.3690 N.2   351  BI4351     -0.2576
     14  C20       51.7510   39.7230   44.0330 C.1   351  BI4351      0.2158
     15  O33       52.8100   40.1270   43.5370 O.2   351  BI4351     -0.2086
     16  C21       51.5480   39.0500   45.3150 C.2   351  BI4351      0.1085
     17  C22       52.6340   38.6680   46.2220 C.ar  351  BI4351      0.0313
     18  C7        52.7580   37.3660   46.6510 C.ar  351  BI4351      0.0766
     19  C23       53.8150   39.3620   46.6630 C.ar  351  BI4351      0.0180
     20  C5        54.6140   38.4480   47.3360 C.ar  351  BI4351      0.0599
     21  C4        55.8480   38.7950   47.9020 C.ar  351  BI4351      0.0172
     22  C3        56.2760   40.1170   47.7660 C.ar  351  BI4351      0.0015
     23  C2        55.4680   41.0620   47.0890 C.ar  351  BI4351      0.0001
     24  C1        54.2580   40.6860   46.5490 C.ar  351  BI4351      0.0015
     25  N6        53.9720   37.1860   47.3260 N.ar  351  BI4351     -0.3260
     26  C24       54.4350   35.9360   47.9350 C.3   351  BI4351      0.1075
     27  C25       53.8400   35.9220   49.3600 C.3   351  BI4351      0.0404
     28  C26       53.1370   34.6060   49.7490 C.3   351  BI4351      0.0595
     29  C27       51.9680   34.2280   48.8180 C.3   351  BI4351      0.0175
     30  C28       50.7120   34.1780   49.6960 C.3   351  BI4351      0.0187
     31  C29       51.2060   34.0390   51.1440 C.3   351  BI4351      0.0721
     32  N30       52.6130   34.5400   51.1430 N.3   351  BI4351     -0.2727
     33  C31       52.8760   35.7190   52.0040 C.3   351  BI4351      0.0896
@<TRIPOS>BOND
     1    13    14    2
     2    13     2    2
     3    15    14    2
     4     1     2    2
     5    14    16    1
     6     2     3    1
     7    16     3    2
     8    16    17    1
     9     3     4    1
    10    17    18   ar
    11    17    19   ar
    12    12     4    2
    13    12    11    1
    14     4     5    1
    15    24    19   ar
    16    24    23   ar
    17    18    25   ar
    18    19    20   ar
    19    23    22   ar
    20    25    20   ar
    21    25    26    1
    22    20    21   ar
    23    11     9    2
    24    22    21   ar
    25    26    27    1
    26     5     9    1
    27     5     6    1
    28     9    10    1
    29    29    30    1
    30    29    28    1
    31     6     7    2
    32    27    28    1
    33    30    31    1
    34    28    32    1
    35    10     8    2
    36     7     8    1
    37    32    31    1
    38    32    33    1
