@<TRIPOS>MOLECULE
1szn_NAG_A_1.pdb
 14 14 0 0 0
SMALL
GASTEIGER

@<TRIPOS>ATOM
      1  C1        17.4680   47.7150   66.1110 C.3   1500  NAG1500     0.1665
      2  C2        17.6740   46.6380   67.1880 C.3   1500  NAG1500     0.1576
      3  C3        19.1100   46.6140   67.7110 C.3   1500  NAG1500     0.2069
      4  C4        20.1790   46.6020   66.6290 C.3   1500  NAG1500     0.2134
      5  C5        19.7920   47.6880   65.6150 C.3   1500  NAG1500     0.1809
      6  C6        20.6920   47.7700   64.3830 C.3   1500  NAG1500     0.2141
      7  C7        15.6040   46.2020   68.4560 C.2   1500  NAG1500     0.2420
      8  C8        14.8250   46.5260   69.7100 C.3   1500  NAG1500     0.0964
      9  N2        16.7550   46.8420   68.2780 N.am  1500  NAG1500    -0.2019
     10  O3        19.2840   45.5090   68.5970 O.3   1500  NAG1500    -0.2184
     11  O4        21.3720   47.0450   67.2170 O.3   1500  NAG1500    -0.2176
     12  O5        18.4810   47.4960   65.1400 O.3   1500  NAG1500    -0.3489
     13  O6        20.7670   46.4920   63.7510 O.3   1500  NAG1500    -0.2176
     14  O7        15.1240   45.3950   67.6560 O.2   1500  NAG1500    -0.2733
@<TRIPOS>BOND
     1    13     6    1
     2     6     5    1
     3    12     5    1
     4    12     1    1
     5     5     4    1
     6     1     2    1
     7     4    11    1
     8     4     3    1
     9     2     3    1
    10     2     9    1
    11    14     7    2
    12     3    10    1
    13     9     7   am
    14     7     8    1
