@<TRIPOS>MOLECULE
1szn_MAN_A_1.pdb
 11 11 0 0 0
SMALL
GASTEIGER

@<TRIPOS>ATOM
      1  C1        -3.1440   16.5000   38.3540 C.3   1606  MAN1606     0.1777
      2  C2        -2.3070   17.3420   39.3350 C.3   1606  MAN1606     0.2141
      3  C3        -1.9900   18.6670   38.6690 C.3   1606  MAN1606     0.2173
      4  C4        -1.2860   18.4830   37.3340 C.3   1606  MAN1606     0.2142
      5  C5        -2.1240   17.5710   36.4650 C.3   1606  MAN1606     0.1810
      6  C6        -1.3230   17.1890   35.2190 C.3   1606  MAN1606     0.2141
      7  O2        -1.1340   16.6490   39.6600 O.3   1606  MAN1606    -0.2176
      8  O3        -1.1570   19.4550   39.4990 O.3   1606  MAN1606    -0.2175
      9  O4        -1.1960   19.7230   36.6620 O.3   1606  MAN1606    -0.2176
     10  O5        -2.5100   16.3750   37.1270 O.3   1606  MAN1606    -0.3481
     11  O6        -2.0450   16.2920   34.3700 O.3   1606  MAN1606    -0.2176
@<TRIPOS>BOND
     1    11     6    1
     2     6     5    1
     3     5    10    1
     4     5     4    1
     5     9     4    1
     6    10     1    1
     7     4     3    1
     8     1     2    1
     9     3     2    1
    10     3     8    1
    11     2     7    1
