@<TRIPOS>MOLECULE
1szo_CAX_A_1.pdb
 13 13 0 0 0
SMALL
GASTEIGER

@<TRIPOS>ATOM
      1  O3        17.3840  -18.1870   42.9930 O.co2 5001  CAX5001    -0.2457
      2  C10       18.0670  -17.7220   42.0520 C.2   5001  CAX5001     0.3649
      3  O2        18.7670  -16.7050   42.1530 O.co2 5001  CAX5001    -0.2457
      4  C9        18.1010  -18.4150   40.6990 C.3   5001  CAX5001     0.1141
      5  C1        19.0070  -19.6640   40.6430 C.3   5001  CAX5001     0.0139
      6  C2        20.4650  -19.5620   41.1590 C.3   5001  CAX5001     0.0030
      7  C8        21.2030  -18.2760   40.7600 C.3   5001  CAX5001     0.0001
      8  C7        21.2480  -20.7290   40.5300 C.3   5001  CAX5001     0.0001
      9  C3        20.3370  -19.7560   42.6840 C.3   5001  CAX5001     0.0305
     10  C6        21.5220  -20.2640   43.4860 C.3   5001  CAX5001     0.0026
     11  C4        19.0000  -20.4850   42.8890 C.3   5001  CAX5001     0.1519
     12  O1        18.8780  -21.5510   43.7960 O.3   5001  CAX5001    -0.2232
     13  C5        18.3850  -20.7480   41.5180 C.3   5001  CAX5001     0.0334
@<TRIPOS>BOND
     1     8     6    1
     2     5     4    1
     3     5     6    1
     4     5    13    1
     5     4     2    1
     6     7     6    1
     7     6     9    1
     8    13    11    1
     9     2     3   ar
    10     2     1   ar
    11     9    11    1
    12     9    10    1
    13    11    12    1
