@<TRIPOS>MOLECULE
1szr_ORX_B_1.pdb
 24 24 0 0 0
SMALL
GASTEIGER

@<TRIPOS>ATOM
      1  OA         1.7820  -11.7800   -6.7200 O.co2 571  ORX571     -0.2441
      2  CA         2.9590  -12.1310   -6.8670 C.2   571  ORX571      0.3803
      3  OXT        3.3940  -12.2910   -8.0100 O.co2 571  ORX571     -0.2441
      4  CAA        3.8580  -12.3910   -5.6470 C.3   571  ORX571      0.1761
      5  NA         3.2640  -13.5110   -4.9020 N.3   571  ORX571     -0.2034
      6  C4A        3.4980  -13.6380   -3.4460 C.3   571  ORX571      0.1186
      7  C4         3.0190  -15.0520   -3.1050 C.ar  571  ORX571      0.0353
      8  C5         1.7080  -15.3460   -2.7210 C.ar  571  ORX571      0.0275
      9  C6         1.3670  -16.6650   -2.4420 C.ar  571  ORX571      0.0965
     10  N1         2.2250  -17.6630   -2.5280 N.ar  571  ORX571     -0.2452
     11  C2         3.4870  -17.4260   -2.8970 C.ar  571  ORX571      0.0978
     12  C3         3.9020  -16.1250   -3.1910 C.ar  571  ORX571      0.2062
     13  O3         5.1840  -15.8830   -3.5570 O.3   571  ORX571     -0.2856
     14  C2A        4.4440  -18.5970   -2.9870 C.3   571  ORX571      0.0555
     15  C5A        0.5790  -14.3330   -2.5650 C.3   571  ORX571      0.1816
     16  OP4        0.1730  -13.7910   -3.8120 O.3   571  ORX571     -0.2653
     17  P         -1.1450  -12.8670   -3.9190 P.3   571  ORX571      0.5329
     18  OP1       -0.9940  -11.6460   -2.9340 O.3   571  ORX571     -0.1145
     19  OP2       -1.1160  -12.2210   -5.3920 O.2   571  ORX571     -0.2224
     20  OP3       -2.4110  -13.6290   -3.7310 O.3   571  ORX571     -0.1145
     21  CBA        3.9640  -11.1300   -4.7970 C.3   571  ORX571      0.0305
     22  CGA        5.2260  -10.3390   -5.1490 C.3   571  ORX571      0.0225
     23  CDA        5.1220   -8.9030   -4.6500 C.3   571  ORX571      0.1094
     24  NE         4.2980   -8.1100   -5.5680 N.3   571  ORX571     -0.1314
@<TRIPOS>BOND
     1     3     2   ar
     2     2     1   ar
     3     2     4    1
     4     4     5    1
     5     4    21    1
     6    24    23    1
     7    19    17    2
     8    22    21    1
     9    22    23    1
    10     5     6    1
    11    17    16    1
    12    17    20    1
    13    17    18    1
    14    16    15    1
    15    13    12    1
    16     6     7    1
    17    12     7   ar
    18    12    11   ar
    19     7     8   ar
    20    14    11    1
    21    11    10   ar
    22     8    15    1
    23     8     9   ar
    24    10     9   ar
