@<TRIPOS>MOLECULE
1szr_PLG_A_1.pdb
 20 20 0 0 0
SMALL
GASTEIGER

@<TRIPOS>ATOM
      1  N1        20.5720   17.6090   -2.5240 N.ar  572  PLG572     -0.2452
      2  C2        19.3130   17.3330   -2.8960 C.ar  572  PLG572      0.0978
      3  C2A       18.2880   18.4410   -3.0200 C.3   572  PLG572      0.0555
      4  C3        18.9350   16.0240   -3.1730 C.ar  572  PLG572      0.2062
      5  O3        17.6630   15.7540   -3.5410 O.3   572  PLG572     -0.2856
      6  C4        19.8420   14.9800   -3.0690 C.ar  572  PLG572      0.0353
      7  C4A       19.3880   13.5510   -3.3860 C.3   572  PLG572      0.1186
      8  C5        21.1410   15.3090   -2.6830 C.ar  572  PLG572      0.0275
      9  C6        21.4590   16.6370   -2.4200 C.ar  572  PLG572      0.0965
     10  C5A       22.2630   14.3060   -2.5230 C.3   572  PLG572      0.1816
     11  OP4       22.6770   13.8010   -3.7820 O.3   572  PLG572     -0.2653
     12  P         23.9450   12.8560   -3.9050 P.3   572  PLG572      0.5329
     13  OP1       23.7990   11.6490   -2.9030 O.3   572  PLG572     -0.1145
     14  OP2       23.8260   12.2120   -5.3720 O.2   572  PLG572     -0.2224
     15  OP3       25.2370   13.5520   -3.6780 O.3   572  PLG572     -0.1145
     16  C         20.3740   12.4340   -6.8040 C.2   572  PLG572      0.3823
     17  O         21.6070   12.4350   -6.8890 O.co2 572  PLG572     -0.2440
     18  OXT       19.7040   12.6430   -7.8170 O.co2 572  PLG572     -0.2440
     19  CA        19.6750   12.1860   -5.4590 C.3   572  PLG572      0.2032
     20  N         19.2860   13.4730   -4.8660 N.3   572  PLG572     -0.2017
@<TRIPOS>BOND
     1    18    16   ar
     2    17    16   ar
     3    16    19    1
     4    19    20    1
     5    14    12    2
     6    20     7    1
     7    12    11    1
     8    12    15    1
     9    12    13    1
    10    11    10    1
    11     5     4    1
    12     7     6    1
    13     4     6   ar
    14     4     2   ar
    15     6     8   ar
    16     3     2    1
    17     2     1   ar
    18     8    10    1
    19     8     9   ar
    20     1     9   ar
