@<TRIPOS>MOLECULE
1szr_PXP_C_1.pdb
 16 16 0 0 0
SMALL
GASTEIGER

@<TRIPOS>ATOM
      1  N1        20.9750    4.1820   41.9860 N.ar  575  PXP575     -0.2452
      2  C2        19.8140    4.7370   42.3460 C.ar  575  PXP575      0.0979
      3  C2A       18.5880    3.8590   42.4640 C.3   575  PXP575      0.0555
      4  C3        19.7350    6.1020   42.6040 C.ar  575  PXP575      0.2073
      5  O3        18.5670    6.6740   42.9700 O.3   575  PXP575     -0.2856
      6  C4        20.8480    6.9100   42.4900 C.ar  575  PXP575      0.0506
      7  C4A       20.7500    8.4010   42.7780 C.3   575  PXP575      0.2116
      8  O4A       20.8010    8.6140   44.2010 O.3   575  PXP575     -0.2151
      9  C5        22.0340    6.2920   42.1050 C.ar  575  PXP575      0.0286
     10  C6        22.0480    4.9270   41.8670 C.ar  575  PXP575      0.0966
     11  C5A       23.3600    7.0190   41.9450 C.3   575  PXP575      0.1816
     12  O4P       23.8830    7.3790   43.2130 O.3   575  PXP575     -0.2653
     13  P         25.3970    7.8740   43.2750 P.3   575  PXP575      0.5329
     14  O1P       25.5460    9.0870   42.2520 O.2   575  PXP575     -0.2224
     15  O2P       25.6490    8.5010   44.7030 O.3   575  PXP575     -0.1145
     16  O3P       26.3510    6.7770   42.9740 O.3   575  PXP575     -0.1145
@<TRIPOS>BOND
     1    10     1   ar
     2    10     9   ar
     3    11     9    1
     4    11    12    1
     5     1     2   ar
     6     9     6   ar
     7    14    13    2
     8     2     3    1
     9     2     4   ar
    10     6     4   ar
    11     6     7    1
    12     4     5    1
    13     7     8    1
    14    16    13    1
    15    12    13    1
    16    13    15    1
