@<TRIPOS>MOLECULE
1szs_PMP_A_1.pdb
 16 16 0 0 0
SMALL
GASTEIGER

@<TRIPOS>ATOM
      1  N1        35.2390   33.6770   27.4630 N.ar  1271  PMP1271    -0.2452
      2  C2        35.8260   32.6390   26.7620 C.ar  1271  PMP1271     0.0978
      3  C2A       35.1170   31.2860   26.8760 C.3   1271  PMP1271     0.0555
      4  C3        37.0640   32.9240   25.9820 C.ar  1271  PMP1271     0.2063
      5  O3        37.5890   31.8870   25.3250 O.3   1271  PMP1271    -0.2856
      6  C4        37.6320   34.1800   25.9390 C.ar  1271  PMP1271     0.0369
      7  C4A       38.8770   34.4840   25.1610 C.3   1271  PMP1271     0.1386
      8  N4A       40.0220   33.5340   25.1430 N.3   1271  PMP1271    -0.1261
      9  C5        36.9240   35.3110   26.7480 C.ar  1271  PMP1271     0.0275
     10  C6        35.7750   34.9940   27.4590 C.ar  1271  PMP1271     0.0965
     11  C5A       37.4900   36.7150   26.7430 C.3   1271  PMP1271     0.1816
     12  O4P       37.3160   37.3100   25.4740 O.3   1271  PMP1271    -0.2653
     13  P         38.2400   38.4850   25.0270 P.3   1271  PMP1271     0.5329
     14  O1P       37.7270   38.8020   23.6750 O.2   1271  PMP1271    -0.2224
     15  O2P       39.6430   37.9580   25.0000 O.3   1271  PMP1271    -0.1145
     16  O3P       38.1100   39.6130   25.9560 O.3   1271  PMP1271    -0.1145
@<TRIPOS>BOND
     1    14    13    2
     2    15    13    1
     3    13    12    1
     4    13    16    1
     5     8     7    1
     6     7     6    1
     7     5     4    1
     8    12    11    1
     9     6     4   ar
    10     6     9   ar
    11     4     2   ar
    12    11     9    1
    13     9    10   ar
    14     2     3    1
    15     2     1   ar
    16    10     1   ar
