@<TRIPOS>MOLECULE
1szs_PLP_A_1.pdb
 15 15 0 0 0
SMALL
GASTEIGER

@<TRIPOS>ATOM
      1  N1        35.3360   33.7540   27.4620 N.2   1261  PLP1261    -0.2505
      2  C2        35.7430   32.6260   26.7150 C.2   1261  PLP1261     0.0675
      3  C2A       34.9720   31.3580   26.7460 C.3   1261  PLP1261     0.0499
      4  C3        36.9110   32.7630   25.9180 C.3   1261  PLP1261     0.1913
      5  O3        37.4810   31.6250   25.3920 O.3   1261  PLP1261    -0.2167
      6  C4        37.5300   33.9810   25.8490 C.3   1261  PLP1261     0.0581
      7  C4A       38.4350   34.1000   24.6810 C.3   1261  PLP1261     0.0075
      8  C5        37.1150   35.0890   26.6090 C.2   1261  PLP1261     0.0073
      9  C6        35.9690   34.9780   27.4420 C.2   1261  PLP1261     0.0921
     10  C5A       37.7310   36.4260   26.7470 C.3   1261  PLP1261     0.1776
     11  O4P       37.4040   37.2530   25.6090 O.3   1261  PLP1261    -0.2656
     12  P         38.3040   38.3530   25.1350 P.3   1261  PLP1261     0.5329
     13  O1P       37.7780   39.0960   23.8650 O.2   1261  PLP1261    -0.2224
     14  O2P       39.8880   37.9090   25.0140 O.3   1261  PLP1261    -0.1145
     15  O3P       38.3470   39.4800   26.2920 O.3   1261  PLP1261    -0.1145
@<TRIPOS>BOND
     1    13    12    2
     2     7     6    1
     3    14    12    1
     4    12    11    1
     5    12    15    1
     6     5     4    1
     7    11    10    1
     8     6     4    1
     9     6     8    1
    10     4     2    1
    11     8    10    1
    12     8     9    2
    13     2     3    1
    14     2     1    2
    15     9     1    1
