@<TRIPOS>MOLECULE
1szu_PLP_A_1.pdb
 15 15 0 0 0
SMALL
GASTEIGER

@<TRIPOS>ATOM
      1  N1        35.3230   33.7710   27.3210 N.2   1466  PLP1466    -0.2505
      2  C2        35.8130   32.5970   26.6960 C.2   1466  PLP1466     0.0675
      3  C2A       35.1020   31.3110   26.8900 C.3   1466  PLP1466     0.0499
      4  C3        36.9720   32.7310   25.8290 C.3   1466  PLP1466     0.1913
      5  O3        37.5070   31.6090   25.2000 O.3   1466  PLP1466    -0.2167
      6  C4        37.5170   33.9880   25.6330 C.3   1466  PLP1466     0.0581
      7  C4A       38.2970   34.0160   24.3870 C.3   1466  PLP1466     0.0075
      8  C5        37.0410   35.1410   26.2720 C.2   1466  PLP1466     0.0073
      9  C6        35.8950   35.0410   27.1340 C.2   1466  PLP1466     0.0921
     10  C5A       37.7500   36.4580   26.4300 C.3   1466  PLP1466     0.1776
     11  O4P       37.4940   37.3750   25.3480 O.3   1466  PLP1466    -0.2656
     12  P         38.4110   38.5370   25.0690 P.3   1466  PLP1466     0.5329
     13  O1P       37.8780   39.2260   23.6670 O.2   1466  PLP1466    -0.2224
     14  O2P       39.9160   37.9680   24.8380 O.3   1466  PLP1466    -0.1145
     15  O3P       38.4020   39.6180   26.2820 O.3   1466  PLP1466    -0.1145
@<TRIPOS>BOND
     1    13    12    2
     2     7     6    1
     3    14    12    1
     4    12    11    1
     5    12    15    1
     6     5     4    1
     7    11    10    1
     8     6     4    1
     9     6     8    1
    10     4     2    1
    11     8    10    1
    12     8     9    2
    13     2     3    1
    14     2     1    2
    15     9     1    1
