@<TRIPOS>MOLECULE
1szu_PMP_A_1.pdb
 16 16 0 0 0
SMALL
GASTEIGER

@<TRIPOS>ATOM
      1  N1        35.2790   33.8100   27.3510 N.ar  1566  PMP1566    -0.2452
      2  C2        35.8810   32.7230   26.6730 C.ar  1566  PMP1566     0.0978
      3  C2A       35.1250   31.3920   26.7840 C.3   1566  PMP1566     0.0555
      4  C3        37.1850   32.9750   25.9250 C.ar  1566  PMP1566     0.2063
      5  O3        37.7190   31.9120   25.2970 O.3   1566  PMP1566    -0.2856
      6  C4        37.7910   34.2490   25.8970 C.ar  1566  PMP1566     0.0369
      7  C4A       39.0940   34.5250   25.1610 C.3   1566  PMP1566     0.1386
      8  N4A       40.0110   33.4260   24.7000 N.3   1566  PMP1566    -0.1261
      9  C5        37.0510   35.4300   26.6870 C.ar  1566  PMP1566     0.0275
     10  C6        35.8480   35.1380   27.3590 C.ar  1566  PMP1566     0.0965
     11  C5A       37.6230   36.8440   26.7210 C.3   1566  PMP1566     0.1816
     12  O4P       37.4200   37.5550   25.5130 O.3   1566  PMP1566    -0.2653
     13  P         38.4010   38.7350   25.1450 P.3   1566  PMP1566     0.5329
     14  O1P       37.8480   39.2100   23.8240 O.2   1566  PMP1566    -0.2224
     15  O2P       39.7670   38.1400   25.0050 O.3   1566  PMP1566    -0.1145
     16  O3P       38.3760   39.7780   26.1930 O.3   1566  PMP1566    -0.1145
@<TRIPOS>BOND
     1    14    13    2
     2     8     7    1
     3    15    13    1
     4    13    12    1
     5    13    16    1
     6     7     6    1
     7     5     4    1
     8    12    11    1
     9     6     4   ar
    10     6     9   ar
    11     4     2   ar
    12     2     3    1
    13     2     1   ar
    14     9    11    1
    15     9    10   ar
    16     1    10   ar
