@<TRIPOS>MOLECULE
1szz_BB2_A_1.pdb
 27 27 0 0 0
SMALL
GASTEIGER

@<TRIPOS>ATOM
      1  C5        17.5550    0.4130   26.2540 C.3   513  BB2513      0.0995
      2  C3        16.8470    0.5020   27.6290 C.2   513  BB2513      0.2842
      3  O4        17.5740    0.5030   28.6200 O.2   513  BB2513     -0.2698
      4  N1        15.5300    0.5770   27.7200 N.am  513  BB2513      0.0385
      5  O2        14.9210    0.6430   28.7790 O.2   513  BB2513     -0.1531
      6  C6        18.3210   -0.9680   26.1360 C.3   513  BB2513      0.0874
      7  C12       19.6820   -0.9420   25.4260 C.2   513  BB2513      0.2418
      8  O13       19.9490   -0.1800   24.5300 O.2   513  BB2513     -0.2733
      9  C7        17.3970   -1.9370   25.3190 C.3   513  BB2513      0.0096
     10  C8        18.0800   -3.3250   25.1940 C.3   513  BB2513      0.0005
     11  C9        17.2900   -4.3460   24.4170 C.3   513  BB2513      0.0000
     12  C10       15.8050   -4.3820   24.7260 C.3   513  BB2513      0.0000
     13  C11       15.2300   -5.7360   24.5480 C.3   513  BB2513      0.0000
     14  N14       20.5250   -1.8390   25.8790 N.am  513  BB2513     -0.1978
     15  C15       21.8800   -2.1150   25.4590 C.3   513  BB2513      0.1712
     16  C16       22.8840   -1.5500   26.5090 C.3   513  BB2513      0.0289
     17  C18       22.8220   -0.0360   26.5940 C.3   513  BB2513      0.0023
     18  C17       24.3140   -1.9870   26.1530 C.3   513  BB2513      0.0023
     19  C19       21.9150   -3.6510   25.3510 C.2   513  BB2513      0.2458
     20  O20       21.8210   -4.2930   26.3770 O.2   513  BB2513     -0.2730
     21  N21       22.0330   -4.2490   24.1480 N.am  513  BB2513     -0.2727
     22  C22       22.0450   -5.7260   23.9810 C.3   513  BB2513      0.1402
     23  C23       22.1520   -3.5500   22.8310 C.3   513  BB2513      0.0939
     24  C24       22.2480   -4.6940   21.8310 C.3   513  BB2513      0.0237
     25  C25       21.6630   -5.9020   22.5100 C.3   513  BB2513      0.0296
     26  C26       23.3740   -6.4140   24.2510 C.2   513  BB2513      0.2269
     27  O27       23.4390   -7.6370   23.9220 O.2   513  BB2513     -0.2865
@<TRIPOS>BOND
     1    24    25    1
     2    24    23    1
     3    25    22    1
     4    23    21    1
     5    27    26    2
     6    22    21    1
     7    22    26    1
     8    21    19   am
     9    11    12    1
    10    11    10    1
    11     8     7    2
    12    13    12    1
    13    10     9    1
    14     9     6    1
    15    19    15    1
    16    19    20    2
    17     7    14   am
    18     7     6    1
    19    15    14    1
    20    15    16    1
    21     6     1    1
    22    18    16    1
    23     1     2    1
    24    16    17    1
    25     2     4    1
    26     2     3    2
    27     4     5    2
