@<TRIPOS>MOLECULE
1t02_LVA_A_1.pdb
 30 31 0 0 0
SMALL
GASTEIGER

@<TRIPOS>ATOM
      1  O1        86.9090  124.0950  109.8380 O.co2 429  LVA429     -0.2456
      2  O2        86.5070  128.1700  108.1140 O.3   429  LVA429     -0.2225
      3  O3        86.8640  123.8040  107.7070 O.co2 429  LVA429     -0.2456
      4  O8        84.7880  129.2270  110.4080 O.3   429  LVA429     -0.2231
      5  O4        80.8410  127.6680  105.5660 O.3   429  LVA429     -0.4519
      6  C5        79.0540  124.9950  108.3780 C.2   429  LVA429     -0.0091
      7  C6        78.8560  126.1600  107.5450 C.2   429  LVA429     -0.0236
      8  C7        84.2570  128.1940  109.5220 C.3   429  LVA429      0.1546
      9  C8        79.8750  124.9400  109.4290 C.2   429  LVA429     -0.0268
     10  C9        79.6320  127.4310  107.9580 C.3   429  LVA429      0.0624
     11  C10       86.9670  124.5660  108.5900 C.2   429  LVA429      0.3674
     12  C11       80.6770  126.1430  109.8120 C.3   429  LVA429      0.0224
     13  C12       80.9620  127.0090  108.5790 C.3   429  LVA429      0.0116
     14  C13       85.9380  126.8540  108.3480 C.3   429  LVA429      0.1658
     15  C14       78.0290  126.1560  106.5150 C.2   429  LVA429     -0.0305
     16  C15       79.9640  128.2090  106.6240 C.3   429  LVA429      0.1730
     17  C16       82.8270  127.9870  109.9660 C.3   429  LVA429      0.0330
     18  C17       85.1180  126.9360  109.6090 C.3   429  LVA429      0.0663
     19  C18       81.8260  128.2570  108.8570 C.3   429  LVA429      0.0034
     20  C19       78.6120  128.5870  106.0180 C.3   429  LVA429      0.0483
     21  C20       79.9180  126.8660  110.9080 C.3   429  LVA429      0.0047
     22  C21       87.0770  125.9530  108.4120 C.3   429  LVA429      0.1469
     23  C22       77.8230  127.3390  105.6090 C.3   429  LVA429      0.0253
     24  C23       78.1440  126.9390  104.1140 C.3   429  LVA429      0.0048
     25  C24       81.8790  128.3530  105.0450 C.2   429  LVA429      0.3163
     26  C25       82.7540  127.5030  104.1740 C.3   429  LVA429      0.0991
     27  O26       82.0590  129.5320  105.2950 O.2   429  LVA429     -0.2501
     28  C27       82.3640  127.5280  102.7170 C.3   429  LVA429      0.0111
     29  C28       82.6650  126.0870  104.7390 C.3   429  LVA429      0.0116
     30  C29       83.1140  126.5800  101.8410 C.3   429  LVA429      0.0006
@<TRIPOS>BOND
     1    30    28    1
     2    28    26    1
     3    24    23    1
     4    26    29    1
     5    26    25    1
     6    25    27    2
     7    25     5    1
     8     5    16    1
     9    23    20    1
    10    23    15    1
    11    20    16    1
    12    15     7    2
    13    16    10    1
    14     7    10    1
    15     7     6    1
    16     3    11   ar
    17    10    13    1
    18     2    14    1
    19    14    22    1
    20    14    18    1
    21     6     9    2
    22    22    11    1
    23    13    19    1
    24    13    12    1
    25    11     1   ar
    26    19    17    1
    27     9    12    1
    28     8    18    1
    29     8    17    1
    30     8     4    1
    31    12    21    1
