@<TRIPOS>MOLECULE
1t05_TNV_A_1.pdb
 27 28 0 0 0
SMALL
GASTEIGER

@<TRIPOS>ATOM
      1  PA        70.1210   57.5750  -63.9650 P.3   823  TNV823      0.4035
      2  O1A       71.1750   56.5450  -63.4740 O.2   823  TNV823     -0.2526
      3  O2A       70.0000   58.7340  -62.9510 O.3   823  TNV823     -0.1374
      4  O3A       70.5840   58.1370  -65.3280 O.3   823  TNV823     -0.2466
      5  PB        71.0720   57.1440  -66.4830 P.3   823  TNV823      0.2296
      6  O1B       70.1850   57.3600  -67.7480 O.2   823  TNV823     -0.5167
      7  O2B       70.9350   55.7000  -65.9620 O.3   823  TNV823     -0.4368
      8  O3B       72.5790   57.4290  -66.8610 O.3   823  TNV823     -0.2258
      9  PG        73.7730   57.2750  -65.8020 P.3   823  TNV823      0.5373
     10  O1G       73.8280   55.8870  -65.3200 O.3   823  TNV823     -0.1143
     11  O2G       75.0680   57.6030  -66.4670 O.2   823  TNV823     -0.2221
     12  O3G       73.5520   58.2270  -64.5790 O.3   823  TNV823     -0.1143
     13  C9'       68.5450   56.7430  -64.0660 C.3   823  TNV823      0.2606
     14  O9'       68.1050   56.7390  -65.3640 O.3   823  TNV823     -0.3403
     15  C8'       67.4740   58.8520  -66.3590 C.3   823  TNV823      0.0365
     16  C7'       66.9630   57.5710  -65.6550 C.3   823  TNV823      0.1627
     17  C6'       66.0320   57.8900  -64.3860 C.3   823  TNV823      0.2336
     18  N9        65.8520   59.3040  -64.1350 N.pl3 823  TNV823     -0.1652
     19  C4        65.0320   60.2040  -64.7850 C.2   823  TNV823      0.3501
     20  N3        64.1950   59.9300  -65.8280 N.2   823  TNV823     -0.0055
     21  C2        63.5460   61.0490  -66.2380 C.3   823  TNV823      0.5254
     22  N1        63.6470   62.3250  -65.7430 N.2   823  TNV823      0.0021
     23  C6        64.4980   62.5700  -64.6920 C.2   823  TNV823      0.4393
     24  N6        64.5720   63.8250  -64.2420 N.pl3 823  TNV823      0.2180
     25  C5        65.2500   61.4490  -64.1580 C.2   823  TNV823      0.2525
     26  N7        66.1840   61.3110  -63.1250 N.2   823  TNV823     -0.2096
     27  C8        66.5070   60.0230  -63.1540 C.3   823  TNV823      0.3359
@<TRIPOS>BOND
     1     6     5    2
     2     8     5    1
     3     8     9    1
     4     5     7    1
     5     5     4    1
     6    11     9    2
     7    15    16    1
     8    21    20    1
     9    21    22    1
    10    20    19    2
    11     9    10    1
    12     9    12    1
    13    22    23    2
    14    16    14    1
    15    16    17    1
    16    14    13    1
    17     4     1    1
    18    19    25    1
    19    19    18    1
    20    23    24    1
    21    23    25    1
    22    17    18    1
    23    25    26    2
    24    18    27    1
    25    13     1    1
    26     1     2    2
    27     1     3    1
    28    27    26    1
