@<TRIPOS>MOLECULE
1t09_NAP_A_1.pdb
 48 52 0 0 0
SMALL
GASTEIGER

@<TRIPOS>ATOM
      1  PA        53.7050   17.7010  -15.1370 P.3   415  NAP415      0.2189
      2  O1A       52.8770   16.7800  -14.3150 O.3   415  NAP415     -0.4371
      3  O2A       53.9740   17.2920  -16.5030 O.2   415  NAP415     -0.5170
      4  O5B       55.0650   17.9040  -14.2310 O.3   415  NAP415     -0.3112
      5  C5B       55.1880   19.0910  -13.3750 C.3   415  NAP415      0.1813
      6  C4B       56.7130   19.1060  -13.0390 C.3   415  NAP415      0.1820
      7  O4B       57.1960   17.7570  -12.9790 O.3   415  NAP415     -0.3136
      8  C3B       57.5440   19.7810  -14.1470 C.3   415  NAP415      0.2157
      9  O3B       57.4340   21.2010  -13.9520 O.3   415  NAP415     -0.2175
     10  C2B       58.9280   19.0990  -13.8090 C.3   415  NAP415      0.2314
     11  O2B       59.5900   19.6460  -12.6320 O.3   415  NAP415     -0.2630
     12  C1B       58.5290   17.6850  -13.4650 C.3   415  NAP415      0.3158
     13  N9A       58.5200   16.7720  -14.6170 N.pl3 415  NAP415     -0.1439
     14  C8A       57.4100   16.1180  -15.1160 C.3   415  NAP415      0.3377
     15  N7A       57.6750   15.3460  -16.1650 N.2   415  NAP415     -0.2095
     16  C5A       59.0270   15.5330  -16.3180 C.2   415  NAP415      0.2526
     17  C6A       59.9150   14.9570  -17.2940 C.2   415  NAP415      0.4393
     18  N6A       59.4240   14.1160  -18.2050 N.pl3 415  NAP415      0.2180
     19  N1A       61.2170   15.3290  -17.1950 N.2   415  NAP415      0.0021
     20  C2A       61.6290   16.2050  -16.2160 C.3   415  NAP415      0.5254
     21  N3A       60.8910   16.7910  -15.2740 N.2   415  NAP415     -0.0055
     22  C4A       59.5720   16.3880  -15.4040 C.2   415  NAP415      0.3518
     23  O3        53.0860   19.0740  -15.1920 O.3   415  NAP415     -0.2703
     24  PN        51.8890   19.9670  -14.7300 P.3   415  NAP415      0.2189
     25  O1N       50.9110   19.2680  -13.8970 O.3   415  NAP415     -0.4371
     26  O2N       52.3270   21.2050  -14.0870 O.2   415  NAP415     -0.5170
     27  O5D       51.2330   20.3050  -16.2110 O.3   415  NAP415     -0.3112
     28  C5D       49.9420   20.9260  -16.2290 C.3   415  NAP415      0.1813
     29  C4D       49.2930   20.5320  -17.5660 C.3   415  NAP415      0.1799
     30  O4D       49.6000   19.1020  -17.8260 O.3   415  NAP415     -0.3327
     31  C3D       47.7770   20.6480  -17.5960 C.3   415  NAP415      0.2158
     32  O3D       47.3410   21.1480  -18.8840 O.3   415  NAP415     -0.2175
     33  C2D       47.3490   19.2130  -17.2840 C.3   415  NAP415      0.2309
     34  O2D       46.0090   18.9910  -17.7240 O.3   415  NAP415     -0.2158
     35  C1D       48.3900   18.3690  -17.9990 C.3   415  NAP415      0.2263
     36  N1N       48.5300   16.9890  -17.4040 N.pl3 415  NAP415     -0.2787
     37  C2N       48.2200   15.9440  -18.3750 C.3   415  NAP415      0.1244
     38  C3N       48.3180   14.6180  -17.9110 C.2   415  NAP415      0.0544
     39  C7N       47.9790   13.4660  -18.9720 C.2   415  NAP415      0.2818
     40  O7N       48.0620   12.3160  -18.5930 O.2   415  NAP415     -0.2670
     41  N7N       47.6190   13.8120  -20.2310 N.am  415  NAP415     -0.0839
     42  C4N       48.6980   14.2270  -16.5640 C.2   415  NAP415      0.0033
     43  C5N       48.9830   15.3750  -15.6810 C.2   415  NAP415      0.0157
     44  C6N       48.9050   16.6820  -16.0720 C.2   415  NAP415      0.0633
     45  P2B       60.6770   20.9420  -12.8360 P.3   415  NAP415      0.5328
     46  O1X       61.0960   21.1190  -11.3820 O.3   415  NAP415     -0.1145
     47  O2X       61.6210   20.3540  -13.7840 O.2   415  NAP415     -0.2224
     48  O3X       59.8070   21.9950  -13.3710 O.3   415  NAP415     -0.1145
@<TRIPOS>BOND
     1    41    39   am
     2    39    40    2
     3    39    38    1
     4    32    31    1
     5    37    38    1
     6    37    36    1
     7    18    17    1
     8    35    30    1
     9    35    36    1
    10    35    33    1
    11    38    42    2
    12    30    29    1
    13    34    33    1
    14    31    29    1
    15    31    33    1
    16    29    28    1
    17    36    44    1
    18    17    19    2
    19    17    16    1
    20    19    20    1
    21    42    43    1
    22     3     1    2
    23    16    15    2
    24    16    22    1
    25    28    27    1
    26    20    21    1
    27    27    24    1
    28    15    14    1
    29    44    43    2
    30    22    21    2
    31    22    13    1
    32    23     1    1
    33    23    24    1
    34     1     2    1
    35     1     4    1
    36    14    13    1
    37    24    26    2
    38    24    25    1
    39    13    12    1
    40     4     5    1
    41     8     9    1
    42     8    10    1
    43     8     6    1
    44    10    12    1
    45    10    11    1
    46    47    45    2
    47    12     7    1
    48     5     6    1
    49    48    45    1
    50     6     7    1
    51    45    11    1
    52    45    46    1
