@<TRIPOS>MOLECULE
1t0a_FPP_A_1.pdb
 24 23 0 0 0
SMALL
GASTEIGER

@<TRIPOS>ATOM
      1  C1        98.5110   -5.1640    2.3850 C.3   1831  FPP1831     0.1747
      2  O1        99.4230   -5.6540    1.3330 O.3   1831  FPP1831    -0.3089
      3  C2        98.4510   -3.6670    2.5640 C.2   1831  FPP1831    -0.0024
      4  C3        98.1340   -3.0490    3.7570 C.2   1831  FPP1831    -0.0454
      5  C4        97.8110   -3.6730    5.0990 C.3   1831  FPP1831     0.0261
      6  C5        98.0820   -1.5450    3.8090 C.3   1831  FPP1831     0.0264
      7  C6        96.7140   -1.0910    3.3380 C.3   1831  FPP1831     0.0297
      8  C7        95.5430   -1.4390    4.2370 C.2   1831  FPP1831    -0.0342
      9  C8        94.6550   -2.4430    4.0140 C.2   1831  FPP1831    -0.0478
     10  C10       94.7140   -3.4080    2.8400 C.3   1831  FPP1831     0.0260
     11  C9        93.5120   -2.5780    4.9850 C.3   1831  FPP1831     0.0263
     12  C11       93.6260   -3.6820    6.0260 C.3   1831  FPP1831     0.0297
     13  C12       94.0660   -4.9650    5.3870 C.2   1831  FPP1831    -0.0342
     14  C13       95.0640   -5.7230    5.8870 C.2   1831  FPP1831    -0.0478
     15  C14       95.3920   -6.9600    5.1380 C.3   1831  FPP1831     0.0260
     16  C15       95.8630   -5.4080    7.1310 C.3   1831  FPP1831     0.0260
     17  PA        99.1580   -7.1860    1.1410 P.3   1831  FPP1831     0.2233
     18  O1A       99.3190   -7.9110    2.4840 O.3   1831  FPP1831    -0.4370
     19  O2A       97.8240   -7.4510    0.4690 O.2   1831  FPP1831    -0.5169
     20  O3A      100.4050   -7.4090    0.1960 O.3   1831  FPP1831    -0.2261
     21  PB       101.0780   -8.7190   -0.4600 P.3   1831  FPP1831     0.5373
     22  O1B      100.5380  -10.1050   -0.2110 O.3   1831  FPP1831    -0.1143
     23  O2B      102.4860   -8.5060    0.0810 O.3   1831  FPP1831    -0.1143
     24  O3B      100.9580   -8.3160   -1.9710 O.2   1831  FPP1831    -0.2221
@<TRIPOS>BOND
     1    24    21    2
     2    21    22    1
     3    21    23    1
     4    21    20    1
     5    20    17    1
     6    19    17    2
     7    17     2    1
     8    17    18    1
     9     2     1    1
    10     1     3    1
    11     3     4    2
    12    10     9    1
    13     7     6    1
    14     7     8    1
    15     4     6    1
    16     4     5    1
    17     9     8    2
    18     9    11    1
    19    11    12    1
    20    15    14    1
    21    13    14    2
    22    13    12    1
    23    14    16    1
