@<TRIPOS>MOLECULE
1t0i_FMN_A_1.pdb
 31 33 0 0 0
SMALL
GASTEIGER

@<TRIPOS>ATOM
      1  N1        39.3510   97.9270    1.8250 N.2   200  FMN200     -0.2887
      2  C2        39.1990   99.2850    2.0130 C.1   200  FMN200      0.3669
      3  O2        40.1870  100.0070    2.1300 O.2   200  FMN200     -0.1744
      4  N3        37.9400   99.8430    2.0720 N.2   200  FMN200     -0.2300
      5  C4        36.8230   99.0460    1.9420 C.1   200  FMN200      0.2513
      6  O4        35.7250   99.5720    1.7710 O.2   200  FMN200     -0.2057
      7  C4A       36.9740   97.6780    1.7510 C.2   200  FMN200      0.2706
      8  N5        35.8680   96.8700    1.6190 N.2   200  FMN200     -0.3841
      9  C5A       36.0090   95.5130    1.4260 C.2   200  FMN200      0.1452
     10  C6        34.8730   94.7260    1.3180 C.2   200  FMN200      0.0252
     11  C7        34.9920   93.3600    1.1080 C.2   200  FMN200     -0.0375
     12  C7M       33.7530   92.5390    1.3430 C.3   200  FMN200      0.0268
     13  C8        36.2540   92.7650    1.0620 C.3   200  FMN200      0.0417
     14  C8M       36.3860   91.3850    1.6410 C.3   200  FMN200      0.0091
     15  C9        37.3860   93.5690    1.1790 C.2   200  FMN200     -0.0049
     16  C9A       37.2710   94.9430    1.3720 C.2   200  FMN200      0.0795
     17  N10       38.3880   95.7560    1.4990 N.pl3 200  FMN200     -0.2545
     18  C10       38.2410   97.1170    1.6930 C.2   200  FMN200      0.2449
     19  C1'       39.7710   95.2070    1.3100 C.3   200  FMN200      0.1336
     20  C2'       40.2980   94.8180    2.6830 C.3   200  FMN200      0.2048
     21  O2'       41.0240   95.9010    3.2210 O.3   200  FMN200     -0.2185
     22  C3'       41.1890   93.5800    2.6390 C.3   200  FMN200      0.2165
     23  O3'       40.5300   92.5160    1.9890 O.3   200  FMN200     -0.2175
     24  C4'       41.5760   93.1420    4.0480 C.3   200  FMN200      0.2147
     25  O4'       42.4320   92.0240    3.9670 O.3   200  FMN200     -0.2176
     26  C5'       40.3490   92.7890    4.8830 C.3   200  FMN200      0.1892
     27  O5'       40.7460   92.4470    6.1880 O.3   200  FMN200     -0.2674
     28  P         40.8040   90.9030    6.6270 P.3   200  FMN200      0.5327
     29  O1P       41.3360   90.8260    8.0040 O.3   200  FMN200     -0.1145
     30  O2P       39.3910   90.2960    6.5840 O.3   200  FMN200     -0.1145
     31  O3P       41.7310   90.1480    5.6600 O.2   200  FMN200     -0.2224
@<TRIPOS>BOND
     1    13    11    1
     2    13    15    1
     3    13    14    1
     4    11    10    2
     5    11    12    1
     6    15    16    2
     7    19    17    1
     8    19    20    1
     9    10     9    1
    10    16     9    1
    11    16    17    1
    12     9     8    2
    13    17    18    1
    14     8     7    2
    15    18     7    1
    16    18     1    2
    17     7     5    1
    18     6     5    2
    19     1     2    2
    20     5     4    2
    21    23    22    1
    22     2     4    2
    23     2     3    2
    24    22    20    1
    25    22    24    1
    26    20    21    1
    27    25    24    1
    28    24    26    1
    29    26    27    1
    30    31    28    2
    31    27    28    1
    32    30    28    1
    33    28    29    1
