@<TRIPOS>MOLECULE
1t0k_MTT_A_1.pdb
 45 48 0 0 0
SMALL
GASTEIGER

@<TRIPOS>ATOM
      1  O14        1.8800   60.0550   37.7840 O.3   381  MTT381     -0.2176
      2  C14        3.0440   59.6420   37.1200 C.3   381  MTT381      0.2144
      3  C13        2.9920   58.1060   36.9130 C.3   381  MTT381      0.2198
      4  O13        2.8280   57.4300   38.1530 O.3   381  MTT381     -0.2174
      5  C12        4.2840   57.6910   36.1920 C.3   381  MTT381      0.2406
      6  O12        4.3570   56.2820   35.9360 O.3   381  MTT381     -0.2149
      7  C11        4.5080   58.4290   34.8690 C.3   381  MTT381      0.2695
      8  C15        3.1840   60.3270   35.7470 C.3   381  MTT381      0.1835
      9  O15        4.3940   59.8580   35.0720 O.3   381  MTT381     -0.3256
     10  C16        3.2790   61.8160   35.8170 C.3   381  MTT381      0.2142
     11  O16        2.8400   62.4020   34.5740 O.3   381  MTT381     -0.2176
     12  O24        3.5940   57.9780   33.8440 O.3   381  MTT381     -0.3257
     13  C24        3.9500   57.9420   32.4370 C.3   381  MTT381      0.1804
     14  C23        4.8620   56.7700   32.1380 C.3   381  MTT381      0.2167
     15  O23        6.0600   56.8340   32.8480 O.3   381  MTT381     -0.2175
     16  C22        5.1820   56.7620   30.6370 C.3   381  MTT381      0.2404
     17  O22        6.0300   55.6820   30.3220 O.3   381  MTT381     -0.2149
     18  C21        3.9310   56.6410   29.8660 C.3   381  MTT381      0.2695
     19  C25        2.6680   57.8010   31.6020 C.3   381  MTT381      0.1803
     20  O25        3.0680   57.7550   30.2140 O.3   381  MTT381     -0.3257
     21  C26        1.7700   58.9490   31.8290 C.3   381  MTT381      0.2141
     22  O26        0.8350   59.0460   30.8020 O.3   381  MTT381     -0.2176
     23  O34        3.1810   55.5100   30.1560 O.3   381  MTT381     -0.3257
     24  C34        2.7550   54.5380   29.2830 C.3   381  MTT381      0.1804
     25  C33        3.7220   53.3710   29.3020 C.3   381  MTT381      0.2167
     26  O33        4.9900   53.7920   28.9020 O.3   381  MTT381     -0.2175
     27  C32        3.2490   52.3070   28.3690 C.3   381  MTT381      0.2404
     28  O32        4.1020   51.1830   28.4550 O.3   381  MTT381     -0.2149
     29  C31        1.8640   51.9080   28.6990 C.3   381  MTT381      0.2695
     30  C35        1.3860   54.0600   29.6890 C.3   381  MTT381      0.1803
     31  O35        0.9850   53.0270   28.7870 O.3   381  MTT381     -0.3257
     32  C36        0.3640   55.1460   29.6560 C.3   381  MTT381      0.2141
     33  O36       -0.3850   55.1760   30.8510 O.3   381  MTT381     -0.2176
     34  O44        2.0060   51.2140   29.8910 O.3   381  MTT381     -0.3257
     35  C44        1.0580   50.3470   30.3850 C.3   381  MTT381      0.1804
     36  C43        1.5940   48.9470   30.0390 C.3   381  MTT381      0.2168
     37  O43        0.8230   48.4180   28.9090 O.3   381  MTT381     -0.2175
     38  C42        1.4960   47.8790   31.0580 C.3   381  MTT381      0.2433
     39  O42        2.8280   47.4130   31.2530 O.3   381  MTT381     -0.2148
     40  C41        0.8680   48.2150   32.3830 C.3   381  MTT381      0.3023
     41  O41        1.6680   47.9690   33.4480 O.3   381  MTT381     -0.1869
     42  C45        0.8980   50.6330   31.8430 C.3   381  MTT381      0.1804
     43  O45        0.4170   49.5200   32.5130 O.3   381  MTT381     -0.3237
     44  C46       -0.0740   51.7570   32.1570 C.3   381  MTT381      0.2141
     45  O46       -0.0420   52.1380   33.5020 O.3   381  MTT381     -0.2176
@<TRIPOS>BOND
     1    27    28    1
     2    27    29    1
     3    27    25    1
     4    29    31    1
     5    29    34    1
     6    31    30    1
     7    26    25    1
     8    37    36    1
     9    24    25    1
    10    24    30    1
    11    24    23    1
    12    32    30    1
    13    32    33    1
    14    18    23    1
    15    18    20    1
    16    18    16    1
    17    34    35    1
    18    36    35    1
    19    36    38    1
    20    20    19    1
    21    17    16    1
    22    35    42    1
    23    16    14    1
    24    22    21    1
    25    38    39    1
    26    38    40    1
    27    19    21    1
    28    19    13    1
    29    42    44    1
    30    42    43    1
    31    14    13    1
    32    14    15    1
    33    44    45    1
    34    40    43    1
    35    40    41    1
    36    13    12    1
    37    12     7    1
    38    11    10    1
    39     7     9    1
    40     7     5    1
    41     9     8    1
    42     8    10    1
    43     8     2    1
    44     6     5    1
    45     5     3    1
    46     3     2    1
    47     3     4    1
    48     2     1    1
