@<TRIPOS>MOLECULE
1t0l_NAP_A_1.pdb
 48 52 0 0 0
SMALL
GASTEIGER

@<TRIPOS>ATOM
      1  PA        59.2100  -29.9110   26.0010 P.3   1515  NAP1515     0.2189
      2  O1A       58.4860  -31.1720   25.7480 O.3   1515  NAP1515    -0.4371
      3  O2A       60.3260  -29.5840   25.1390 O.2   1515  NAP1515    -0.5170
      4  O5B       59.5850  -30.0100   27.6010 O.3   1515  NAP1515    -0.3112
      5  C5B       58.4890  -30.0120   28.6040 C.3   1515  NAP1515     0.1813
      6  C4B       59.1810  -30.5910   29.8770 C.3   1515  NAP1515     0.1820
      7  O4B       59.6320  -31.9320   29.5850 O.3   1515  NAP1515    -0.3136
      8  C3B       60.4680  -29.8240   30.2680 C.3   1515  NAP1515     0.2157
      9  O3B       60.0970  -28.5740   30.8730 O.3   1515  NAP1515    -0.2175
     10  C2B       61.1010  -30.9790   31.1250 C.3   1515  NAP1515     0.2314
     11  O2B       60.4600  -31.1370   32.4400 O.3   1515  NAP1515    -0.2630
     12  C1B       60.8400  -32.2240   30.3020 C.3   1515  NAP1515     0.3158
     13  N9A       61.8980  -32.5020   29.2770 N.pl3 1515  NAP1515    -0.1439
     14  C8A       61.7360  -32.4760   27.8860 C.3   1515  NAP1515     0.3377
     15  N7A       62.8470  -32.7650   27.1980 N.2   1515  NAP1515    -0.2095
     16  C5A       63.7530  -32.9840   28.2130 C.2   1515  NAP1515     0.2526
     17  C6A       65.1760  -33.3480   28.1470 C.2   1515  NAP1515     0.4393
     18  N6A       65.7610  -33.5140   26.9610 N.pl3 1515  NAP1515     0.2180
     19  N1A       65.8190  -33.4960   29.3530 N.2   1515  NAP1515     0.0021
     20  C2A       65.1490  -33.3110   30.5520 C.3   1515  NAP1515     0.5254
     21  N3A       63.8560  -32.9830   30.7180 N.2   1515  NAP1515    -0.0055
     22  C4A       63.2170  -32.8340   29.4810 C.2   1515  NAP1515     0.3518
     23  O3        58.3350  -28.7130   26.0250 O.3   1515  NAP1515    -0.2703
     24  PN        56.9380  -28.0730   25.9430 P.3   1515  NAP1515     0.2189
     25  O1N       55.8180  -28.9820   25.7880 O.2   1515  NAP1515    -0.5170
     26  O2N       56.7330  -27.1980   27.0980 O.3   1515  NAP1515    -0.4371
     27  O5D       57.1500  -27.1980   24.5510 O.3   1515  NAP1515    -0.3112
     28  C5D       58.2870  -26.3330   24.4720 C.3   1515  NAP1515     0.1813
     29  C4D       58.4200  -25.8880   23.0030 C.3   1515  NAP1515     0.1799
     30  O4D       58.8500  -27.0400   22.1950 O.3   1515  NAP1515    -0.3327
     31  C3D       57.1410  -25.3530   22.3430 C.3   1515  NAP1515     0.2158
     32  O3D       57.4310  -24.1070   21.6570 O.3   1515  NAP1515    -0.2175
     33  C2D       56.6800  -26.5310   21.4500 C.3   1515  NAP1515     0.2309
     34  O2D       55.9260  -26.0550   20.3190 O.3   1515  NAP1515    -0.2158
     35  C1D       57.9730  -27.2560   21.0930 C.3   1515  NAP1515     0.2263
     36  N1N       57.8320  -28.7550   20.9010 N.pl3 1515  NAP1515    -0.2787
     37  C2N       58.5100  -29.1750   19.6650 C.3   1515  NAP1515     0.1244
     38  C3N       58.4770  -30.5520   19.3670 C.2   1515  NAP1515     0.0544
     39  C7N       59.2240  -31.0010   18.0180 C.2   1515  NAP1515     0.2818
     40  O7N       59.2160  -32.1830   17.7330 O.2   1515  NAP1515    -0.2670
     41  N7N       59.8330  -30.0650   17.2550 N.am  1515  NAP1515    -0.0839
     42  C4N       57.8170  -31.5720   20.2060 C.2   1515  NAP1515     0.0033
     43  C5N       57.1600  -31.0260   21.4340 C.2   1515  NAP1515     0.0157
     44  C6N       57.1640  -29.6880   21.7730 C.2   1515  NAP1515     0.0633
     45  P2B       60.9820  -30.2350   33.7860 P.3   1515  NAP1515     0.5328
     46  O1X       60.0070  -30.7820   34.8170 O.3   1515  NAP1515    -0.1145
     47  O2X       62.3810  -30.6530   33.8440 O.3   1515  NAP1515    -0.1145
     48  O3X       60.7400  -28.8400   33.3770 O.2   1515  NAP1515    -0.2224
@<TRIPOS>BOND
     1    41    39   am
     2    40    39    2
     3    39    38    1
     4    38    37    1
     5    38    42    2
     6    37    36    1
     7    42    43    1
     8    34    33    1
     9    36    35    1
    10    36    44    1
    11    35    33    1
    12    35    30    1
    13    43    44    2
    14    33    31    1
    15    32    31    1
    16    30    29    1
    17    31    29    1
    18    29    28    1
    19    28    27    1
    20    27    24    1
    21     3     1    2
    22     2     1    1
    23    25    24    2
    24    24    23    1
    25    24    26    1
    26     1    23    1
    27     1     4    1
    28    18    17    1
    29    15    14    1
    30    15    16    2
    31     4     5    1
    32    14    13    1
    33    17    16    1
    34    17    19    2
    35    16    22    1
    36     5     6    1
    37    13    22    1
    38    13    12    1
    39    19    20    1
    40    22    21    2
    41     7     6    1
    42     7    12    1
    43     6     8    1
    44     8     9    1
    45     8    10    1
    46    12    10    1
    47    20    21    1
    48    10    11    1
    49    11    45    1
    50    48    45    2
    51    45    47    1
    52    45    46    1
