@<TRIPOS>MOLECULE
1t0l_ICT_A_1.pdb
 13 12 0 0 0
SMALL
GASTEIGER

@<TRIPOS>ATOM
      1  C1        55.5640  -34.0580   18.2810 C.2   1616  ICT1616     0.3952
      2  O1        56.3080  -33.8000   17.2350 O.co2 1616  ICT1616    -0.2428
      3  O2        55.3590  -35.1620   18.6930 O.co2 1616  ICT1616    -0.2428
      4  C2        54.9740  -32.7630   18.9360 C.3   1616  ICT1616     0.2651
      5  O7        54.1890  -33.1710   20.0450 O.3   1616  ICT1616    -0.2103
      6  C3        54.1880  -31.8090   17.9800 C.3   1616  ICT1616     0.1561
      7  C4        53.6180  -30.5960   18.7740 C.3   1616  ICT1616     0.1285
      8  C5        54.1360  -29.2110   18.4020 C.2   1616  ICT1616     0.3655
      9  O3        53.8710  -28.2700   19.4560 O.co2 1616  ICT1616    -0.2456
     10  O4        54.6680  -28.9160   17.3980 O.co2 1616  ICT1616    -0.2456
     11  C6        53.0790  -32.5620   17.2030 C.2   1616  ICT1616     0.3680
     12  O5        51.9090  -32.5950   17.7030 O.co2 1616  ICT1616    -0.2455
     13  O6        53.3770  -33.1150   16.1070 O.co2 1616  ICT1616    -0.2455
@<TRIPOS>BOND
     1    13    11   ar
     2    11    12   ar
     3    11     6    1
     4     2     1   ar
     5    10     8   ar
     6     6     7    1
     7     6     4    1
     8     1     3   ar
     9     1     4    1
    10     8     7    1
    11     8     9   ar
    12     4     5    1
