@<TRIPOS>MOLECULE
1t0o_GAL_A_1.pdb
 12 12 0 0 0
SMALL
GASTEIGER

@<TRIPOS>ATOM
      1  C1         3.5770   16.1760    2.7110 C.3   901  GAL901      0.3024
      2  C2         4.1630   16.4530    4.2000 C.3   901  GAL901      0.2434
      3  C3         3.5850   17.6150    4.7340 C.3   901  GAL901      0.2199
      4  C4         3.6690   18.8620    3.8030 C.3   901  GAL901      0.2144
      5  C5         3.4120   18.5460    2.3530 C.3   901  GAL901      0.1836
      6  C6         3.7310   19.6150    1.3310 C.3   901  GAL901      0.2142
      7  O1         4.1660   15.0250    2.1130 O.3   901  GAL901     -0.1869
      8  O2         3.9650   15.2680    5.0080 O.3   901  GAL901     -0.2148
      9  O3         4.2980   18.0120    6.0100 O.3   901  GAL901     -0.2174
     10  O4         5.0990   19.1220    3.7080 O.3   901  GAL901     -0.2176
     11  O5         3.8370   17.2970    1.8810 O.3   901  GAL901     -0.3236
     12  O6         3.0600   19.3320    0.1090 O.3   901  GAL901     -0.2176
@<TRIPOS>BOND
     1    12     6    1
     2     6     5    1
     3    11     5    1
     4    11     1    1
     5     7     1    1
     6     5     4    1
     7     1     2    1
     8    10     4    1
     9     4     3    1
    10     2     3    1
    11     2     8    1
    12     3     9    1
