@<TRIPOS>MOLECULE
1t0o_MAN_A_1.pdb
 11 11 0 0 0
SMALL
GASTEIGER

@<TRIPOS>ATOM
      1  C1         9.6910    0.2100   24.0950 C.3   606  MAN606      0.1777
      2  C2         9.3380    1.1950   22.9970 C.3   606  MAN606      0.2141
      3  C3         9.7810    2.6120   23.3670 C.3   606  MAN606      0.2173
      4  C4         9.2380    2.9400   24.7550 C.3   606  MAN606      0.2142
      5  C5         9.6860    1.9020   25.7870 C.3   606  MAN606      0.1810
      6  C6         8.9420    2.1660   27.0920 C.3   606  MAN606      0.2141
      7  O2         7.9540    1.0890   22.8900 O.3   606  MAN606     -0.2176
      8  O3         9.2600    3.5830   22.4690 O.3   606  MAN606     -0.2175
      9  O4         9.6260    4.2370   25.1230 O.3   606  MAN606     -0.2176
     10  O5         9.2630    0.6080   25.3900 O.3   606  MAN606     -0.3481
     11  O6         9.5660    1.3610   28.0650 O.3   606  MAN606     -0.2176
@<TRIPOS>BOND
     1     8     3    1
     2     7     2    1
     3     2     3    1
     4     2     1    1
     5     3     4    1
     6     1    10    1
     7     4     9    1
     8     4     5    1
     9    10     5    1
    10     5     6    1
    11     6    11    1
