@<TRIPOS>MOLECULE
1t0o_NAG_A_1.pdb
 14 14 0 0 0
SMALL
GASTEIGER

@<TRIPOS>ATOM
      1  C1         3.7210   32.0980   -8.6740 C.3   500  NAG500      0.1665
      2  C2         2.9510   31.1920   -9.6300 C.3   500  NAG500      0.1576
      3  C3         1.7070   31.8940  -10.1750 C.3   500  NAG500      0.2069
      4  C4         0.8940   32.6280   -9.1160 C.3   500  NAG500      0.2134
      5  C5         1.8210   33.4220   -8.2080 C.3   500  NAG500      0.1809
      6  C6         1.0490   34.0650   -7.0530 C.3   500  NAG500      0.2141
      7  C7         4.4900   29.6750  -10.7590 C.2   500  NAG500      0.2420
      8  C8         5.0950   29.2780  -12.0770 C.3   500  NAG500      0.0964
      9  N2         3.7920   30.8110  -10.7540 N.am  500  NAG500     -0.2019
     10  O3         0.9090   30.9200  -10.7970 O.3   500  NAG500     -0.2184
     11  O4         0.0240   33.5670   -9.7210 O.3   500  NAG500     -0.2176
     12  O5         2.8260   32.5760   -7.6970 O.3   500  NAG500     -0.3489
     13  O6         0.5630   33.0620   -6.1820 O.3   500  NAG500     -0.2176
     14  O7         4.6480   28.9690   -9.7530 O.2   500  NAG500     -0.2733
@<TRIPOS>BOND
     1     8     7    1
     2    10     3    1
     3     7     9   am
     4     7    14    2
     5     9     2    1
     6     3     2    1
     7     3     4    1
     8    11     4    1
     9     2     1    1
    10     4     5    1
    11     1    12    1
    12     5    12    1
    13     5     6    1
    14     6    13    1
