@<TRIPOS>MOLECULE
1t0w_NAG_A_1.pdb
 27 27 0 0 0
SMALL
GASTEIGER

@<TRIPOS>ATOM
      1  C1        -5.3780    6.0510    7.8350 C.3    35  NAG35       0.1078
      2  C2        -3.8550    6.1430    7.8470 C.3    35  NAG35       0.0802
      3  C3        -3.2950    4.7720    7.4610 C.3    35  NAG35       0.1076
      4  C4        -3.8000    3.6630    8.3870 C.3    35  NAG35       0.1493
      5  C5        -5.3180    3.6730    8.2210 C.3    35  NAG35       0.1137
      6  C6        -5.9770    2.5950    9.0970 C.3    35  NAG35       0.0730
      7  C7        -3.1210    8.4260    7.2110 C.2    35  NAG35       0.2103
      8  C8        -2.3940    9.2410    6.1850 C.3    35  NAG35       0.0122
      9  N2        -3.3350    7.1580    6.9060 N.am   35  NAG35      -0.3075
     10  O3        -1.8960    4.8850    7.5210 O.3    35  NAG35      -0.3871
     11  O4        -3.2830    2.3660    7.9950 O.3    35  NAG35      -0.2256
     12  O5        -5.8380    4.9360    8.6090 O.3    35  NAG35      -0.3638
     13  O6        -5.6360    2.7670   10.4610 O.3    35  NAG35      -0.3924
     14  O7        -3.4800    8.9310    8.2650 O.2    35  NAG35      -0.2761
     15  H1        -5.7120    5.9610    6.8030 H      35  NAG35       0.0642
     16  H2        -3.5430    6.3630    8.8710 H      35  NAG35       0.0551
     17  H3        -3.5740    4.5370    6.4320 H      35  NAG35       0.0641
     18  H4        -3.5380    3.9060    9.4180 H      35  NAG35       0.0682
     19  H5        -5.5830    3.4780    7.1810 H      35  NAG35       0.0647
     20  H61       -5.6620    1.6030    8.7750 H      35  NAG35       0.0584
     21  H62       -7.0610    2.6650    8.9930 H      35  NAG35       0.0584
     22  H81       -1.4770    8.7190    5.9160 H      35  NAG35       0.0322
     23  H82       -3.0360    9.3660    5.3200 H      35  NAG35       0.0322
     24  H83       -2.1630   10.2050    6.6320 H      35  NAG35       0.0322
     25  HN2       -2.8300    6.8510    6.0640 H      35  NAG35       0.1491
     26  HO3       -1.6480    5.5470    6.8430 H      35  NAG35       0.2100
     27  HO6       -5.8800    3.6650   10.7100 H      35  NAG35       0.2095
@<TRIPOS>BOND
     1    23     8    1
     2    22     8    1
     3    25     9    1
     4     8    24    1
     5     8     7    1
     6    17     3    1
     7    15     1    1
     8    26    10    1
     9     9     7   am
    10     9     2    1
    11    19     5    1
    12     7    14    2
    13     3    10    1
    14     3     2    1
    15     3     4    1
    16     1     2    1
    17     1    12    1
    18     2    16    1
    19    11     4    1
    20     5     4    1
    21     5    12    1
    22     5     6    1
    23     4    18    1
    24    20     6    1
    25    21     6    1
    26     6    13    1
    27    13    27    1
