@<TRIPOS>MOLECULE
1t10_F6P_A_1.pdb
 16 16 0 0 0
SMALL
GASTEIGER

@<TRIPOS>ATOM
      1  O1        25.3980   17.8390  133.0840 O.3   1001  F6P1001    -0.2148
      2  C1        24.1490   18.5080  132.9820 C.3   1001  F6P1001     0.2434
      3  C2        22.9060   17.6070  133.1370 C.3   1001  F6P1001     0.2807
      4  O2        21.7360   18.4550  133.0640 O.3   1001  F6P1001    -0.1896
      5  C3        22.8320   16.7030  134.3880 C.3   1001  F6P1001     0.2409
      6  O3        22.0800   17.2120  135.4870 O.3   1001  F6P1001    -0.2149
      7  C4        22.1950   15.4200  133.8860 C.3   1001  F6P1001     0.2167
      8  O4        22.6240   14.2550  134.5780 O.3   1001  F6P1001    -0.2175
      9  C5        22.5670   15.4110  132.4030 C.3   1001  F6P1001     0.1808
     10  O5        22.8700   16.7390  132.0260 O.3   1001  F6P1001    -0.3254
     11  C6        21.4450   14.8730  131.5200 C.3   1001  F6P1001     0.1859
     12  O6        21.8500   14.6490  130.1740 O.3   1001  F6P1001    -0.2675
     13  P         22.0690   13.0960  129.7720 P.3   1001  F6P1001     0.5327
     14  O1P       23.5230   12.8480  129.5580 O.3   1001  F6P1001    -0.1145
     15  O2P       21.5260   12.3120  130.9910 O.3   1001  F6P1001    -0.1145
     16  O3P       21.3500   12.6590  128.4820 O.2   1001  F6P1001    -0.2224
@<TRIPOS>BOND
     1    16    13    2
     2    14    13    1
     3    13    12    1
     4    13    15    1
     5    12    11    1
     6    11     9    1
     7    10     9    1
     8    10     3    1
     9     9     7    1
    10     2     1    1
    11     2     3    1
    12     4     3    1
    13     3     5    1
    14     7     5    1
    15     7     8    1
    16     5     6    1
