@<TRIPOS>MOLECULE
1t13_INI_A_1.pdb
 21 21 0 0 0
SMALL
GASTEIGER

@<TRIPOS>ATOM
      1  N1        84.3290   42.4890   23.3230 N.2   203  INI203     -0.2923
      2  C2        84.4620   42.4060   24.7120 C.1   203  INI203      0.3663
      3  O2        83.7930   41.5440   25.2680 O.2   203  INI203     -0.1745
      4  N3        85.3250   43.2850   25.3140 N.2   203  INI203     -0.2344
      5  C4        86.0750   44.2570   24.6560 C.1   203  INI203      0.2293
      6  O4        86.7960   44.9430   25.4210 O.2   203  INI203     -0.2107
      7  C5        85.9220   44.3560   23.0970 C.3   203  INI203      0.3505
      8  N5        86.7040   45.3750   22.4090 N.pl3 203  INI203      0.0583
      9  O51       87.4320   46.1100   23.0060 O.2   203  INI203     -0.1294
     10  O52       86.6070   45.4760   21.2050 O.2   203  INI203     -0.1294
     11  C6        84.9890   43.3910   22.4610 C.2   203  INI203      0.2365
     12  N7        84.6750   43.2520   21.0790 N.pl3 203  INI203     -0.2071
     13  C8        83.3500   43.8070   20.6770 C.3   203  INI203      0.1501
     14  C9        82.1820   42.7510   20.4530 C.3   203  INI203      0.2063
     15  O9        82.0000   42.1990   21.7360 O.3   203  INI203     -0.2184
     16  C10       82.3570   41.4470   19.5040 C.3   203  INI203      0.2166
     17  O10       83.4320   40.6740   19.9260 O.3   203  INI203     -0.2175
     18  C11       82.5800   41.6220   17.8350 C.3   203  INI203      0.2175
     19  O11       82.5080   43.0720   17.7080 O.3   203  INI203     -0.2175
     20  C12       81.5620   41.2360   16.6790 C.3   203  INI203      0.2175
     21  O12       80.3050   41.6470   17.1250 O.3   203  INI203     -0.2175
@<TRIPOS>BOND
     1    20    21    1
     2    20    18    1
     3    19    18    1
     4    18    16    1
     5    16    17    1
     6    16    14    1
     7    14    13    1
     8    14    15    1
     9    13    12    1
    10    12    11    1
    11    10     8    2
    12     8     9    2
    13     8     7    1
    14    11     7    1
    15    11     1    2
    16     7     5    1
    17     1     2    2
    18     5     4    2
    19     5     6    2
    20     2     3    2
    21     2     4    2
