@<TRIPOS>MOLECULE
1t16_C8E_A_1.pdb
 21 20 0 0 0
SMALL
GASTEIGER

@<TRIPOS>ATOM
      1  C1         7.6830   46.9460   52.0470 C.3   433  C8E433      0.0000
      2  C2         6.9750   46.6640   50.8060 C.3   433  C8E433      0.0000
      3  C3         7.1910   45.3150   50.2830 C.3   433  C8E433      0.0000
      4  C4         5.8910   44.6680   50.1980 C.3   433  C8E433      0.0000
      5  C5         5.6400   44.2620   48.7900 C.3   433  C8E433      0.0001
      6  C6         4.3990   44.8530   48.3240 C.3   433  C8E433      0.0026
      7  C7         4.2320   44.1840   47.0350 C.3   433  C8E433      0.0321
      8  C8         2.8200   44.3560   46.6300 C.3   433  C8E433      0.1423
      9  O9         1.9920   43.5010   45.8400 O.3   433  C8E433     -0.3498
     10  C10        2.3030   43.1690   44.4870 C.3   433  C8E433      0.1893
     11  C11        1.1670   42.2590   44.0430 C.3   433  C8E433      0.2376
     12  O12       -0.0530   42.9820   43.6760 O.2   433  C8E433     -0.4666
     13  C13       -0.8350   43.6300   44.7720 C.2   433  C8E433      0.2131
     14  C14       -1.1520   43.0360   46.2150 C.2   433  C8E433      0.2197
     15  O15       -1.8950   43.5770   47.3790 O.2   433  C8E433     -0.4407
     16  C16       -1.0550   44.3100   48.3080 C.2   433  C8E433      0.2197
     17  C17       -0.4330   43.4800   49.4630 C.2   433  C8E433      0.2131
     18  O18       -0.5240   42.0380   49.5830 O.2   433  C8E433     -0.4664
     19  C19       -1.6930   41.5740   50.3440 C.3   433  C8E433      0.2411
     20  C20       -1.9330   40.0590   50.7550 C.3   433  C8E433      0.2292
     21  O21       -3.2460   39.4860   50.6080 O.3   433  C8E433     -0.2162
@<TRIPOS>BOND
     1    12    11    1
     2    12    13    1
     3    11    10    1
     4    10     9    1
     5    13    14    2
     6     9     8    1
     7    14    15    1
     8     8     7    1
     9     7     6    1
    10    15    16    1
    11    16    17    2
    12     6     5    1
    13     5     4    1
    14    17    18    1
    15    18    19    1
    16     4     3    1
    17     3     2    1
    18    19    20    1
    19    21    20    1
    20     2     1    1
