@<TRIPOS>MOLECULE
1t1n_HEM_A_1.pdb
 43 50 0 0 0
SMALL
GASTEIGER

@<TRIPOS>ATOM
      1  CHA       11.0220  -10.7200   18.4080 C.2   143  HEM143      0.0000
      2  CHB       12.0000  -12.3990   13.9500 C.2   143  HEM143      0.0000
      3  CHC        9.7240   -8.5740   12.0030 C.2   143  HEM143      0.0000
      4  CHD        9.0630   -6.7640   16.4270 C.2   143  HEM143      0.0000
      5  C1A       11.4900  -11.4970   17.3600 C.ar  143  HEM143      0.0000
      6  C2A       12.2450  -12.7260   17.4870 C.ar  143  HEM143      0.0000
      7  C3A       12.5190  -13.1960   16.2790 C.ar  143  HEM143      0.0000
      8  C4A       11.9410  -12.2680   15.3220 C.ar  143  HEM143      0.0000
      9  CMA       13.2960  -14.4710   15.8870 C.3   143  HEM143      0.0000
     10  CAA       12.6110  -13.3210   18.8640 C.3   143  HEM143      0.0000
     11  CBA       11.4390  -14.1330   19.4490 C.3   143  HEM143      0.0000
     12  CGA       11.6580  -14.4950   20.9040 C.2   143  HEM143      0.0000
     13  O1A       10.8220  -15.3070   21.3840 O.co2 143  HEM143      0.0000
     14  O2A       12.6620  -13.9220   21.4430 O.co2 143  HEM143      0.0000
     15  C1B       11.4460  -11.5020   13.0610 C.2   143  HEM143      0.0000
     16  C2B       11.5310  -11.6270   11.6210 C.2   143  HEM143      0.0000
     17  C3B       10.9040  -10.5800   11.0820 C.2   143  HEM143      0.0000
     18  C4B       10.4140   -9.7650   12.1710 C.2   143  HEM143      0.0000
     19  CMB       12.2340  -12.8080   10.9360 C.3   143  HEM143      0.0000
     20  CAB       10.6730  -10.2120    9.5960 C.2   143  HEM143      0.0000
     21  CBB       11.6820  -10.3390    8.7280 C.2   143  HEM143      0.0000
     22  C1C        9.4220   -7.7030   13.0440 C.ar  143  HEM143      0.0000
     23  C2C        8.9280   -6.3480   12.8820 C.ar  143  HEM143      0.0000
     24  C3C        8.7470   -5.8410   14.0960 C.ar  143  HEM143      0.0000
     25  C4C        9.1070   -6.8750   15.0520 C.ar  143  HEM143      0.0000
     26  CMC        8.7010   -5.6930   11.4970 C.3   143  HEM143      0.0000
     27  CAC        8.2460   -4.4580   14.5350 C.2   143  HEM143      0.0000
     28  CBC        8.4620   -3.3280   13.8960 C.2   143  HEM143      0.0000
     29  C1D        9.5510   -7.6450   17.3570 C.2   143  HEM143      0.0000
     30  C2D        9.6020   -7.4460   18.7850 C.2   143  HEM143      0.0000
     31  C3D       10.1310   -8.5380   19.3230 C.2   143  HEM143      0.0000
     32  C4D       10.4460   -9.4710   18.2640 C.2   143  HEM143      0.0000
     33  CMD        9.0840   -6.1430   19.4610 C.3   143  HEM143      0.0000
     34  CAD       10.4190   -8.8320   20.8110 C.3   143  HEM143      0.0000
     35  CBD       11.7760   -8.3410   21.3070 C.3   143  HEM143      0.0000
     36  CGD       11.8120   -8.0400   22.7820 C.2   143  HEM143      0.0000
     37  O1D       12.8590   -7.5050   23.2260 O.co2 143  HEM143      0.0000
     38  O2D       10.8000   -8.3350   23.4700 O.co2 143  HEM143      0.0000
     39  NA        11.3170  -11.2310   16.0080 N.ar  143  HEM143      0.0000
     40  NB        10.7630  -10.3440   13.3680 N.2   143  HEM143      0.0000
     41  NC         9.5180   -8.0130   14.3840 N.ar  143  HEM143      0.0000
     42  ND        10.0750   -8.9030   17.0520 N.2   143  HEM143      0.0000
     43 FE         10.4180   -9.5970   15.2100 Fe    143  HEM143      0.0000
@<TRIPOS>BOND
     1    21    20    2
     2    20    17    1
     3    19    16    1
     4    17    16    2
     5    17    18    1
     6    26    23    1
     7    16    15    1
     8     3    18    2
     9     3    22    1
    10    18    40    1
    11    23    22   ar
    12    23    24   ar
    13    22    41   ar
    14    15    40    2
    15    15     2    1
    16    40    43    1
    17    28    27    2
    18     2     8    2
    19    24    27    1
    20    24    25   ar
    21    41    25   ar
    22    41    43    1
    23    25     4    1
    24    43    39    1
    25    43    42    1
    26     8    39   ar
    27     8     7   ar
    28     9     7    1
    29    39     5   ar
    30     7     6   ar
    31     4    29    2
    32    42    29    1
    33    42    32    2
    34    29    30    1
    35     5     6   ar
    36     5     1    2
    37     6    10    1
    38    32     1    1
    39    32    31    1
    40    30    31    2
    41    30    33    1
    42    10    11    1
    43    31    34    1
    44    11    12    1
    45    34    35    1
    46    12    13   ar
    47    12    14   ar
    48    35    36    1
    49    36    37   ar
    50    36    38   ar
