@<TRIPOS>MOLECULE
1t1r_IMB_A_1.pdb
 20 21 0 0 0
SMALL
GASTEIGER

@<TRIPOS>ATOM
      1  N1        13.7070    9.8640   57.6880 N.ar  3001  IMB3001    -0.2277
      2  C2        13.9720    9.7990   59.0720 C.ar  3001  IMB3001     0.1482
      3  C3        13.1430    8.9100   59.8640 C.ar  3001  IMB3001     0.0331
      4  C4        12.1180    8.1650   59.2140 C.ar  3001  IMB3001     0.0043
      5  C5        11.8970    8.2660   57.8380 C.ar  3001  IMB3001     0.0208
      6  C6        12.6930    9.1160   57.0760 C.ar  3001  IMB3001     0.1004
      7  C9        13.2960    8.7740   61.2890 C.ar  3001  IMB3001     0.0028
      8  C10       12.4360    7.9130   62.0280 C.ar  3001  IMB3001     0.0001
      9  C11       11.4170    7.1770   61.3620 C.ar  3001  IMB3001     0.0000
     10  C12       11.2550    7.3010   59.9540 C.ar  3001  IMB3001     0.0001
     11  N17       15.0350   10.6060   59.5180 N.pl3 3001  IMB3001    -0.2071
     12  C18       15.5830   10.7180   60.8720 C.3   3001  IMB3001     0.1962
     13  P20       15.5930   12.4410   61.4720 P.3   3001  IMB3001     0.1438
     14  P21       17.2540   10.0270   60.8810 P.3   3001  IMB3001     0.1438
     15  O23       17.8610   10.1200   62.2980 O.3   3001  IMB3001    -0.3557
     16  O25       18.0850   10.7070   59.9110 O.2   3001  IMB3001    -0.4580
     17  O26       17.2470    8.5640   60.3700 O.3   3001  IMB3001    -0.3557
     18  O28       16.1880   12.4920   62.8990 O.3   3001  IMB3001    -0.3557
     19  O30       14.2510   13.0060   61.4640 O.3   3001  IMB3001    -0.3557
     20  O31       16.3830   13.3700   60.5100 O.2   3001  IMB3001    -0.4580
@<TRIPOS>BOND
     1     6     1   ar
     2     6     5   ar
     3     1     2   ar
     4     5     4   ar
     5     2    11    1
     6     2     3   ar
     7     4     3   ar
     8     4    10   ar
     9    11    12    1
    10     3     7   ar
    11    16    14    2
    12    10     9   ar
    13    17    14    1
    14    20    13    2
    15    12    14    1
    16    12    13    1
    17    14    15    1
    18     7     8   ar
    19     9     8   ar
    20    19    13    1
    21    13    18    1
