@<TRIPOS>MOLECULE
1t1s_CBQ_A_1.pdb
 17 17 0 0 0
SMALL
GASTEIGER

@<TRIPOS>ATOM
      1  O1        17.2440    9.7120   61.9610 O.3   2001  CBQ2001    -0.3557
      2  P1        17.2220   10.4400   60.5980 P.3   2001  CBQ2001     0.1438
      3  O2        18.4270   11.2310   60.4270 O.3   2001  CBQ2001    -0.3557
      4  O3        17.2690    9.3990   59.4510 O.2   2001  CBQ2001    -0.4580
      5  C1        15.7260   11.4740   60.4720 C.3   2001  CBQ2001     0.1962
      6  N1        15.6720   12.1800   59.2000 N.pl3 2001  CBQ2001    -0.2071
      7  C2        14.9500   11.7550   58.1160 C.ar  2001  CBQ2001     0.1483
      8  N2        14.9750   12.5370   56.9610 N.ar  2001  CBQ2001    -0.2268
      9  C3        14.2640   12.1710   55.8280 C.ar  2001  CBQ2001     0.1117
     10  C4        13.5220   11.0080   55.8690 C.ar  2001  CBQ2001     0.0769
     11 CL1        12.5700   10.5900   54.5020 Cl    2001  CBQ2001    -0.0806
     12  C5        13.4790   10.2020   57.0000 C.ar  2001  CBQ2001     0.0159
     13  C6        14.1930   10.5720   58.1350 C.ar  2001  CBQ2001     0.0367
     14  P2        15.6810   12.7180   61.7970 P.3   2001  CBQ2001     0.1438
     15  O4        15.7590   12.0370   63.1850 O.3   2001  CBQ2001    -0.3557
     16  O5        14.4810   13.5320   61.6910 O.3   2001  CBQ2001    -0.3557
     17  O6        16.8000   13.7640   61.6030 O.2   2001  CBQ2001    -0.4580
@<TRIPOS>BOND
     1    11    10    1
     2     9    10   ar
     3     9     8   ar
     4    10    12   ar
     5     8     7   ar
     6    12    13   ar
     7     7    13   ar
     8     7     6    1
     9     6     5    1
    10     4     2    2
    11     3     2    1
    12     5     2    1
    13     5    14    1
    14     2     1    1
    15    17    14    2
    16    16    14    1
    17    14    15    1
