@<TRIPOS>MOLECULE
1t24_NAD_A_1.pdb
 44 48 0 0 0
SMALL
GASTEIGER

@<TRIPOS>ATOM
      1  PA        34.9630   15.1820    7.4610 P.3   416  NAD416      0.2189
      2  O1A       34.6750   13.7300    7.6200 O.3   416  NAD416     -0.4371
      3  O2A       35.8830   15.5650    6.3200 O.2   416  NAD416     -0.5170
      4  O5B       35.6040   15.7840    8.7680 O.3   416  NAD416     -0.3112
      5  C5B       35.1160   15.5330   10.0720 C.3   416  NAD416      0.1813
      6  C4B       36.3210   15.3500   11.0080 C.3   416  NAD416      0.1821
      7  O4B       35.8750   15.1500   12.3420 O.3   416  NAD416     -0.3135
      8  C3B       37.2000   14.1250   10.6760 C.3   416  NAD416      0.2184
      9  O3B       38.4850   14.5670   10.3150 O.3   416  NAD416     -0.2174
     10  C2B       37.1960   13.3110   11.9660 C.3   416  NAD416      0.2570
     11  O2B       38.3960   12.6220   12.2440 O.3   416  NAD416     -0.2130
     12  C1B       36.8820   14.3950   12.9710 C.3   416  NAD416      0.3186
     13  N9A       36.4480   13.9520   14.3080 N.pl3 416  NAD416     -0.1439
     14  C8A       35.7200   12.8540   14.7120 C.3   416  NAD416      0.3377
     15  N7A       35.5980   12.9290   16.0560 N.2   416  NAD416     -0.2095
     16  C5A       36.2200   14.0470   16.5240 C.2   416  NAD416      0.2526
     17  C6A       36.4030   14.6230   17.7810 C.2   416  NAD416      0.4393
     18  N6A       35.9690   14.0540   18.9040 N.pl3 416  NAD416      0.2180
     19  N1A       37.0990   15.8080   17.8810 N.2   416  NAD416      0.0021
     20  C2A       37.6260   16.4130   16.7690 C.3   416  NAD416      0.5254
     21  N3A       37.4520   15.8450   15.5310 N.2   416  NAD416     -0.0055
     22  C4A       36.7540   14.6920   15.4190 C.2   416  NAD416      0.3518
     23  O3        33.5240   15.8690    7.2950 O.3   416  NAD416     -0.2703
     24  PN        33.1730   17.3850    6.8250 P.3   416  NAD416      0.2189
     25  O1N       32.9040   17.4010    5.3650 O.2   416  NAD416     -0.5170
     26  O2N       34.1580   18.3530    7.3400 O.3   416  NAD416     -0.4371
     27  O5D       31.7560   17.5060    7.5690 O.3   416  NAD416     -0.3112
     28  C5D       31.7160   17.6340    8.9740 C.3   416  NAD416      0.1813
     29  C4D       30.2970   17.5850    9.5220 C.3   416  NAD416      0.1799
     30  O4D       29.5790   18.7090    9.0520 O.3   416  NAD416     -0.3327
     31  C3D       29.4460   16.3660    9.1060 C.3   416  NAD416      0.2158
     32  O3D       28.6660   15.9130   10.2130 O.3   416  NAD416     -0.2175
     33  C2D       28.5230   16.8950    8.0320 C.3   416  NAD416      0.2309
     34  O2D       27.2800   16.2470    7.9140 O.3   416  NAD416     -0.2158
     35  C1D       28.3070   18.2550    8.6060 C.3   416  NAD416      0.2263
     36  N1N       27.7970   19.2350    7.6670 N.pl3 416  NAD416     -0.2787
     37  C2N       26.9180   20.1890    8.0760 C.3   416  NAD416      0.1244
     38  C3N       26.4950   21.2370    7.2740 C.2   416  NAD416      0.0544
     39  C7N       25.5480   22.2570    7.8330 C.2   416  NAD416      0.2818
     40  O7N       24.9760   23.1050    6.8970 O.2   416  NAD416     -0.2670
     41  N7N       25.2580   22.3910    9.1380 N.am  416  NAD416     -0.0839
     42  C4N       27.0330   21.4090    5.9990 C.2   416  NAD416      0.0033
     43  C5N       27.9730   20.4710    5.5590 C.2   416  NAD416      0.0157
     44  C6N       28.3220   19.5290    6.5180 C.2   416  NAD416      0.0633
@<TRIPOS>BOND
     1    25    24    2
     2    43    42    1
     3    43    44    2
     4    42    38    2
     5     3     1    2
     6    44    36    1
     7    24    23    1
     8    24    26    1
     9    24    27    1
    10    40    39    2
    11    38    39    1
    12    38    37    1
    13    23     1    1
    14     1     2    1
    15     1     4    1
    16    27    28    1
    17    36    37    1
    18    36    35    1
    19    39    41   am
    20    34    33    1
    21    33    35    1
    22    33    31    1
    23    35    30    1
    24     4     5    1
    25    28    29    1
    26    30    29    1
    27    31    29    1
    28    31    32    1
    29     5     6    1
    30     9     8    1
    31     8     6    1
    32     8    10    1
    33     6     7    1
    34    10    11    1
    35    10    12    1
    36     7    12    1
    37    12    13    1
    38    13    14    1
    39    13    22    1
    40    14    15    1
    41    22    21    2
    42    22    16    1
    43    21    20    1
    44    15    16    2
    45    16    17    1
    46    20    19    1
    47    17    19    2
    48    17    18    1
