@<TRIPOS>MOLECULE
1t25_NAI_A_1.pdb
 44 48 0 0 0
SMALL
GASTEIGER

@<TRIPOS>ATOM
      1  PA        35.2670   15.6820    7.5770 P.3   336  NAI336      0.2189
      2  O1A       34.9850   14.2170    7.8100 O.3   336  NAI336     -0.4371
      3  O2A       36.2070   15.9290    6.4000 O.2   336  NAI336     -0.5170
      4  O5B       35.9300   16.2180    8.9350 O.3   336  NAI336     -0.3112
      5  C5B       35.4990   15.9240   10.2570 C.3   336  NAI336      0.1813
      6  C4B       36.6970   15.7490   11.2110 C.3   336  NAI336      0.1821
      7  O4B       36.2740   15.5780   12.5760 O.3   336  NAI336     -0.3135
      8  C3B       37.6050   14.5300   10.9020 C.3   336  NAI336      0.2184
      9  O3B       38.9280   14.9610   10.5770 O.3   336  NAI336     -0.2174
     10  C2B       37.5740   13.6940   12.1930 C.3   336  NAI336      0.2570
     11  O2B       38.7870   12.9820   12.3750 O.3   336  NAI336     -0.2130
     12  C1B       37.2790   14.8000   13.2120 C.3   336  NAI336      0.3186
     13  N9A       36.8430   14.4100   14.5630 N.pl3 336  NAI336     -0.1439
     14  C8A       36.1210   13.3040   14.9870 C.3   336  NAI336      0.3377
     15  N7A       35.9590   13.3840   16.3400 N.2   336  NAI336     -0.2095
     16  C5A       36.5650   14.5390   16.7730 C.2   336  NAI336      0.2526
     17  C6A       36.7370   15.1210   18.0350 C.2   336  NAI336      0.4393
     18  N6A       36.2950   14.5270   19.1580 N.pl3 336  NAI336      0.2180
     19  N1A       37.4210   16.3140   18.1470 N.2   336  NAI336      0.0021
     20  C2A       37.9560   16.9130   17.0190 C.3   336  NAI336      0.5254
     21  N3A       37.8330   16.3180   15.7740 N.2   336  NAI336     -0.0055
     22  C4A       37.1340   15.1600   15.6640 C.2   336  NAI336      0.3518
     23  O3        33.8150   16.3810    7.4670 O.3   336  NAI336     -0.2703
     24  PN        33.4840   17.8800    6.8940 P.3   336  NAI336      0.2189
     25  O1N       33.2460   17.7540    5.4090 O.2   336  NAI336     -0.5170
     26  O2N       34.5050   18.8020    7.3810 O.3   336  NAI336     -0.4371
     27  O5D       32.0420   18.0510    7.5910 O.3   336  NAI336     -0.3112
     28  C5D       31.9720   18.2740    8.9870 C.3   336  NAI336      0.1813
     29  C4D       30.5550   18.1770    9.5900 C.3   336  NAI336      0.1799
     30  O4D       29.8120   19.3210    9.1660 O.3   336  NAI336     -0.3327
     31  C3D       29.6710   16.9670    9.2060 C.3   336  NAI336      0.2158
     32  O3D       28.9200   16.4360   10.3290 O.3   336  NAI336     -0.2175
     33  C2D       28.7010   17.5510    8.1970 C.3   336  NAI336      0.2309
     34  O2D       27.5610   16.7280    8.0870 O.3   336  NAI336     -0.2158
     35  C1D       28.4820   18.9630    8.7760 C.3   336  NAI336      0.2263
     36  N1N       27.9020   20.0180    7.8620 N.pl3 336  NAI336     -0.2787
     37  C2N       27.0020   20.9270    8.2700 C.3   336  NAI336      0.1244
     38  C3N       26.5920   21.8910    7.3900 C.2   336  NAI336      0.0544
     39  C7N       25.6680   22.8950    7.9470 C.2   336  NAI336      0.2818
     40  O7N       25.0700   23.8190    7.0750 O.2   336  NAI336     -0.2670
     41  N7N       25.4420   22.8440    9.2700 N.am  336  NAI336     -0.0839
     42  C4N       27.2000   21.9760    6.1500 C.2   336  NAI336      0.0033
     43  C5N       28.1960   21.0490    5.8160 C.2   336  NAI336      0.0157
     44  C6N       28.5640   20.0040    6.7100 C.2   336  NAI336      0.0633
@<TRIPOS>BOND
     1    25    24    2
     2    43    42    1
     3    43    44    2
     4    42    38    2
     5     3     1    2
     6    44    36    1
     7    24    26    1
     8    24    23    1
     9    24    27    1
    10    40    39    2
    11    38    39    1
    12    38    37    1
    13    23     1    1
    14     1     2    1
    15     1     4    1
    16    27    28    1
    17    36    37    1
    18    36    35    1
    19    39    41   am
    20    34    33    1
    21    33    35    1
    22    33    31    1
    23    35    30    1
    24     4     5    1
    25    28    29    1
    26    30    29    1
    27    31    29    1
    28    31    32    1
    29     5     6    1
    30     9     8    1
    31     8     6    1
    32     8    10    1
    33     6     7    1
    34    10    11    1
    35    10    12    1
    36     7    12    1
    37    12    13    1
    38    13    14    1
    39    13    22    1
    40    14    15    1
    41    22    21    2
    42    22    16    1
    43    21    20    1
    44    15    16    2
    45    16    17    1
    46    20    19    1
    47    17    19    2
    48    17    18    1
