@<TRIPOS>MOLECULE
1t26_NAI_A_1.pdb
 44 48 0 0 0
SMALL
GASTEIGER

@<TRIPOS>ATOM
      1  PA        35.0030   15.4830    7.6020 P.3   416  NAI416      0.2189
      2  O1A       34.7480   14.0370    7.8070 O.3   416  NAI416     -0.4371
      3  O2A       35.9320   15.7600    6.4160 O.2   416  NAI416     -0.5170
      4  O5B       35.6270   16.0900    8.9600 O.3   416  NAI416     -0.3112
      5  C5B       35.1800   15.6800   10.2380 C.3   416  NAI416      0.1813
      6  C4B       36.4000   15.5660   11.1600 C.3   416  NAI416      0.1821
      7  O4B       36.0260   15.4900   12.5240 O.3   416  NAI416     -0.3135
      8  C3B       37.2430   14.3180   10.8760 C.3   416  NAI416      0.2184
      9  O3B       38.5590   14.7320   10.5490 O.3   416  NAI416     -0.2174
     10  C2B       37.2360   13.5380   12.1880 C.3   416  NAI416      0.2570
     11  O2B       38.4770   12.8930   12.3930 O.3   416  NAI416     -0.2130
     12  C1B       36.9790   14.6710   13.1820 C.3   416  NAI416      0.3186
     13  N9A       36.5180   14.2860   14.5330 N.pl3 416  NAI416     -0.1439
     14  C8A       35.7840   13.2010   14.9540 C.3   416  NAI416      0.3377
     15  N7A       35.6170   13.2850   16.3000 N.2   416  NAI416     -0.2095
     16  C5A       36.2360   14.4090   16.7470 C.2   416  NAI416      0.2526
     17  C6A       36.3900   14.9970   18.0070 C.2   416  NAI416      0.4393
     18  N6A       35.8940   14.4520   19.1230 N.pl3 416  NAI416      0.2180
     19  N1A       37.0930   16.1690   18.1100 N.2   416  NAI416      0.0021
     20  C2A       37.6490   16.7680   16.9970 C.3   416  NAI416      0.5254
     21  N3A       37.5030   16.1810   15.7610 N.2   416  NAI416     -0.0055
     22  C4A       36.8030   15.0320   15.6430 C.2   416  NAI416      0.3518
     23  O3        33.5680   16.2000    7.4790 O.3   416  NAI416     -0.2703
     24  PN        33.2790   17.6820    6.9180 P.3   416  NAI416      0.2189
     25  O1N       33.0180   17.5990    5.4620 O.2   416  NAI416     -0.5170
     26  O2N       34.3290   18.6070    7.4020 O.3   416  NAI416     -0.4371
     27  O5D       31.8620   17.9600    7.6360 O.3   416  NAI416     -0.3112
     28  C5D       31.7790   18.0030    9.0470 C.3   416  NAI416      0.1813
     29  C4D       30.3460   17.9190    9.5870 C.3   416  NAI416      0.1799
     30  O4D       29.6320   19.0800    9.2040 O.3   416  NAI416     -0.3327
     31  C3D       29.5220   16.7330    9.0760 C.3   416  NAI416      0.2158
     32  O3D       28.6820   16.2530   10.1100 O.3   416  NAI416     -0.2175
     33  C2D       28.6070   17.3460    8.0430 C.3   416  NAI416      0.2309
     34  O2D       27.3940   16.6290    7.9190 O.3   416  NAI416     -0.2158
     35  C1D       28.3790   18.7050    8.6730 C.3   416  NAI416      0.2263
     36  N1N       27.9310   19.7250    7.7110 N.pl3 416  NAI416     -0.2787
     37  C2N       26.9940   20.6190    8.1350 C.3   416  NAI416      0.1244
     38  C3N       26.5270   21.6120    7.2930 C.2   416  NAI416      0.0544
     39  C7N       25.6090   22.6610    7.8560 C.2   416  NAI416      0.2818
     40  O7N       24.9660   23.5610    6.9790 O.2   416  NAI416     -0.2670
     41  N7N       25.4250   22.7210    9.1780 N.am  416  NAI416     -0.0839
     42  C4N       27.0370   21.6980    6.0020 C.2   416  NAI416      0.0033
     43  C5N       27.9950   20.7780    5.5750 C.2   416  NAI416      0.0157
     44  C6N       28.4420   19.7840    6.4450 C.2   416  NAI416      0.0633
@<TRIPOS>BOND
     1    25    24    2
     2    43    42    1
     3    43    44    2
     4    42    38    2
     5     3     1    2
     6    44    36    1
     7    24    26    1
     8    24    23    1
     9    24    27    1
    10    40    39    2
    11    38    39    1
    12    38    37    1
    13    23     1    1
    14     1     2    1
    15     1     4    1
    16    27    28    1
    17    36    37    1
    18    36    35    1
    19    39    41   am
    20    34    33    1
    21    33    35    1
    22    33    31    1
    23    35    30    1
    24     4     5    1
    25    28    29    1
    26    31    29    1
    27    31    32    1
    28    30    29    1
    29     5     6    1
    30     9     8    1
    31     8     6    1
    32     8    10    1
    33     6     7    1
    34    10    11    1
    35    10    12    1
    36     7    12    1
    37    12    13    1
    38    13    14    1
    39    13    22    1
    40    14    15    1
    41    22    21    2
    42    22    16    1
    43    21    20    1
    44    15    16    2
    45    16    17    1
    46    20    19    1
    47    17    19    2
    48    17    18    1
