@<TRIPOS>MOLECULE
1t2a_GDP_A_1.pdb
 28 30 0 0 0
SMALL
GASTEIGER

@<TRIPOS>ATOM
      1  PB        17.3370  -51.0150  -26.9090 P.3   1002  GDP1002     0.5373
      2  O1B       16.2220  -50.4650  -26.0330 O.3   1002  GDP1002    -0.1143
      3  O2B       17.9250  -52.3620  -26.5070 O.3   1002  GDP1002    -0.1143
      4  O3B       17.2390  -50.7270  -28.4050 O.2   1002  GDP1002    -0.2221
      5  O3A       18.5490  -50.0300  -26.4350 O.3   1002  GDP1002    -0.2261
      6  PA        20.1100  -50.2120  -26.0040 P.3   1002  GDP1002     0.2231
      7  O1A       20.7600  -48.8910  -26.2150 O.2   1002  GDP1002    -0.5169
      8  O2A       20.2140  -50.8640  -24.6770 O.3   1002  GDP1002    -0.4370
      9  O5'       20.7470  -51.2310  -27.0500 O.3   1002  GDP1002    -0.3111
     10  C5'       20.7170  -50.9440  -28.4420 C.3   1002  GDP1002     0.1813
     11  C4'       21.4040  -52.0400  -29.2200 C.3   1002  GDP1002     0.1799
     12  O4'       22.8340  -51.9600  -28.9660 O.3   1002  GDP1002    -0.3326
     13  C3'       20.9820  -53.4660  -28.8510 C.3   1002  GDP1002     0.2158
     14  O3'       20.9270  -54.2800  -30.0210 O.3   1002  GDP1002    -0.2175
     15  C2'       22.1150  -53.9260  -27.9340 C.3   1002  GDP1002     0.2310
     16  O2'       22.2960  -55.3340  -27.9790 O.3   1002  GDP1002    -0.2158
     17  C1'       23.3050  -53.2370  -28.5910 C.3   1002  GDP1002     0.2293
     18  N9        24.5000  -53.0660  -27.7670 N.pl3 1002  GDP1002    -0.2354
     19  C8        25.7790  -53.4360  -28.1090 C.3   1002  GDP1002     0.2246
     20  N7        26.6290  -53.3140  -27.1280 N.2   1002  GDP1002    -0.2322
     21  C5        25.8700  -52.8370  -26.0700 C.2   1002  GDP1002     0.2182
     22  C6        26.2520  -52.5000  -24.7480 C.1   1002  GDP1002     0.2372
     23  O6        27.3710  -52.5860  -24.2220 O.2   1002  GDP1002    -0.2069
     24  N1        25.1710  -52.0230  -24.0060 N.2   1002  GDP1002    -0.2485
     25  C2        23.8880  -51.8930  -24.4800 C.1   1002  GDP1002     0.2531
     26  N2        22.9920  -51.3850  -23.6220 N.pl3 1002  GDP1002    -0.0226
     27  N3        23.5150  -52.2240  -25.7060 N.2   1002  GDP1002    -0.3074
     28  C4        24.5520  -52.6800  -26.4440 C.2   1002  GDP1002     0.2300
@<TRIPOS>BOND
     1    14    13    1
     2    11    12    1
     3    11    13    1
     4    11    10    1
     5    12    17    1
     6    13    15    1
     7    17    15    1
     8    17    18    1
     9    10     9    1
    10     4     1    2
    11    19    18    1
    12    19    20    1
    13    16    15    1
    14    18    28    1
    15    20    21    2
    16     9     6    1
    17     1     3    1
    18     1     5    1
    19     1     2    1
    20    28    21    1
    21    28    27    2
    22     5     6    1
    23     7     6    2
    24    21    22    1
    25     6     8    1
    26    27    25    2
    27    22    23    2
    28    22    24    2
    29    25    24    2
    30    25    26    1
