@<TRIPOS>MOLECULE
1t2a_NDP_A_1.pdb
 48 52 0 0 0
SMALL
GASTEIGER

@<TRIPOS>ATOM
      1  PA        13.9520  -43.8440  -18.1430 P.3   1001  NDP1001     0.2189
      2  O1A       14.4660  -45.1870  -17.7590 O.3   1001  NDP1001    -0.4371
      3  O2A       14.9110  -42.7140  -18.2670 O.2   1001  NDP1001    -0.5170
      4  O5B       12.8860  -43.3830  -17.0640 O.3   1001  NDP1001    -0.3112
      5  C5B       11.9550  -44.2910  -16.4980 C.3   1001  NDP1001     0.1813
      6  C4B       11.0910  -43.5530  -15.5070 C.3   1001  NDP1001     0.1820
      7  O4B       10.1580  -44.4960  -14.8950 O.3   1001  NDP1001    -0.3136
      8  C3B       11.8650  -42.9460  -14.3340 C.3   1001  NDP1001     0.2157
      9  O3B       11.1690  -41.7800  -13.9010 O.3   1001  NDP1001    -0.2175
     10  C2B       11.7470  -44.0580  -13.2930 C.3   1001  NDP1001     0.2314
     11  O2B       12.0320  -43.6790  -11.9460 O.3   1001  NDP1001    -0.2630
     12  C1B       10.2720  -44.4090  -13.4860 C.3   1001  NDP1001     0.3158
     13  N9A        9.8300  -45.6810  -12.9050 N.pl3 1001  NDP1001    -0.1439
     14  C8A       10.4130  -46.9180  -13.0300 C.3   1001  NDP1001     0.3377
     15  N7A        9.8200  -47.8560  -12.3250 N.2   1001  NDP1001    -0.2095
     16  C5A        8.7780  -47.1880  -11.6920 C.2   1001  NDP1001     0.2526
     17  C6A        7.7780  -47.6210  -10.7950 C.2   1001  NDP1001     0.4393
     18  N6A        7.6680  -48.8720  -10.3540 N.pl3 1001  NDP1001     0.2180
     19  N1A        6.8870  -46.7070  -10.3580 N.2   1001  NDP1001     0.0021
     20  C2A        7.0020  -45.4420  -10.7910 C.3   1001  NDP1001     0.5254
     21  N3A        7.8970  -44.9140  -11.6250 N.2   1001  NDP1001    -0.0055
     22  C4A        8.7700  -45.8520  -12.0430 C.2   1001  NDP1001     0.3518
     23  O3        13.1110  -43.9480  -19.5310 O.3   1001  NDP1001    -0.2703
     24  PN        12.8620  -42.9740  -20.8110 P.3   1001  NDP1001     0.2189
     25  O1N       14.1390  -43.1540  -21.6000 O.2   1001  NDP1001    -0.5170
     26  O2N       12.6690  -41.6360  -20.1270 O.3   1001  NDP1001    -0.4371
     27  O5D       11.6130  -43.5850  -21.4260 O.3   1001  NDP1001    -0.3112
     28  C5D       10.3220  -43.0940  -21.0710 C.3   1001  NDP1001     0.1813
     29  C4D        9.2740  -44.1300  -21.3910 C.3   1001  NDP1001     0.1799
     30  O4D        9.2930  -44.4040  -22.8170 O.3   1001  NDP1001    -0.3327
     31  C3D        9.4800  -45.4790  -20.7110 C.3   1001  NDP1001     0.2158
     32  O3D        8.2080  -46.0920  -20.5260 O.3   1001  NDP1001    -0.2175
     33  C2D       10.2940  -46.2620  -21.7360 C.3   1001  NDP1001     0.2309
     34  O2D       10.0620  -47.6530  -21.5620 O.3   1001  NDP1001    -0.2158
     35  C1D        9.6620  -45.7540  -23.0330 C.3   1001  NDP1001     0.2263
     36  N1N       10.3990  -45.8100  -24.3050 N.pl3 1001  NDP1001    -0.2787
     37  C2N       11.7260  -45.3970  -24.4170 C.3   1001  NDP1001     0.1244
     38  C3N       12.4060  -45.3640  -25.5750 C.2   1001  NDP1001     0.0544
     39  C7N       13.5950  -44.7080  -25.6350 C.2   1001  NDP1001     0.2818
     40  O7N       14.3800  -44.8000  -26.5800 O.2   1001  NDP1001    -0.2670
     41  N7N       13.8610  -43.8850  -24.6140 N.am  1001  NDP1001    -0.0839
     42  C4N       11.7670  -45.8930  -26.8440 C.2   1001  NDP1001     0.0033
     43  C5N       10.2520  -46.0540  -26.6790 C.2   1001  NDP1001     0.0157
     44  C6N        9.6490  -46.0320  -25.4630 C.2   1001  NDP1001     0.0633
     45  P2B       13.4070  -43.8290  -11.3170 P.3   1001  NDP1001     0.5328
     46  O1X       13.0210  -43.8920   -9.8440 O.3   1001  NDP1001    -0.1145
     47  O2X       14.0170  -45.1060  -11.8730 O.2   1001  NDP1001    -0.2224
     48  O3X       14.0970  -42.5390  -11.7540 O.3   1001  NDP1001    -0.1145
@<TRIPOS>BOND
     1    42    43    1
     2    42    38    2
     3    43    44    2
     4    40    39    2
     5    39    38    1
     6    39    41   am
     7    38    37    1
     8    44    36    1
     9    37    36    1
    10    36    35    1
    11    35    30    1
    12    35    33    1
    13    30    29    1
    14    33    34    1
    15    33    31    1
    16    25    24    2
    17    27    28    1
    18    27    24    1
    19    29    28    1
    20    29    31    1
    21    24    26    1
    22    24    23    1
    23    31    32    1
    24    23     1    1
    25     3     1    2
    26     1     2    1
    27     1     4    1
    28     4     5    1
    29     5     6    1
    30     6     7    1
    31     6     8    1
    32     7    12    1
    33     8     9    1
    34     8    10    1
    35    12    10    1
    36    12    13    1
    37    10    11    1
    38    14    13    1
    39    14    15    1
    40    13    22    1
    41    15    16    2
    42    22    16    1
    43    22    21    2
    44    11    45    1
    45    47    45    2
    46    48    45    1
    47    16    17    1
    48    21    20    1
    49    45    46    1
    50    17    19    2
    51    17    18    1
    52    20    19    1
