@<TRIPOS>MOLECULE
1t2b_CNL_A_1.pdb
 11 12 0 0 0
SMALL
GASTEIGER

@<TRIPOS>ATOM
      1  C1         8.4470   -3.8390   48.8170 C.3   500  CNL500      0.0926
      2  C2         9.5210   -4.3130   49.8790 C.3   500  CNL500      0.0273
      3  C3         9.6920   -3.2160   51.0270 C.3   500  CNL500      0.0047
      4  C4         8.7410   -1.9520   50.7460 C.3   500  CNL500      0.0251
      5  C5         7.2580   -2.5300   50.7580 C.3   500  CNL500      0.0047
      6  C6         7.0800   -3.6350   49.6060 C.3   500  CNL500      0.0273
      7  C7         8.2970   -4.8730   47.6950 C.3   500  CNL500      0.0296
      8  C8         9.0800   -1.3900   49.2800 C.3   500  CNL500      0.0926
      9  C9        10.5150   -0.8510   49.1550 C.3   500  CNL500      0.0296
     10  C10        8.2420   -0.1880   48.8290 C.3   500  CNL500      0.0296
     11  O          8.8890   -2.4950   48.2970 O.3   500  CNL500     -0.3633
@<TRIPOS>BOND
     1     7     1    1
     2    11     1    1
     3    11     8    1
     4     1     6    1
     5     1     2    1
     6    10     8    1
     7     9     8    1
     8     8     4    1
     9     6     5    1
    10     2     3    1
    11     4     5    1
    12     4     3    1
