@<TRIPOS>MOLECULE
1t2b_HEM_A_1.pdb
 43 50 0 0 0
SMALL
GASTEIGER

@<TRIPOS>ATOM
      1 FE         12.9880   -4.5880   46.2130 Fe    450  HEM450      0.0000
      2  CHA       13.5800   -4.4980   49.6240 C.2   450  HEM450      0.0000
      3  CHB       13.3010   -1.1050   46.1750 C.2   450  HEM450      0.0000
      4  CHC       11.9320   -4.5410   42.9440 C.2   450  HEM450      0.0000
      5  CHD       11.9890   -7.9290   46.5090 C.2   450  HEM450      0.0000
      6  NA        13.3920   -3.1170   47.5780 N.ar  450  HEM450      0.0000
      7  C1A       13.7210   -3.2800   48.9360 C.ar  450  HEM450      0.0000
      8  C2A       14.1270   -2.0250   49.5780 C.ar  450  HEM450      0.0000
      9  C3A       13.9910   -1.0700   48.6000 C.ar  450  HEM450      0.0000
     10  C4A       13.5040   -1.7520   47.3940 C.ar  450  HEM450      0.0000
     11  CMA       14.1340    0.4180   48.7540 C.3   450  HEM450      0.0000
     12  CAA       14.6890   -1.7840   51.0120 C.3   450  HEM450      0.0000
     13  CBA       13.6490   -2.0760   52.0820 C.3   450  HEM450      0.0000
     14  CGA       13.9740   -1.4740   53.4520 C.2   450  HEM450      0.0000
     15  O1A       15.0430   -0.8500   53.6100 O.co2 450  HEM450      0.0000
     16  O2A       13.1450   -1.6400   54.3710 O.co2 450  HEM450      0.0000
     17  NB        12.5800   -3.1150   44.8920 N.2   450  HEM450      0.0000
     18  C1B       12.8540   -1.7560   45.0020 C.2   450  HEM450      0.0000
     19  C2B       12.7560   -1.1030   43.7060 C.2   450  HEM450      0.0000
     20  C3B       12.3720   -2.0800   42.8010 C.2   450  HEM450      0.0000
     21  C4B       12.2210   -3.2960   43.5430 C.2   450  HEM450      0.0000
     22  CMB       13.0450    0.3560   43.3800 C.3   450  HEM450      0.0000
     23  CAB       12.2610   -2.0710   41.3730 C.2   450  HEM450      0.0000
     24  CBB       12.7690   -1.1670   40.4970 C.2   450  HEM450      0.0000
     25  NC        12.1350   -5.9300   44.9880 N.ar  450  HEM450      0.0000
     26  C1C       11.8860   -5.7760   43.6190 C.ar  450  HEM450      0.0000
     27  C2C       11.5850   -7.0730   43.0150 C.ar  450  HEM450      0.0000
     28  C3C       11.6100   -8.0110   44.0040 C.ar  450  HEM450      0.0000
     29  C4C       11.8770   -7.2800   45.2310 C.ar  450  HEM450      0.0000
     30  CMC       11.3680   -7.2730   41.5550 C.3   450  HEM450      0.0000
     31  CAC       11.5730   -9.3980   43.9550 C.2   450  HEM450      0.0000
     32  CBC       10.8610  -10.1540   43.0820 C.2   450  HEM450      0.0000
     33  ND        12.8170   -5.9230   47.7610 N.2   450  HEM450      0.0000
     34  C1D       12.4270   -7.2670   47.6970 C.2   450  HEM450      0.0000
     35  C2D       12.5160   -7.9050   48.9710 C.2   450  HEM450      0.0000
     36  C3D       12.9500   -6.9460   49.8370 C.2   450  HEM450      0.0000
     37  C4D       13.1180   -5.7180   49.0780 C.2   450  HEM450      0.0000
     38  CMD       12.1250   -9.3700   49.2720 C.3   450  HEM450      0.0000
     39  CAD       13.1630   -7.1140   51.3250 C.3   450  HEM450      0.0000
     40  CBD       14.6050   -7.5590   51.4940 C.3   450  HEM450      0.0000
     41  CGD       15.0040   -7.7380   52.9500 C.2   450  HEM450      0.0000
     42  O1D       16.1190   -8.2320   53.2010 O.co2 450  HEM450      0.0000
     43  O2D       14.2040   -7.3780   53.8320 O.co2 450  HEM450      0.0000
@<TRIPOS>BOND
     1    24    23    2
     2    23    20    1
     3    30    27    1
     4    20    21    1
     5    20    19    2
     6     4    21    2
     7     4    26    1
     8    27    26   ar
     9    27    28   ar
    10    32    31    2
    11    22    19    1
    12    21    17    1
    13    26    25   ar
    14    19    18    1
    15    31    28    1
    16    28    29   ar
    17    17    18    2
    18    17     1    1
    19    25    29   ar
    20    25     1    1
    21    18     3    1
    22    29     5    1
    23     3    10    2
    24     1     6    1
    25     1    33    1
    26     5    34    2
    27    10     6   ar
    28    10     9   ar
    29     6     7   ar
    30    34    33    1
    31    34    35    1
    32    33    37    2
    33     9    11    1
    34     9     8   ar
    35     7     8   ar
    36     7     2    2
    37    35    38    1
    38    35    36    2
    39    37     2    1
    40    37    36    1
    41     8    12    1
    42    36    39    1
    43    12    13    1
    44    39    40    1
    45    40    41    1
    46    13    14    1
    47    41    42   ar
    48    41    43   ar
    49    14    15   ar
    50    14    16   ar
