@<TRIPOS>MOLECULE
1t2c_NAI_A_1.pdb
 44 48 0 0 0
SMALL
GASTEIGER

@<TRIPOS>ATOM
      1  PA        35.1600   15.6460    7.6810 P.3   336  NAI336      0.2189
      2  O1A       36.0550   15.8530    6.5090 O.2   336  NAI336     -0.5170
      3  O2A       34.8450   14.2130    8.0460 O.3   336  NAI336     -0.4371
      4  O5B       35.8660   16.2030    9.0300 O.3   336  NAI336     -0.3112
      5  C5B       35.3920   15.9400   10.3420 C.3   336  NAI336      0.1813
      6  C4B       36.6090   15.7870   11.2660 C.3   336  NAI336      0.1821
      7  O4B       36.1880   15.6260   12.6220 O.3   336  NAI336     -0.3135
      8  C3B       37.5350   14.5710   10.9590 C.3   336  NAI336      0.2184
      9  O3B       38.8870   14.9620   10.6150 O.3   336  NAI336     -0.2174
     10  C2B       37.4860   13.7200   12.2570 C.3   336  NAI336      0.2570
     11  O2B       38.6990   12.9850   12.4560 O.3   336  NAI336     -0.2130
     12  C1B       37.1700   14.8310   13.2910 C.3   336  NAI336      0.3186
     13  N9A       36.7250   14.4190   14.6370 N.pl3 336  NAI336     -0.1439
     14  C8A       35.9720   13.3050   15.0780 C.3   336  NAI336      0.3377
     15  N7A       35.8500   13.4080   16.4430 N.2   336  NAI336     -0.2095
     16  C5A       36.5080   14.5580   16.8500 C.2   336  NAI336      0.2526
     17  C6A       36.7210   15.1570   18.0860 C.2   336  NAI336      0.4393
     18  N6A       36.2260   14.6420   19.2080 N.pl3 336  NAI336      0.2180
     19  N1A       37.4100   16.3300   18.1830 N.2   336  NAI336      0.0021
     20  C2A       37.9510   16.8970   17.0380 C.3   336  NAI336      0.5254
     21  N3A       37.7960   16.2960   15.8190 N.2   336  NAI336     -0.0055
     22  C4A       37.0570   15.1600   15.7230 C.2   336  NAI336      0.3518
     23  O3        33.7110   16.4560    7.6040 O.3   336  NAI336     -0.2703
     24  PN        33.3110   17.8450    6.8040 P.3   336  NAI336      0.2189
     25  O1N       34.4440   18.6840    7.3570 O.3   336  NAI336     -0.4371
     26  O2N       33.1950   17.7390    5.3240 O.2   336  NAI336     -0.5170
     27  O5D       31.9090   18.0960    7.5590 O.3   336  NAI336     -0.3112
     28  C5D       31.9270   18.2270    8.9810 C.3   336  NAI336      0.1813
     29  C4D       30.5190   18.2000    9.5870 C.3   336  NAI336      0.1799
     30  O4D       29.8610   19.3190    8.9920 O.3   336  NAI336     -0.3327
     31  C3D       29.6300   16.9690    9.2630 C.3   336  NAI336      0.2158
     32  O3D       28.8200   16.5460   10.3720 O.3   336  NAI336     -0.2175
     33  C2D       28.7450   17.4680    8.1180 C.3   336  NAI336      0.2309
     34  O2D       27.5060   16.7820    7.8890 O.3   336  NAI336     -0.2158
     35  C1D       28.5710   18.9210    8.5790 C.3   336  NAI336      0.2263
     36  N1N       28.0450   19.9070    7.6230 N.pl3 336  NAI336     -0.2787
     37  C2N       27.1620   20.8550    8.1530 C.3   336  NAI336      0.1244
     38  C3N       26.6350   21.8460    7.3160 C.2   336  NAI336      0.0544
     39  C7N       25.6930   22.8580    7.8870 C.2   336  NAI336      0.2818
     40  O7N       25.1550   23.8540    7.0650 O.2   336  NAI336     -0.2670
     41  N7N       25.4310   22.8700    9.1880 N.am  336  NAI336     -0.0839
     42  C4N       27.0070   21.8860    5.9620 C.2   336  NAI336      0.0033
     43  C5N       27.8950   20.9290    5.4420 C.2   336  NAI336      0.0157
     44  C6N       28.3940   19.9270    6.2710 C.2   336  NAI336      0.0633
@<TRIPOS>BOND
     1    26    24    2
     2    43    42    1
     3    43    44    2
     4    42    38    2
     5    44    36    1
     6     2     1    2
     7    24    25    1
     8    24    27    1
     9    24    23    1
    10    40    39    2
    11    38    39    1
    12    38    37    1
    13    27    28    1
    14    23     1    1
    15    36    37    1
    16    36    35    1
    17     1     3    1
    18     1     4    1
    19    39    41   am
    20    34    33    1
    21    33    35    1
    22    33    31    1
    23    35    30    1
    24    28    29    1
    25    30    29    1
    26     4     5    1
    27    31    29    1
    28    31    32    1
    29     5     6    1
    30     9     8    1
    31     8     6    1
    32     8    10    1
    33     6     7    1
    34    10    11    1
    35    10    12    1
    36     7    12    1
    37    12    13    1
    38    13    14    1
    39    13    22    1
    40    14    15    1
    41    22    21    2
    42    22    16    1
    43    21    20    1
    44    15    16    2
    45    16    17    1
    46    20    19    1
    47    17    19    2
    48    17    18    1
