@<TRIPOS>MOLECULE
1t2d_NAD_A_1.pdb
 44 48 0 0 0
SMALL
GASTEIGER

@<TRIPOS>ATOM
      1  PA        35.0040   15.6010    7.3850 P.3   323  NAD323      0.2189
      2  O1A       35.8920   15.9400    6.2660 O.2   323  NAD323     -0.5170
      3  O2A       34.6990   14.1230    7.5670 O.3   323  NAD323     -0.4371
      4  O5B       35.6610   16.2160    8.7030 O.3   323  NAD323     -0.3112
      5  C5B       35.1700   15.9060    9.9870 C.3   323  NAD323      0.1813
      6  C4B       36.3650   15.7790   10.9120 C.3   323  NAD323      0.1821
      7  O4B       35.9140   15.5870   12.2380 O.3   323  NAD323     -0.3135
      8  C3B       37.2560   14.5770   10.5720 C.3   323  NAD323      0.2184
      9  O3B       38.5640   14.9900   10.2020 O.3   323  NAD323     -0.2174
     10  C2B       37.2350   13.7390   11.8490 C.3   323  NAD323      0.2570
     11  O2B       38.4350   13.0590   12.1490 O.3   323  NAD323     -0.2130
     12  C1B       36.9120   14.8170   12.8680 C.3   323  NAD323      0.3186
     13  N9A       36.4700   14.3780   14.1950 N.pl3 323  NAD323     -0.1439
     14  C8A       35.7360   13.2890   14.5800 C.3   323  NAD323      0.3377
     15  N7A       35.5940   13.3290   15.9260 N.2   323  NAD323     -0.2095
     16  C5A       36.2250   14.4310   16.4000 C.2   323  NAD323      0.2526
     17  C6A       36.4070   14.9840   17.6690 C.2   323  NAD323      0.4393
     18  N6A       35.9120   14.4060   18.7540 N.pl3 323  NAD323      0.2180
     19  N1A       37.1170   16.1570   17.7960 N.2   323  NAD323      0.0021
     20  C2A       37.6540   16.7640   16.6790 C.3   323  NAD323      0.5254
     21  N3A       37.4810   16.2330   15.4300 N.2   323  NAD323     -0.0055
     22  C4A       36.7820   15.0840   15.3090 C.2   323  NAD323      0.3518
     23  O3        33.5880   16.3560    7.2630 O.3   323  NAD323     -0.2703
     24  PN        33.2650   17.8450    6.7380 P.3   323  NAD323      0.2189
     25  O1N       34.2600   18.8010    7.2750 O.3   323  NAD323     -0.4371
     26  O2N       32.9960   17.8230    5.2870 O.2   323  NAD323     -0.5170
     27  O5D       31.8530   18.0470    7.4690 O.3   323  NAD323     -0.3112
     28  C5D       31.8300   18.1480    8.8730 C.3   323  NAD323      0.1813
     29  C4D       30.4070   18.1320    9.4150 C.3   323  NAD323      0.1799
     30  O4D       29.6940   19.2590    8.9400 O.3   323  NAD323     -0.3327
     31  C3D       29.6010   16.9060    8.9990 C.3   323  NAD323      0.2158
     32  O3D       28.8440   16.4480   10.1020 O.3   323  NAD323     -0.2175
     33  C2D       28.7030   17.4340    7.9060 C.3   323  NAD323      0.2309
     34  O2D       27.5390   16.6570    7.7430 O.3   323  NAD323     -0.2158
     35  C1D       28.4450   18.8370    8.4490 C.3   323  NAD323      0.2263
     36  N1N       27.9370   19.8450    7.5010 N.pl3 323  NAD323     -0.2787
     37  C2N       27.0600   20.7620    7.9850 C.3   323  NAD323      0.1244
     38  C3N       26.5680   21.7470    7.1570 C.2   323  NAD323      0.0544
     39  C7N       25.6040   22.7390    7.7110 C.2   323  NAD323      0.2818
     40  O7N       25.0770   23.6600    6.8470 O.2   323  NAD323     -0.2670
     41  N7N       25.2410   22.7640    8.9780 N.am  323  NAD323     -0.0839
     42  C4N       26.9810   21.7970    5.8270 C.2   323  NAD323      0.0033
     43  C5N       27.8880   20.8580    5.3530 C.2   323  NAD323      0.0157
     44  C6N       28.3680   19.8850    6.2100 C.2   323  NAD323      0.0633
@<TRIPOS>BOND
     1    26    24    2
     2    43    42    1
     3    43    44    2
     4    42    38    2
     5    44    36    1
     6     2     1    2
     7    24    23    1
     8    24    25    1
     9    24    27    1
    10    40    39    2
    11    38    39    1
    12    38    37    1
    13    23     1    1
    14     1     3    1
    15     1     4    1
    16    27    28    1
    17    36    37    1
    18    36    35    1
    19    39    41   am
    20    34    33    1
    21    33    35    1
    22    33    31    1
    23    35    30    1
    24     4     5    1
    25    28    29    1
    26    30    29    1
    27    31    29    1
    28    31    32    1
    29     5     6    1
    30     9     8    1
    31     8     6    1
    32     8    10    1
    33     6     7    1
    34    10    11    1
    35    10    12    1
    36     7    12    1
    37    12    13    1
    38    13    14    1
    39    13    22    1
    40    14    15    1
    41    22    21    2
    42    22    16    1
    43    21    20    1
    44    15    16    2
    45    16    17    1
    46    20    19    1
    47    17    19    2
    48    17    18    1
