@<TRIPOS>MOLECULE
1t2e_NAI_A_1.pdb
 44 48 0 0 0
SMALL
GASTEIGER

@<TRIPOS>ATOM
      1  PA        34.3580   15.2950    7.2340 P.3   336  NAI336      0.2189
      2  O1A       33.9940   13.8440    7.5450 O.3   336  NAI336     -0.4371
      3  O2A       35.1320   15.8350    6.1660 O.2   336  NAI336     -0.5170
      4  O5B       34.9250   16.0030    8.5150 O.3   336  NAI336     -0.3112
      5  C5B       34.4840   15.6560    9.8060 C.3   336  NAI336      0.1817
      6  C4B       35.6500   15.3020   10.7150 C.3   336  NAI336      0.1871
      7  O4B       35.2720   15.4310   12.0880 O.3   336  NAI336     -0.3094
      8  C3B       36.6940   14.4210   10.5750 C.3   336  NAI336      0.2449
      9  O3B       37.8450   14.7660   10.1160 O.3   336  NAI336     -0.2121
     10  C2B       36.7090   13.6500   11.7230 C.2   336  NAI336      0.2556
     11  O2B       37.6860   12.8790   11.9010 O.2   336  NAI336     -0.2863
     12  C1B       36.1500   14.4470   12.6930 C.3   336  NAI336      0.3473
     13  N9A       35.8520   14.1660   13.9870 N.pl3 336  NAI336     -0.1397
     14  C8A       35.0900   13.0930   14.3040 C.3   336  NAI336      0.3380
     15  N7A       34.9500   13.1010   15.6530 N.2   336  NAI336     -0.2095
     16  C5A       35.5640   14.2070   16.1400 C.2   336  NAI336      0.2526
     17  C6A       35.7670   14.7710   17.4640 C.2   336  NAI336      0.4393
     18  N6A       35.2860   14.1730   18.6060 N.pl3 336  NAI336      0.2180
     19  N1A       36.4560   15.9060   17.5370 N.2   336  NAI336      0.0021
     20  C2A       36.9770   16.5020   16.4600 C.3   336  NAI336      0.5254
     21  N3A       36.8820   16.0200   15.2180 N.2   336  NAI336     -0.0055
     22  C4A       36.1820   14.9120   15.0150 C.2   336  NAI336      0.3521
     23  O3        33.0700   16.1000    7.1830 O.3   336  NAI336     -0.2703
     24  PN        32.5950   17.6560    6.6500 P.3   336  NAI336      0.2189
     25  O1N       32.4930   17.5600    5.2690 O.2   336  NAI336     -0.5170
     26  O2N       33.6550   18.5120    7.0000 O.3   336  NAI336     -0.4371
     27  O5D       31.2450   17.8410    7.1220 O.3   336  NAI336     -0.3112
     28  C5D       31.0640   18.0440    8.7640 C.3   336  NAI336      0.1813
     29  C4D       29.8090   17.8900    9.3440 C.3   336  NAI336      0.1796
     30  O4D       29.0100   18.9580    8.6990 O.3   336  NAI336     -0.3354
     31  C3D       28.8660   16.5890    8.9320 C.3   336  NAI336      0.2155
     32  O3D       28.0220   16.1550    9.9780 O.3   336  NAI336     -0.2176
     33  C2D       28.0270   17.1260    7.6430 C.3   336  NAI336      0.2271
     34  O2D       26.8500   16.5470    7.3790 O.3   336  NAI336     -0.2161
     35  C1D       27.6610   18.4290    8.5600 C.3   336  NAI336      0.2096
     36  N1N       27.2830   19.4830    7.3740 N.3   336  NAI336     -0.2482
     37  C2N       26.3270   20.5370    7.9320 C.3   336  NAI336      0.0834
     38  C3N       25.7570   21.3220    7.0470 C.3   336  NAI336      0.0959
     39  C7N       24.8630   22.5310    7.7730 C.2   336  NAI336      0.2616
     40  O7N       24.3320   23.3390    6.7580 O.2   336  NAI336     -0.2716
     41  N7N       24.7050   22.5190    8.9770 N.am  336  NAI336     -0.0878
     42  C4N       26.3940   21.8390    5.6270 C.3   336  NAI336      0.0120
     43  C5N       27.3600   20.6920    5.0330 C.3   336  NAI336      0.0179
     44  C6N       27.9200   19.6750    5.9550 C.3   336  NAI336      0.0743
@<TRIPOS>BOND
     1    43    42    1
     2    43    44    1
     3    25    24    2
     4    42    38    1
     5    44    36    1
     6     3     1    2
     7    24    26    1
     8    24    27    1
     9    24    23    1
    10    40    39    2
    11    38    39    1
    12    38    37    1
    13    27    28    1
    14    23     1    1
    15     1     2    1
    16     1     4    1
    17    36    37    1
    18    36    35    1
    19    34    33    1
    20    33    35    1
    21    33    31    1
    22    39    41   am
    23     4     5    1
    24    35    30    1
    25    30    29    1
    26    28    29    1
    27    31    29    1
    28    31    32    1
    29     5     6    1
    30     9     8    1
    31     8     6    1
    32     8    10    1
    33     6     7    1
    34    10    11    2
    35    10    12    1
    36     7    12    1
    37    12    13    1
    38    13    14    1
    39    13    22    1
    40    14    15    1
    41    22    21    2
    42    22    16    1
    43    21    20    1
    44    15    16    2
    45    16    17    1
    46    20    19    1
    47    17    19    2
    48    17    18    1
