@<TRIPOS>MOLECULE
1t2f_NAD_A_1.pdb
 44 48 0 0 0
SMALL
GASTEIGER

@<TRIPOS>ATOM
      1  PA         9.6140  122.7980   29.9940 P.3   401  NAD401      0.2189
      2  O1A        8.2370  122.7480   29.4830 O.2   401  NAD401     -0.5170
      3  O2A        9.8540  123.6070   31.2800 O.3   401  NAD401     -0.4371
      4  O5B       10.6710  123.2950   28.9180 O.3   401  NAD401     -0.3112
      5  C5B       10.3940  123.1600   27.5650 C.3   401  NAD401      0.1813
      6  C4B       11.0490  124.2710   26.8000 C.3   401  NAD401      0.1821
      7  O4B       11.4280  123.7990   25.5100 O.3   401  NAD401     -0.3135
      8  C3B       10.0490  125.3720   26.5940 C.3   401  NAD401      0.2184
      9  O3B       10.6160  126.5590   27.0300 O.3   401  NAD401     -0.2174
     10  C2B        9.9120  125.4870   25.1100 C.3   401  NAD401      0.2570
     11  O2B        9.9260  126.8610   24.8570 O.3   401  NAD401     -0.2130
     12  C1B       11.1640  124.8190   24.5440 C.3   401  NAD401      0.3186
     13  N9A       11.0870  124.2680   23.1670 N.pl3 401  NAD401     -0.1439
     14  C8A       10.1170  123.4420   22.6690 C.3   401  NAD401      0.3377
     15  N7A       10.3620  123.1290   21.3570 N.2   401  NAD401     -0.2095
     16  C5A       11.5210  123.7270   21.0370 C.2   401  NAD401      0.2526
     17  C6A       12.2410  123.6860   19.8500 C.2   401  NAD401      0.4393
     18  N6A       11.7480  122.9880   18.8340 N.pl3 401  NAD401      0.2180
     19  N1A       13.4330  124.3930   19.7510 N.2   401  NAD401      0.0021
     20  C2A       13.8680  125.1160   20.8630 C.3   401  NAD401      0.5254
     21  N3A       13.1430  125.1290   22.0630 N.2   401  NAD401     -0.0055
     22  C4A       11.9820  124.4430   22.1500 C.2   401  NAD401      0.3518
     23  O3         9.9650  121.2780   30.3250 O.3   401  NAD401     -0.2703
     24  PN        11.1830  120.8870   31.2730 P.3   401  NAD401      0.2189
     25  O1N       10.5260  120.5990   32.5740 O.3   401  NAD401     -0.4371
     26  O2N       12.2340  121.8970   30.9780 O.2   401  NAD401     -0.5170
     27  O5D       11.6990  119.5390   30.5570 O.3   401  NAD401     -0.3112
     28  C5D       11.9800  119.5360   29.1660 C.3   401  NAD401      0.1813
     29  C4D       12.6600  118.2320   28.8840 C.3   401  NAD401      0.1799
     30  O4D       13.4030  118.0000   30.0400 O.3   401  NAD401     -0.3327
     31  C3D       11.8000  116.9920   28.7790 C.3   401  NAD401      0.2158
     32  O3D       12.2070  116.1970   27.7010 O.3   401  NAD401     -0.2175
     33  C2D       12.1060  116.1620   29.9840 C.3   401  NAD401      0.2309
     34  O2D       12.1660  114.7770   29.7690 O.3   401  NAD401     -0.2158
     35  C1D       13.5200  116.6030   30.1410 C.3   401  NAD401      0.2263
     36  N1N       14.1160  116.1070   31.3810 N.pl3 401  NAD401     -0.2787
     37  C2N       15.1910  115.2640   31.3260 C.3   401  NAD401      0.1244
     38  C3N       15.7640  114.8250   32.5120 C.2   401  NAD401      0.0544
     39  C7N       16.9380  113.8970   32.5860 C.2   401  NAD401      0.2818
     40  O7N       17.4150  113.4640   33.8440 O.2   401  NAD401     -0.2670
     41  N7N       17.4880  113.4750   31.4520 N.am  401  NAD401     -0.0839
     42  C4N       15.2230  115.2640   33.6990 C.2   401  NAD401      0.0033
     43  C5N       14.1320  116.1160   33.7300 C.2   401  NAD401      0.0157
     44  C6N       13.5790  116.5230   32.5530 C.2   401  NAD401      0.0633
@<TRIPOS>BOND
     1    18    17    1
     2    19    17    2
     3    19    20    1
     4    17    16    1
     5    20    21    1
     6    16    15    2
     7    16    22    1
     8    15    14    1
     9    21    22    2
    10    22    13    1
    11    14    13    1
    12    13    12    1
    13    12    10    1
    14    12     7    1
    15    11    10    1
    16    10     8    1
    17     7     6    1
    18     8     6    1
    19     8     9    1
    20     6     5    1
    21     5     4    1
    22    32    31    1
    23    31    29    1
    24    31    33    1
    25    29    28    1
    26    29    30    1
    27     4     1    1
    28    28    27    1
    29     2     1    2
    30    34    33    1
    31    33    35    1
    32     1    23    1
    33     1     3    1
    34    30    35    1
    35    35    36    1
    36    23    24    1
    37    27    24    1
    38    26    24    2
    39    24    25    1
    40    37    36    1
    41    37    38    1
    42    36    44    1
    43    41    39   am
    44    38    39    1
    45    38    42    2
    46    44    43    2
    47    39    40    2
    48    42    43    1
