@<TRIPOS>MOLECULE
1t31_OHH_A_1.pdb
 49 55 0 0 0
SMALL
GASTEIGER

@<TRIPOS>ATOM
      1  O6        -1.7640   31.3350   23.9320 O.2   901  OHH901     -0.2699
      2  P1        -3.3130   41.1690   21.4410 P.3   901  OHH901      0.1282
      3  O1        -2.0860   41.9460   21.1950 O.3   901  OHH901     -0.3566
      4  O3        -4.2890   41.0870   20.2730 O.2   901  OHH901     -0.4593
      5  O2        -4.3500   41.7230   22.4230 O.3   901  OHH901     -0.3566
      6  C9        -2.9320   39.5210   21.8550 C.3   901  OHH901      0.1358
      7  O4        -2.9560   39.1160   24.2720 O.2   901  OHH901     -0.2905
      8  C10       -2.3520   39.3740   23.2750 C.2   901  OHH901      0.1837
      9  C17        2.3640   40.1760   21.0080 C.ar  901  OHH901      0.0000
     10  C16        3.8200   40.1850   21.1240 C.ar  901  OHH901      0.0000
     11  C15        4.4960   39.8120   22.4010 C.ar  901  OHH901      0.0000
     12  C14        3.7350   39.4290   23.5770 C.ar  901  OHH901      0.0000
     13  C4B        2.2560   39.4040   23.5150 C.ar  901  OHH901      0.0001
     14  C8B        1.5370   39.7920   22.1730 C.ar  901  OHH901      0.0001
     15  C18        0.0900   39.7690   22.1240 C.ar  901  OHH901      0.0030
     16  C11       -0.7500   39.4000   23.2900 C.ar  901  OHH901      0.0398
     17  C12        0.0220   39.0200   24.6090 C.ar  901  OHH901      0.0564
     18  C13        1.4490   39.0360   24.6640 C.ar  901  OHH901      0.0046
     19  O5        -0.7760   39.4550   26.7870 O.2   901  OHH901     -0.2699
     20  C19       -0.6960   38.6020   25.9180 C.2   901  OHH901      0.2491
     21  C1        -6.4190   36.6120   21.5790 C.ar  901  OHH901     -0.0000
     22  C2        -6.5570   37.8010   22.3720 C.ar  901  OHH901     -0.0003
     23  C3        -5.4530   38.7280   22.4620 C.ar  901  OHH901     -0.0034
     24  C4        -4.1460   38.5610   21.7900 C.ar  901  OHH901     -0.0083
     25  C4A       -3.9600   37.3090   20.9430 C.ar  901  OHH901     -0.0031
     26  C8A       -5.1740   36.3100   20.8530 C.ar  901  OHH901     -0.0003
     27  C8        -5.0550   35.0740   20.0380 C.ar  901  OHH901     -0.0000
     28  C7        -3.8450   34.7600   19.3260 C.ar  901  OHH901     -0.0000
     29  C6        -2.6720   35.6700   19.3850 C.ar  901  OHH901     -0.0000
     30  C5        -2.7350   36.9050   20.1700 C.ar  901  OHH901     -0.0003
     31  N1        -1.2210   37.2420   26.0070 N.am  901  OHH901     -0.2758
     32  C20       -1.9190   36.9000   27.3000 C.3   901  OHH901      0.1151
     33  C24       -0.3070   33.8180   24.2730 C.3   901  OHH901      0.0954
     34  N2        -1.6750   33.6690   23.6100 N.am  901  OHH901     -0.2760
     35  C23       -2.2300   34.9570   23.1190 C.3   901  OHH901      0.0954
     36  C22       -2.4790   35.9600   24.2500 C.3   901  OHH901      0.0414
     37  C21       -1.1100   36.2310   24.9270 C.3   901  OHH901      0.0791
     38  C25       -0.4050   34.8710   25.4300 C.3   901  OHH901      0.0414
     39  C26       -2.2910   32.3560   23.5110 C.2   901  OHH901      0.2490
     40  C29       -5.1450   31.3170   20.9010 C.ar  901  OHH901      0.0001
     41  C28       -3.8670   31.4490   21.5610 C.ar  901  OHH901      0.0045
     42  C27       -3.6940   32.2360   22.8380 C.ar  901  OHH901      0.0536
     43  C34       -4.9050   32.8850   23.4090 C.ar  901  OHH901      0.0045
     44  C8C       -6.2190   32.7900   22.7900 C.ar  901  OHH901      0.0001
     45  C4C       -6.3570   31.9620   21.4620 C.ar  901  OHH901      0.0000
     46  C30       -7.7030   31.8690   20.8280 C.ar  901  OHH901      0.0000
     47  C31       -8.8580   32.5360   21.4370 C.ar  901  OHH901      0.0000
     48  C32       -8.7270   33.3190   22.6980 C.ar  901  OHH901      0.0000
     49  C33       -7.4320   33.4430   23.3610 C.ar  901  OHH901      0.0000
@<TRIPOS>BOND
     1    28    29   ar
     2    28    27   ar
     3    29    30   ar
     4    27    26   ar
     5    30    25   ar
     6     4     2    2
     7    46    47   ar
     8    46    45   ar
     9    26    25   ar
    10    26    21   ar
    11    40    45   ar
    12    40    41   ar
    13    25    24   ar
    14     9    10   ar
    15     9    14   ar
    16    10    11   ar
    17     3     2    1
    18    47    48   ar
    19     2     6    1
    20     2     5    1
    21    45    44   ar
    22    41    42   ar
    23    21    22   ar
    24    24     6    1
    25    24    23   ar
    26     6     8    1
    27    15    14   ar
    28    15    16   ar
    29    14    13   ar
    30    22    23   ar
    31    11    12   ar
    32    48    49   ar
    33    44    49   ar
    34    44    43   ar
    35    42    43   ar
    36    42    39    1
    37    35    34    1
    38    35    36    1
    39     8    16    1
    40     8     7    2
    41    16    17   ar
    42    39    34   am
    43    39     1    2
    44    13    12   ar
    45    13    18   ar
    46    34    33    1
    47    36    37    1
    48    33    38    1
    49    17    18   ar
    50    17    20    1
    51    37    38    1
    52    37    31    1
    53    20    31   am
    54    20    19    2
    55    31    32    1
