@<TRIPOS>MOLECULE
1t32_OHH_A_1.pdb
 49 55 0 0 0
SMALL
GASTEIGER

@<TRIPOS>ATOM
      1  O6        12.2900   76.8260    5.0230 O.2   901  OHH901     -0.2699
      2  P1        10.0080   67.5470    6.5890 P.3   901  OHH901      0.1282
      3  O1         8.4840   67.2520    6.8930 O.3   901  OHH901     -0.3566
      4  O3        10.3390   66.5300    5.5010 O.2   901  OHH901     -0.4593
      5  O2        10.8370   67.2750    7.7990 O.3   901  OHH901     -0.3566
      6  C9        10.4900   69.1160    5.9740 C.3   901  OHH901      0.1358
      7  O4         8.4970   69.7310    4.7890 O.2   901  OHH901     -0.2905
      8  C10        9.6560   69.4210    4.7300 C.2   901  OHH901      0.1837
      9  C17       13.4310   67.7340    1.5920 C.ar  901  OHH901      0.0000
     10  C16       14.0610   67.7070    0.2840 C.ar  901  OHH901      0.0000
     11  C15       13.4720   68.4660   -0.8420 C.ar  901  OHH901      0.0000
     12  C14       12.2600   69.2710   -0.7210 C.ar  901  OHH901      0.0000
     13  C4B       11.5830   69.3240    0.5990 C.ar  901  OHH901      0.0001
     14  C8B       12.1860   68.5200    1.8380 C.ar  901  OHH901      0.0001
     15  C18       11.5640   68.5460    3.1470 C.ar  901  OHH901      0.0030
     16  C11       10.3350   69.3490    3.3380 C.ar  901  OHH901      0.0398
     17  C12        9.7210   70.1350    2.1730 C.ar  901  OHH901      0.0564
     18  C13       10.3650   70.0990    0.8260 C.ar  901  OHH901      0.0046
     19  O5         7.4070   70.5060    1.7450 O.2   901  OHH901     -0.2699
     20  C19        8.4420   71.0440    2.1760 C.2   901  OHH901      0.2491
     21  C1        10.3350   72.5980    9.0280 C.ar  901  OHH901     -0.0000
     22  C2         9.1320   71.8380    8.8430 C.ar  901  OHH901     -0.0003
     23  C3         9.0680   70.6840    7.8760 C.ar  901  OHH901     -0.0034
     24  C4        10.2180   70.2350    7.0330 C.ar  901  OHH901     -0.0083
     25  C4A       11.5970   71.0600    7.1890 C.ar  901  OHH901     -0.0031
     26  C8A       11.5650   72.3060    8.2860 C.ar  901  OHH901     -0.0003
     27  C8        12.7960   73.1330    8.5200 C.ar  901  OHH901     -0.0000
     28  C7        14.0320   72.8690    7.7970 C.ar  901  OHH901     -0.0000
     29  C6        14.1110   71.7530    6.7840 C.ar  901  OHH901     -0.0000
     30  C5        12.9230   70.8980    6.5130 C.ar  901  OHH901     -0.0003
     31  N1         8.5290   72.4060    2.6580 N.am  901  OHH901     -0.2758
     32  C20        7.3100   73.2940    2.6650 C.3   901  OHH901      0.1151
     33  C24       12.2310   73.9170    2.7090 C.3   901  OHH901      0.0954
     34  N2        11.9620   74.8410    3.9140 N.am  901  OHH901     -0.2760
     35  C23       11.1900   74.1620    5.0490 C.3   901  OHH901      0.0954
     36  C22        9.7930   73.6660    4.4930 C.3   901  OHH901      0.0414
     37  C21        9.9780   72.8410    3.1350 C.3   901  OHH901      0.0791
     38  C25       10.8450   73.6000    2.0860 C.3   901  OHH901      0.0414
     39  C26       12.4400   76.1780    3.9610 C.2   901  OHH901      0.2490
     40  C29       15.2240   78.2560    1.9530 C.ar  901  OHH901      0.0001
     41  C28       14.4820   77.5740    3.0170 C.ar  901  OHH901      0.0045
     42  C27       13.1730   76.8880    2.7590 C.ar  901  OHH901      0.0536
     43  C34       12.6210   76.9100    1.3590 C.ar  901  OHH901      0.0045
     44  C8C       13.3130   77.5590    0.2870 C.ar  901  OHH901      0.0001
     45  C4C       14.6870   78.2730    0.5920 C.ar  901  OHH901      0.0000
     46  C30       15.3860   78.9230   -0.5060 C.ar  901  OHH901      0.0000
     47  C31       14.8020   78.9020   -1.8600 C.ar  901  OHH901      0.0000
     48  C32       13.5130   78.2410   -2.1440 C.ar  901  OHH901      0.0000
     49  C33       12.7730   77.5700   -1.0760 C.ar  901  OHH901      0.0000
@<TRIPOS>BOND
     1    48    47   ar
     2    48    49   ar
     3    47    46   ar
     4    49    44   ar
     5    11    12   ar
     6    11    10   ar
     7    12    13   ar
     8    46    45   ar
     9    10     9   ar
    10    44    45   ar
    11    44    43   ar
    12    45    40   ar
    13    13    18   ar
    14    13    14   ar
    15    18    17   ar
    16    43    42   ar
    17     9    14   ar
    18    19    20    2
    19    14    15   ar
    20    40    41   ar
    21    38    33    1
    22    38    37    1
    23    17    20    1
    24    17    16   ar
    25    20    31   am
    26    31    32    1
    27    31    37    1
    28    33    34    1
    29    42    41   ar
    30    42    39    1
    31    37    36    1
    32    15    16   ar
    33    16     8    1
    34    34    39   am
    35    34    35    1
    36    39     1    2
    37    36    35    1
    38     8     7    2
    39     8     6    1
    40     4     2    2
    41     6     2    1
    42     6    24    1
    43    30    29   ar
    44    30    25   ar
    45     2     3    1
    46     2     5    1
    47    29    28   ar
    48    24    25   ar
    49    24    23   ar
    50    25    26   ar
    51    28    27   ar
    52    23    22   ar
    53    26    27   ar
    54    26    21   ar
    55    22    21   ar
