@<TRIPOS>MOLECULE
1t36_U_A_1.pdb
 21 22 0 0 0
SMALL
GASTEIGER

@<TRIPOS>ATOM
      1  OP3       26.6760    9.5860   33.3070 O.3   1091  U1091      -0.1145
      2  P         25.1440    9.4250   33.9020 P.3   1091  U1091       0.5327
      3  OP1       25.0970    8.1720   34.7110 O.3   1091  U1091      -0.1145
      4  OP2       24.1690    9.3730   32.7710 O.2   1091  U1091      -0.2224
      5  O5'       24.8570   10.7010   34.8440 O.3   1091  U1091      -0.2675
      6  C5'       25.6720   10.8850   36.0140 C.3   1091  U1091       0.1859
      7  C4'       26.4270   12.1920   35.9370 C.3   1091  U1091       0.1801
      8  O4'       25.5750   13.2100   35.3580 O.3   1091  U1091      -0.3320
      9  C3'       26.9910   12.7480   37.2390 C.3   1091  U1091       0.2158
     10  O3'       28.2780   13.3940   37.0910 O.3   1091  U1091      -0.2175
     11  C2'       25.8510   13.6840   37.6480 C.3   1091  U1091       0.2319
     12  O2'       26.3900   14.7360   38.4480 O.3   1091  U1091      -0.2157
     13  C1'       25.3080   14.1910   36.3200 C.3   1091  U1091       0.2401
     14  N1        23.8580   14.5050   36.3540 N.am  1091  U1091      -0.1766
     15  C2        23.4640   15.5690   35.5860 C.1   1091  U1091       0.2845
     16  O2        24.2400   16.2120   34.8990 O.2   1091  U1091      -0.1918
     17  N3        22.1280   15.8690   35.6400 N.2   1091  U1091      -0.2452
     18  C4        21.1570   15.2130   36.3910 C.1   1091  U1091       0.2182
     19  O4        20.0090   15.6280   36.3510 O.2   1091  U1091      -0.2085
     20  C5        21.6590   14.1150   37.1430 C.2   1091  U1091       0.1242
     21  C6        22.9330   13.8040   37.1090 C.2   1091  U1091       0.0929
@<TRIPOS>BOND
     1     4     2    2
     2     1     2    1
     3     2     3    1
     4     2     5    1
     5     5     6    1
     6    16    15    2
     7     8     7    1
     8     8    13    1
     9    15    17    2
    10    15    14   am
    11    17    18    2
    12     7     6    1
    13     7     9    1
    14    13    14    1
    15    13    11    1
    16    19    18    2
    17    14    21    1
    18    18    20    1
    19    10     9    1
    20    21    20    2
    21     9    11    1
    22    11    12    1
