@<TRIPOS>MOLECULE
1t36_ADP_A_1.pdb
 27 29 0 0 0
SMALL
GASTEIGER

@<TRIPOS>ATOM
      1  PB        17.9070   29.1170   70.4020 P.3   1087  ADP1087     0.5373
      2  O1B       18.9630   30.1250   70.6800 O.3   1087  ADP1087    -0.1143
      3  O2B       18.1390   28.3630   69.1380 O.2   1087  ADP1087    -0.2221
      4  O3B       17.7130   28.2010   71.5730 O.3   1087  ADP1087    -0.1143
      5  PA        15.9570   31.1760   71.0450 P.3   1087  ADP1087     0.2231
      6  O1A       16.9920   31.9070   71.8320 O.3   1087  ADP1087    -0.4370
      7  O2A       14.7310   30.8650   71.8080 O.2   1087  ADP1087    -0.5169
      8  O3A       16.4960   29.9410   70.2940 O.3   1087  ADP1087    -0.2261
      9  O5'       15.4850   32.0480   69.7960 O.3   1087  ADP1087    -0.3111
     10  C5'       16.4070   32.4730   68.7620 C.3   1087  ADP1087     0.1813
     11  C4'       16.2390   33.9760   68.4840 C.3   1087  ADP1087     0.1821
     12  O4'       14.9360   34.2010   67.8750 O.3   1087  ADP1087    -0.3135
     13  C3'       16.2680   34.9240   69.7070 C.3   1087  ADP1087     0.2184
     14  O3'       17.6600   35.2850   70.0970 O.3   1087  ADP1087    -0.2174
     15  C2'       15.4360   36.0850   69.1840 C.3   1087  ADP1087     0.2570
     16  O2'       16.2140   37.0660   68.4380 O.3   1087  ADP1087    -0.2130
     17  C1'       14.4580   35.4570   68.2110 C.3   1087  ADP1087     0.3186
     18  N9        13.1280   35.3610   68.7700 N.pl3 1087  ADP1087    -0.1439
     19  C8        12.6690   34.5130   69.7100 C.3   1087  ADP1087     0.3377
     20  N7        11.3460   34.5680   69.8720 N.2   1087  ADP1087    -0.2095
     21  C5        10.9550   35.5980   69.0710 C.2   1087  ADP1087     0.2526
     22  C6         9.6610   36.1450   68.8340 C.2   1087  ADP1087     0.4393
     23  N6         8.5240   35.7080   69.4270 N.pl3 1087  ADP1087     0.2180
     24  N1         9.6340   37.1540   67.9170 N.2   1087  ADP1087     0.0021
     25  C2        10.8180   37.5500   67.3230 C.3   1087  ADP1087     0.5254
     26  N3        12.0340   37.1040   67.5100 N.2   1087  ADP1087    -0.0055
     27  C4        12.0500   36.1050   68.3930 C.2   1087  ADP1087     0.3518
@<TRIPOS>BOND
     1    25    26    1
     2    25    24    1
     3    26    27    2
     4    12    17    1
     5    12    11    1
     6    24    22    2
     7    17    18    1
     8    17    15    1
     9    27    18    1
    10    27    21    1
    11    16    15    1
    12    11    10    1
    13    11    13    1
    14    10     9    1
    15    18    19    1
    16    22    21    1
    17    22    23    1
    18    21    20    2
    19     3     1    2
    20    15    13    1
    21    13    14    1
    22    19    20    1
    23     9     5    1
    24     8     1    1
    25     8     5    1
    26     1     2    1
    27     1     4    1
    28     5     7    2
    29     5     6    1
