@<TRIPOS>MOLECULE
1t37_III_P_1.pdb
 39 39 0 0 0
SMALL
GASTEIGER

@<TRIPOS>ATOM
      1  N         29.0140   27.5360  -10.3920 N.3     1  LEU1       -0.1231
      2  CA        29.5320   28.6850  -11.1740 C.3     1  LEU1        0.1693
      3  C         30.1780   29.7670  -10.3280 C.2     1  LEU1        0.2592
      4  O         30.8620   30.6180  -10.8660 O.2     1  LEU1       -0.2718
      5  CB        28.4140   29.3200  -12.0390 C.3     1  LEU1        0.0284
      6  CG        27.0930   29.7320  -11.3800 C.3     1  LEU1        0.0019
      7  CD1       26.9870   31.2490  -11.2440 C.3     1  LEU1        0.0001
      8  CD2       25.9470   29.2180  -12.2490 C.3     1  LEU1        0.0001
      9  N         30.0410   29.7390   -9.0080 N.am    2  ALA2       -0.1966
     10  CA        30.6220   30.8610   -8.2750 C.3     2  ALA2        0.1728
     11  C         31.4450   30.6620   -6.9880 C.2     2  ALA2        0.2616
     12  O         31.2900   29.7120   -6.2260 O.2     2  ALA2       -0.2715
     13  CB        29.5560   31.8990   -8.0480 C.3     2  ALA2        0.0334
     14  N         32.3310   31.6440   -6.8420 N.am    3  ILE3       -0.1963
     15  CA        33.3670   31.9200   -5.8390 C.3     3  ILE3        0.1727
     16  C         33.3460   31.6480   -4.3210 C.2     3  ILE3        0.2616
     17  O         32.3190   31.5110   -3.6690 O.2     3  ILE3       -0.2715
     18  CB        33.7720   33.4100   -5.9810 C.3     3  ILE3        0.0290
     19  CG1       33.9450   33.7660   -7.4560 C.3     3  ILE3        0.0022
     20  CG2       35.0430   33.6730   -5.2640 C.3     3  ILE3        0.0023
     21  CD1       32.7050   34.4270   -8.0740 C.3     3  ILE3        0.0001
     22  N         34.5700   31.5980   -3.8050 N.am    4  TYR4       -0.1960
     23  CA        34.9500   31.4390   -2.4040 C.3     4  TYR4        0.1771
     24  C         35.7120   32.7580   -2.3320 C.2     4  TYR4        0.2617
     25  O         35.1180   33.8150   -2.3110 O.2     4  TYR4       -0.2715
     26  CB        35.9550   30.2820   -2.2160 C.3     4  TYR4        0.0574
     27  CG        35.7090   29.0890   -3.1180 C.ar    4  TYR4       -0.0198
     28  CD1       35.3400   29.2870   -4.4440 C.ar    4  TYR4       -0.0009
     29  CD2       35.8400   27.7730   -2.6650 C.ar    4  TYR4       -0.0009
     30  CE1       35.0990   28.2500   -5.3070 C.ar    4  TYR4        0.0417
     31  CE2       35.5990   26.6960   -3.5470 C.ar    4  TYR4        0.0417
     32  CZ        35.2250   26.9600   -4.8760 C.ar    4  TYR4        0.1957
     33  OH        34.9890   25.9640   -5.7960 O.3     4  TYR4       -0.2866
     34  N         37.0360   32.7090   -2.3660 N.am    5  SER5       -0.2003
     35  CA        37.8000   33.9560   -2.3610 C.3     5  SER5        0.1610
     36  C         39.1790   33.8700   -3.0350 C.3     5  SER5        0.2063
     37  O         39.2800   34.4980   -4.1140 O.3     5  SER5       -0.2184
     38  CB        37.9370   34.5130   -0.9270 C.3     5  SER5        0.2063
     39  OG        38.3490   33.5250    0.0040 O.3     5  SER5       -0.2184
@<TRIPOS>BOND
     1     8     6    1
     2     5     6    1
     3     5     2    1
     4     6     7    1
     5     2     1    1
     6     2     3    1
     7     4     3    2
     8     3     9   am
     9     9    10    1
    10    10    13    1
    11    10    11    1
    12    21    19    1
    13    19    18    1
    14    11    14   am
    15    11    12    2
    16    14    15    1
    17    18    15    1
    18    18    20    1
    19    15    16    1
    20    33    32    1
    21    30    32   ar
    22    30    28   ar
    23    32    31   ar
    24    28    27   ar
    25    16    22   am
    26    16    17    2
    27    37    36    1
    28    22    23    1
    29    31    29   ar
    30    27    29   ar
    31    27    26    1
    32    36    35    1
    33    23    24    1
    34    23    26    1
    35    34    35    1
    36    34    24   am
    37    35    38    1
    38    24    25    2
    39    38    39    1
