@<TRIPOS>MOLECULE
1t3e_III_P_1.pdb
 22 21 0 0 0
SMALL
GASTEIGER

@<TRIPOS>ATOM
      1  N         27.0920  123.4860  -20.9700 N.3   301  ASN301     -0.1210
      2  CA        25.9800  122.5390  -21.2840 C.3   301  ASN301      0.1956
      3  C         24.8600  123.1740  -22.0860 C.2   301  ASN301      0.2612
      4  O         24.6290  124.3840  -21.9990 O.2   301  ASN301     -0.2717
      5  N         24.1660  122.3560  -22.8730 N.am  302  ALA302     -0.1965
      6  CA        23.0250  122.8260  -23.6560 C.3   302  ALA302      0.1728
      7  C         21.9170  123.2980  -22.7180 C.2   302  ALA302      0.2616
      8  O         21.6630  122.6770  -21.6830 O.2   302  ALA302     -0.2715
      9  CB        22.5220  121.7370  -24.6020 C.3   302  ALA302      0.0334
     10  N         21.2760  124.4060  -23.0790 N.am  303  ALA303     -0.1963
     11  CA        20.2910  125.0510  -22.2090 C.3   303  ALA303      0.1728
     12  C         18.9670  124.2760  -22.0590 C.2   303  ALA303      0.2617
     13  O         18.8990  123.3040  -21.2960 O.2   303  ALA303     -0.2715
     14  CB        20.0470  126.5050  -22.6560 C.3   303  ALA303      0.0334
     15  N         17.9300  124.7090  -22.7830 N.am  304  LYS304     -0.1940
     16  CA        16.5880  124.1540  -22.6590 C.3   304  LYS304      0.2017
     17  C         15.8360  124.7250  -21.4700 C.2   304  LYS304      0.2678
     18  O         16.3200  124.6450  -20.3400 O.2   304  LYS304     -0.2710
     19  N         14.6590  125.2990  -21.7210 N.am  305  LYS305     -0.1729
     20  CA        13.8630  125.9060  -20.6600 C.2   305  LYS305      0.1340
     21  C         12.4560  126.3680  -21.0160 C.2   305  LYS305      0.2521
     22  O         12.2460  127.4780  -21.5140 O.2   305  LYS305     -0.2816
@<TRIPOS>BOND
     1     9     6    1
     2     6     5    1
     3     6     7    1
     4    10     7   am
     5    10    11    1
     6     5     3   am
     7    15    16    1
     8    15    12   am
     9     7     8    2
    10    16    17    1
    11    14    11    1
    12    11    12    1
    13     3     4    2
    14     3     2    1
    15    12    13    2
    16    19    17    1
    17    19    20    2
    18    22    21    2
    19    17    18    2
    20     2     1    1
    21    21    20    1
