@<TRIPOS>MOLECULE
1t3i_2OS_A_1.pdb
 32 33 0 0 0
SMALL
GASTEIGER

@<TRIPOS>ATOM
      1  C4         4.8660   44.5140   -6.4910 C.2   602  2OS602      0.3170
      2  C7         5.0370   44.2350   -4.9840 C.3   602  2OS602      0.1096
      3  C8         4.5420   45.4810   -4.1860 C.3   602  2OS602      0.0116
      4  C9         4.8580   45.1900   -2.6880 C.3   602  2OS602      0.0006
      5  C10        4.5690   46.4410   -1.8990 C.3   602  2OS602      0.0000
      6  C11        4.9860   46.1340   -0.4640 C.3   602  2OS602      0.0000
      7  C12        4.8760   47.3360    0.4040 C.3   602  2OS602      0.0000
      8  C1         3.4990   41.6770  -14.1130 C.3   602  2OS602      0.1835
      9  C2         4.2650   42.9890  -14.2660 C.3   602  2OS602      0.2167
     10  C3         3.4230   44.0010  -13.4970 C.3   602  2OS602      0.2381
     11  C13        2.7170   43.2860  -12.3950 C.3   602  2OS602      0.2516
     12  O2         2.4640   41.8930  -12.9260 O.3   602  2OS602     -0.3272
     13  O4         4.3630   43.3360  -15.6680 O.3   602  2OS602     -0.2175
     14  C17        4.3090   40.4560  -13.9330 C.3   602  2OS602      0.2142
     15  O1         3.3010   39.3770  -13.9240 O.3   602  2OS602     -0.2176
     16  C18        1.4210   44.0120  -12.0680 C.3   602  2OS602      0.2406
     17  O3         0.7980   43.3680  -11.0350 O.3   602  2OS602     -0.2149
     18  O5         4.1870   45.2420  -13.0250 O.3   602  2OS602     -0.2150
     19  C21        3.9690   42.0730  -10.3360 C.3   602  2OS602      0.2724
     20  C24        4.0080   42.4920   -8.8480 C.3   602  2OS602      0.2502
     21  C27        5.3930   43.2770   -8.5640 C.3   602  2OS602      0.2366
     22  C16        6.5970   42.4180   -8.9690 C.3   602  2OS602      0.2240
     23  C29        6.4440   42.1250  -10.5620 C.3   602  2OS602      0.1846
     24  O9         2.8580   43.2830   -8.5540 O.3   602  2OS602     -0.2137
     25  O11        5.4900   43.5880   -7.1180 O.3   602  2OS602     -0.4466
     26  O13        7.7100   43.2450   -8.6930 O.3   602  2OS602     -0.2164
     27  O15        5.1690   41.3720  -10.7280 O.3   602  2OS602     -0.3255
     28  O6         3.7650   43.2160  -11.2330 O.3   602  2OS602     -0.3033
     29  C32        7.5890   41.2710  -11.0730 C.3   602  2OS602      0.2142
     30  O17        7.6540   39.9800  -10.2590 O.3   602  2OS602     -0.2176
     31  C31        3.4680   47.5530    0.9370 C.3   602  2OS602      0.0000
     32  O7         4.6100   45.6560   -7.0920 O.2   602  2OS602     -0.2501
@<TRIPOS>BOND
     1    13     9    1
     2     9     8    1
     3     9    10    1
     4     8    14    1
     5     8    12    1
     6    14    15    1
     7    10    18    1
     8    10    11    1
     9    12    11    1
    10    11    16    1
    11    11    28    1
    12    16    17    1
    13    28    19    1
    14    29    23    1
    15    29    30    1
    16    27    23    1
    17    27    19    1
    18    23    22    1
    19    19    20    1
    20    22    26    1
    21    22    21    1
    22    20    21    1
    23    20    24    1
    24    21    25    1
    25    25     1    1
    26    32     1    2
    27     1     2    1
    28     2     3    1
    29     3     4    1
    30     4     5    1
    31     5     6    1
    32     6     7    1
    33     7    31    1
