@<TRIPOS>MOLECULE
1t3i_PLP_A_1.pdb
 15 15 0 0 0
SMALL
GASTEIGER

@<TRIPOS>ATOM
      1  N1         9.7040   38.8060   12.3840 N.ar  600  PLP600     -0.2452
      2  C2         8.3660   38.9230   11.8460 C.ar  600  PLP600      0.0978
      3  C2A        8.1230   38.2910   10.4880 C.3   600  PLP600      0.0555
      4  C3         7.3490   39.6240   12.6850 C.ar  600  PLP600      0.2049
      5  O3         6.1300   39.6910   12.2290 O.3   600  PLP600     -0.2857
      6  C4         7.6690   40.2440   13.9700 C.ar  600  PLP600      0.0182
      7  C4A        6.5370   40.7470   14.8180 C.3   600  PLP600      0.0342
      8  C5         9.0190   40.0310   14.5230 C.ar  600  PLP600      0.0261
      9  C6        10.0520   39.3290   13.6960 C.ar  600  PLP600      0.0965
     10  C5A        9.3060   40.5640   15.8510 C.3   600  PLP600      0.1815
     11  O4P       10.0710   40.2110   16.6610 O.3   600  PLP600     -0.2653
     12  P          9.8320   40.7200   18.1800 P.3   600  PLP600      0.5329
     13  O1P       11.1220   40.3900   18.7380 O.3   600  PLP600     -0.1145
     14  O2P        8.6750   40.0700   18.8030 O.3   600  PLP600     -0.1145
     15  O3P        9.5510   42.1860   18.1450 O.2   600  PLP600     -0.2224
@<TRIPOS>BOND
     1     3     2    1
     2     2     1   ar
     3     2     4   ar
     4     5     4    1
     5     1     9   ar
     6     4     6   ar
     7     9     8   ar
     8     6     8   ar
     9     6     7    1
    10     8    10    1
    11    10    11    1
    12    11    12    1
    13    15    12    2
    14    12    13    1
    15    12    14    1
