@<TRIPOS>MOLECULE
1t3n_TTP_B_1.pdb
 29 30 0 0 0
SMALL
GASTEIGER

@<TRIPOS>ATOM
      1  PA        81.0790   14.2560   -1.4650 P.3   868  TTP868      0.2189
      2  O1A       82.1030   14.7380   -2.1710 O.3   868  TTP868     -0.4371
      3  O2A       80.0410   13.9780   -2.5790 O.2   868  TTP868     -0.5170
      4  O3A       81.4560   12.8190   -0.6500 O.3   868  TTP868     -0.2700
      5  PB        82.9970   12.1630   -0.6740 P.3   868  TTP868      0.2277
      6  O1B       83.1210   11.4200    0.6960 O.3   868  TTP868     -0.4368
      7  O2B       84.0960   13.2830   -0.7220 O.2   868  TTP868     -0.5168
      8  O3B       83.2360   11.0830   -1.9330 O.3   868  TTP868     -0.2258
      9  PG        84.3910   11.2250   -3.1420 P.3   868  TTP868      0.5373
     10  O1G       84.5860   12.7440   -3.5090 O.3   868  TTP868     -0.1143
     11  O2G       83.8390   10.4460   -4.3750 O.2   868  TTP868     -0.2221
     12  O3G       85.7660   10.6240   -2.7090 O.3   868  TTP868     -0.1143
     13  O5'       80.8190   15.0840   -0.3710 O.3   868  TTP868     -0.3112
     14  C5'       81.9400   15.3510    0.7630 C.3   868  TTP868      0.1812
     15  C4'       81.5440   15.1450    2.2290 C.3   868  TTP868      0.1773
     16  O4'       80.2970   15.7350    2.5920 O.3   868  TTP868     -0.3342
     17  C3'       81.4770   13.6570    2.5120 C.3   868  TTP868      0.1857
     18  O3'       82.5610   13.4230    3.3970 O.3   868  TTP868     -0.2203
     19  C2'       80.1180   13.3900    3.1190 C.3   868  TTP868      0.0871
     20  C1'       79.4870   14.7680    3.2510 C.3   868  TTP868      0.2052
     21  N1        78.0920   14.5950    2.4940 N.am  868  TTP868     -0.1977
     22  C2        76.9360   14.6200    3.3260 C.1   868  TTP868      0.2807
     23  O2        77.0020   14.6890    4.5510 O.2   868  TTP868     -0.1922
     24  N3        75.6820   14.4280    2.8440 N.2   868  TTP868     -0.2457
     25  C4        75.4590   14.3840    1.4900 C.1   868  TTP868      0.2138
     26  O4        74.1920   14.2050    1.1240 O.2   868  TTP868     -0.2088
     27  C5        76.5800   14.3120    0.5620 C.2   868  TTP868      0.0940
     28  C5M       76.4460   14.2910   -0.4090 C.2   868  TTP868      0.0105
     29  C6        77.8530   14.5300    1.1360 C.3   868  TTP868      0.1450
@<TRIPOS>BOND
     1    11     9    2
     2    10     9    1
     3     9    12    1
     4     9     8    1
     5     3     1    2
     6     2     1    1
     7     8     5    1
     8     1     4    1
     9     1    13    1
    10     7     5    2
    11     5     4    1
    12     5     6    1
    13    28    27    2
    14    13    14    1
    15    27    29    1
    16    27    25    1
    17    14    15    1
    18    26    25    2
    19    29    21    1
    20    25    24    2
    21    15    17    1
    22    15    16    1
    23    21    20    1
    24    21    22   am
    25    17    19    1
    26    17    18    1
    27    16    20    1
    28    24    22    2
    29    19    20    1
    30    22    23    2
