@<TRIPOS>MOLECULE
1t3p_RU7_A_1.pdb
 13 11 0 0 0
SMALL
GASTEIGER

@<TRIPOS>ATOM
      1  C10      -11.9310    8.5520   16.1410 C.3   233  RU7233      0.0000
      2  C8       -11.1950    9.6790   15.4130 C.3   233  RU7233      0.0000
      3  C9       -10.9400   10.8380   16.3590 C.3   233  RU7233      0.0000
      4  C4        -9.9610    9.1130   14.8010 C.ar  233  RU7233      0.0000
      5  C5        -8.8660    8.6920   15.5660 C.ar  233  RU7233      0.0000
      6  C6        -7.7390    8.1420   14.9390 C.ar  233  RU7233      0.0000
      7  C3        -9.9150    8.9730   13.4200 C.ar  233  RU7233      0.0000
      8  C2        -8.7940    8.4190   12.7880 C.ar  233  RU7233      0.0000
      9  C1        -7.7000    8.0070   13.5500 C.ar  233  RU7233      0.0000
     10  C7        -6.4900    7.4260   12.8540 C.3   233  RU7233      0.0000
     11 RU1        -8.0970   10.2010   13.8850 Ru    233  RU7233      0.0000
     12 CL1        -5.8030   10.8600   13.4290 Cl    233  RU7233      0.0000
     13 CL2        -8.7240   11.8290   12.3280 Cl    233  RU7233      0.0000
@<TRIPOS>BOND
     1     8     7   ar
     2     8     9   ar
     3     8    11    1
     4    10     9    1
     5     7     4   ar
     6     9     6   ar
     7     4     2    1
     8     4     5   ar
     9     6     5   ar
    10     2     1    1
    11     2     3    1
