@<TRIPOS>MOLECULE
1t3q_MCN_B_1.pdb
 44 48 0 0 0
SMALL
GASTEIGER

@<TRIPOS>ATOM
      1  N1        67.0920    5.5670   21.0410 N.am  4921  MCN4921    -0.1778
      2  C2        66.6160    6.6670   20.2550 C.1   4921  MCN4921     0.2756
      3  N3        66.6950    6.4370   18.8900 N.2   4921  MCN4921    -0.3024
      4  C4        67.1790    5.2920   18.2660 C.2   4921  MCN4921     0.2346
      5  C5        67.6650    4.2030   19.1220 C.2   4921  MCN4921     0.0687
      6  C6        67.6170    4.3400   20.4890 C.2   4921  MCN4921     0.0836
      7  O2        66.2210    7.6850   20.7780 O.2   4921  MCN4921    -0.1925
      8  N4        67.2000    5.1810   16.9550 N.pl3 4921  MCN4921    -0.0921
      9  C1'       66.9810    5.7720   22.5980 C.3   4921  MCN4921     0.2400
     10  C2D       65.6770    5.0700   23.1940 C.3   4921  MCN4921     0.2319
     11  O2'       65.1540    5.8590   24.3210 O.3   4921  MCN4921    -0.2157
     12  C3'       66.1670    3.6850   23.5610 C.3   4921  MCN4921     0.2158
     13  C4D       67.5740    3.8970   24.0670 C.3   4921  MCN4921     0.1799
     14  O4D       68.0550    5.1450   23.3560 O.3   4921  MCN4921    -0.3320
     15  O3'       65.2980    3.1090   24.5980 O.3   4921  MCN4921    -0.2175
     16  C5'       68.5190    2.6660   23.9680 C.3   4921  MCN4921     0.1813
     17  O5'       68.4250    2.2260   22.6360 O.3   4921  MCN4921    -0.3112
     18  PA        68.0330    0.7620   22.1940 P.3   4921  MCN4921     0.2189
     19  O1A       66.6720    0.8660   21.5780 O.3   4921  MCN4921    -0.4371
     20  O2A       69.2330    0.2810   21.3960 O.2   4921  MCN4921    -0.5170
     21  O3A       68.0200   -0.3240   23.4060 O.3   4921  MCN4921    -0.2703
     22  PB        66.9640   -0.5760   24.5830 P.3   4921  MCN4921     0.2189
     23  O1B       66.4280   -1.9580   24.3970 O.2   4921  MCN4921    -0.5170
     24  O2B       65.9720    0.5460   24.6770 O.3   4921  MCN4921    -0.4371
     25  O3B       67.8640   -0.5000   25.9090 O.3   4921  MCN4921    -0.3109
     26  C10       68.6140   -1.6090   26.3360 C.3   4921  MCN4921     0.1837
     27  C9'       70.0360   -1.2880   26.0100 C.3   4921  MCN4921     0.1762
     28  C8'       70.8460   -2.4830   26.5650 C.2   4921  MCN4921     0.0473
     29  S8'       70.4840   -4.0640   25.8140 S.3   4921  MCN4921    -0.0526
     30  C7'       71.7860   -2.4260   27.5110 C.2   4921  MCN4921     0.0449
     31  S7'       72.6970   -3.8220   28.1520 S.3   4921  MCN4921    -0.0530
     32  C6'       72.0690   -1.0360   28.1750 C.3   4921  MCN4921     0.1850
     33  C7        71.7290    0.0870   27.2320 C.3   4921  MCN4921     0.2573
     34  O9'       70.4000   -0.0310   26.7510 O.3   4921  MCN4921    -0.3271
     35  N5'       71.3610   -1.0810   29.5210 N.2   4921  MCN4921    -0.2411
     36  C4A       71.2480    0.2810   30.0090 C.2   4921  MCN4921     0.2467
     37  N8'       71.8530    1.4120   27.9290 N.2   4921  MCN4921    -0.1763
     38  C4B       71.5160    1.4740   29.3130 C.1   4921  MCN4921     0.1293
     39  N1'       71.3890    2.7880   29.8300 N.2   4921  MCN4921    -0.2682
     40  C2'       70.9720    2.8550   31.1160 C.1   4921  MCN4921     0.2608
     41  N2'       70.8490    4.0850   31.6600 N.pl3 4921  MCN4921    -0.0220
     42  N3'       70.6560    1.7420   31.8690 N.2   4921  MCN4921    -0.2474
     43  C4'       70.7450    0.3760   31.4070 C.1   4921  MCN4921     0.2441
     44  O4'       70.4490   -0.5440   32.1300 O.2   4921  MCN4921    -0.2063
@<TRIPOS>BOND
     1     8     4    1
     2     4     3    2
     3     4     5    1
     4     3     2    2
     5     5     6    2
     6     2     7    2
     7     2     1   am
     8     6     1    1
     9     1     9    1
    10    20    18    2
    11    19    18    1
    12    18    17    1
    13    18    21    1
    14     9    10    1
    15     9    14    1
    16    17    16    1
    17    10    12    1
    18    10    11    1
    19    14    13    1
    20    21    22    1
    21    12    13    1
    22    12    15    1
    23    16    13    1
    24    23    22    2
    25    22    24    1
    26    22    25    1
    27    29    28    1
    28    25    26    1
    29    27    26    1
    30    27    28    1
    31    27    34    1
    32    28    30    2
    33    34    33    1
    34    33    37    1
    35    33    32    1
    36    30    31    1
    37    30    32    1
    38    37    38    2
    39    32    35    1
    40    38    39    2
    41    38    36    1
    42    35    36    2
    43    39    40    2
    44    36    43    1
    45    40    41    1
    46    40    42    2
    47    43    42    2
    48    43    44    2
