@<TRIPOS>MOLECULE
1t3r_017_A_1.pdb
 38 41 0 0 0
SMALL
GASTEIGER

@<TRIPOS>ATOM
      1  N1        14.2790   34.9250   18.2200 N.pl3 1200  0171200    -0.1281
      2  C2        15.1950   34.3300   17.3800 C.ar  1200  0171200     0.0892
      3  C3        16.1930   35.1690   16.7600 C.ar  1200  0171200     0.0194
      4  C4        17.1800   34.5130   15.8670 C.ar  1200  0171200     0.0213
      5  C5        17.0120   33.2200   15.6160 C.ar  1200  0171200     0.1223
      6  C6        15.9190   32.4720   16.1870 C.ar  1200  0171200     0.0213
      7  C7        14.9790   33.1070   17.0030 C.ar  1200  0171200     0.0194
      8  S8        18.1360   32.3310   14.6600 S.O2  1200  0171200     0.0634
      9  O9        18.7560   33.2470   13.7850 O.2   1200  0171200    -0.1528
     10  O10       17.4530   31.2210   14.0980 O.2   1200  0171200    -0.1528
     11  N11       19.3160   31.7080   15.5980 N.3   1200  0171200    -0.1529
     12  C12       20.1280   32.6990   16.3530 C.3   1200  0171200     0.0958
     13  C13       21.6280   32.3550   16.4320 C.3   1200  0171200     0.0178
     14  C14       22.2790   32.3170   15.0340 C.3   1200  0171200     0.0015
     15  C15       22.2820   33.4010   17.3290 C.3   1200  0171200     0.0015
     16  C16       19.0630   30.4330   16.2940 C.3   1200  0171200     0.1304
     17  C17       19.9620   29.3370   15.7380 C.3   1200  0171200     0.1898
     18  O18       19.8950   28.2060   16.6040 O.3   1200  0171200    -0.2197
     19  C19       19.5990   28.8950   14.2970 C.3   1200  0171200     0.1347
     20  N20       20.7090   28.0310   13.8050 N.am  1200  0171200    -0.1675
     21  C21       21.5660   28.4050   12.8870 C.2   1200  0171200     0.4211
     22  O22       21.6340   29.4420   12.2990 O.2   1200  0171200    -0.2246
     23  O23       22.4690   27.4020   12.6550 O.3   1200  0171200    -0.4345
     24  C24       23.3210   27.5110   11.4960 C.3   1200  0171200     0.2048
     25  C25       24.6400   26.8960   11.9120 C.3   1200  0171200     0.1884
     26  O26       24.4130   25.4750   11.8330 O.3   1200  0171200    -0.3265
     27  C27       23.4930   25.2270   10.7790 C.3   1200  0171200     0.2388
     28  O28       22.4830   24.3630   11.2360 O.3   1200  0171200    -0.3304
     29  C29       21.1930   25.0630   11.2960 C.3   1200  0171200     0.1451
     30  C30       21.3630   26.2560   10.3830 C.3   1200  0171200     0.0409
     31  C31       22.8390   26.5370   10.3960 C.3   1200  0171200     0.1016
     32  C32       18.3070   28.1490   14.1660 C.3   1200  0171200     0.0508
     33  C33       18.0540   26.4000   12.3630 C.ar  1200  0171200    -0.0042
     34  C34       17.8310   26.0250   11.0510 C.ar  1200  0171200    -0.0003
     35  C35       17.5970   26.9810   10.0980 C.ar  1200  0171200    -0.0000
     36  C36       17.5500   28.2930   10.4600 C.ar  1200  0171200    -0.0003
     37  C37       17.7650   28.6740   11.7670 C.ar  1200  0171200    -0.0042
     38  C38       18.0240   27.7330   12.7570 C.ar  1200  0171200    -0.0204
@<TRIPOS>BOND
     1    35    36   ar
     2    35    34   ar
     3    30    31    1
     4    30    29    1
     5    31    27    1
     6    31    24    1
     7    36    37   ar
     8    27    28    1
     9    27    26    1
    10    34    33   ar
    11    28    29    1
    12    24    25    1
    13    24    23    1
    14    37    38   ar
    15    26    25    1
    16    22    21    2
    17    33    38   ar
    18    23    21    1
    19    38    32    1
    20    21    20   am
    21     9     8    2
    22    20    19    1
    23    10     8    2
    24    32    19    1
    25    19    17    1
    26     8    11    1
    27     8     5    1
    28    14    13    1
    29    11    16    1
    30    11    12    1
    31     5     4   ar
    32     5     6   ar
    33    17    16    1
    34    17    18    1
    35     4     3   ar
    36     6     7   ar
    37    12    13    1
    38    13    15    1
    39     3     2   ar
    40     7     2   ar
    41     2     1    1
