@<TRIPOS>MOLECULE
1t3t_ADP_A_1.pdb
 27 29 0 0 0
SMALL
GASTEIGER

@<TRIPOS>ATOM
      1  PB        93.7690   86.1420  -53.1460 P.3   2005  ADP2005     0.5373
      2  O1B       93.6050   87.6040  -53.0560 O.3   2005  ADP2005    -0.1143
      3  O2B       92.7390   85.4150  -53.9160 O.2   2005  ADP2005    -0.2221
      4  O3B       95.1570   85.7250  -53.7330 O.3   2005  ADP2005    -0.1143
      5  PA        93.3360   84.2910  -50.8960 P.3   2005  ADP2005     0.2231
      6  O1A       94.2280   83.1970  -51.2790 O.2   2005  ADP2005    -0.5169
      7  O2A       91.8650   84.2030  -51.1280 O.3   2005  ADP2005    -0.4370
      8  O3A       93.7880   85.6820  -51.5830 O.3   2005  ADP2005    -0.2261
      9  O5'       93.5340   84.6440  -49.3640 O.3   2005  ADP2005    -0.3111
     10  C5'       92.6760   85.6010  -48.7050 C.3   2005  ADP2005     0.1813
     11  C4'       93.4390   86.3000  -47.5810 C.3   2005  ADP2005     0.1821
     12  O4'       94.0170   85.3210  -46.7150 O.3   2005  ADP2005    -0.3135
     13  C3'       94.5750   87.1880  -48.0580 C.3   2005  ADP2005     0.2184
     14  O3'       94.5760   88.3200  -47.2070 O.3   2005  ADP2005    -0.2174
     15  C2'       95.8150   86.3200  -47.8150 C.3   2005  ADP2005     0.2570
     16  O2'       97.0070   87.0050  -47.5810 O.3   2005  ADP2005    -0.2130
     17  C1'       95.4130   85.4860  -46.5930 C.3   2005  ADP2005     0.3186
     18  N9        96.0240   84.1470  -46.6010 N.pl3 2005  ADP2005    -0.1439
     19  C8        95.8020   83.1390  -47.5160 C.3   2005  ADP2005     0.3377
     20  N7        96.5010   82.0610  -47.2480 N.2   2005  ADP2005    -0.2095
     21  C5        97.2300   82.3820  -46.0870 C.2   2005  ADP2005     0.2526
     22  C6        98.1510   81.6530  -45.3270 C.2   2005  ADP2005     0.4393
     23  N6        98.5230   80.4480  -45.6090 N.pl3 2005  ADP2005     0.2180
     24  N1        98.6260   82.3320  -44.2580 N.2   2005  ADP2005     0.0021
     25  C2        98.2870   83.5880  -43.9210 C.3   2005  ADP2005     0.5254
     26  N3        97.4210   84.3410  -44.6140 N.2   2005  ADP2005    -0.0055
     27  C4        96.9590   83.6620  -45.6540 C.2   2005  ADP2005     0.3518
@<TRIPOS>BOND
     1     3     1    2
     2     4     1    1
     3     1     2    1
     4     1     8    1
     5     8     5    1
     6     6     5    2
     7     7     5    1
     8     5     9    1
     9     9    10    1
    10    10    11    1
    11    13    15    1
    12    13    11    1
    13    13    14    1
    14    15    16    1
    15    15    17    1
    16    11    12    1
    17    19    20    1
    18    19    18    1
    19    20    21    2
    20    12    17    1
    21    18    17    1
    22    18    27    1
    23    21    27    1
    24    21    22    1
    25    27    26    2
    26    23    22    1
    27    22    24    2
    28    26    25    1
    29    24    25    1
