@<TRIPOS>MOLECULE
1t3z_CAO_A_1.pdb
 49 51 0 0 0
SMALL
GASTEIGER

@<TRIPOS>ATOM
      1  N1A      -47.2220   14.5200   31.9520 N.2   429  CAO429      0.0021
      2  C2A      -46.6300   13.3780   32.3530 C.3   429  CAO429      0.5254
      3  N3A      -45.5670   12.8480   31.7090 N.2   429  CAO429     -0.0055
      4  C4A      -45.0570   13.4650   30.6140 C.2   429  CAO429      0.3518
      5  C5A      -45.6280   14.6850   30.1200 C.2   429  CAO429      0.2526
      6  C6A      -46.7890   15.2170   30.8690 C.2   429  CAO429      0.4393
      7  N6A      -47.3920   16.3630   30.4760 N.pl3 429  CAO429      0.2180
      8  N7A      -44.9060   15.0760   29.0080 N.2   429  CAO429     -0.2095
      9  C8A      -43.9380   14.0820   28.8820 C.3   429  CAO429      0.3377
     10  N9A      -44.0310   13.1190   29.8460 N.pl3 429  CAO429     -0.1439
     11  C1B      -43.2830   11.8630   30.1740 C.3   429  CAO429      0.3185
     12  C2B      -43.2170   10.8430   29.0320 C.3   429  CAO429      0.2543
     13  O2B      -44.1870    9.8040   29.1080 O.3   429  CAO429     -0.2131
     14  C3B      -41.7890   10.3270   29.0270 C.3   429  CAO429      0.1928
     15  O3B      -41.8810    8.9230   29.3380 O.3   429  CAO429     -0.2673
     16  P3B      -41.0390    8.0380   30.4050 P.3   429  CAO429      0.5327
     17  O7A      -41.8410    6.6910   30.6640 O.3   429  CAO429     -0.1145
     18  O8A      -40.8760    8.7730   31.8050 O.3   429  CAO429     -0.1145
     19  O9A      -39.5980    7.7090   29.8050 O.2   429  CAO429     -0.2224
     20  C4B      -41.0100   11.1560   30.0560 C.3   429  CAO429      0.1795
     21  O4B      -41.9430   12.0670   30.6570 O.3   429  CAO429     -0.3136
     22  C5B      -39.7690   11.8510   29.4850 C.3   429  CAO429      0.1812
     23  O5B      -40.0490   12.3890   28.1910 O.3   429  CAO429     -0.3112
     24  P1A      -38.9290   12.5670   27.0380 P.3   429  CAO429      0.2189
     25  O1A      -39.6820   12.8920   25.6820 O.2   429  CAO429     -0.5170
     26  O2A      -37.9780   11.3120   26.8950 O.3   429  CAO429     -0.4371
     27  O3A      -38.1050   13.8220   27.5980 O.3   429  CAO429     -0.2703
     28  P2A      -36.5590   13.9590   27.2350 P.3   429  CAO429      0.2188
     29  O4A      -35.7360   12.6590   27.6300 O.2   429  CAO429     -0.5170
     30  O5A      -35.9110   15.2490   27.8970 O.3   429  CAO429     -0.4371
     31  O6A      -36.7120   14.1600   25.6390 O.3   429  CAO429     -0.3138
     32  CBP      -36.0340   14.1040   23.2830 C.3   429  CAO429      0.0645
     33  CCP      -35.6070   14.1970   24.7470 C.3   429  CAO429      0.1519
     34  CDP      -36.5870   15.4310   22.7630 C.3   429  CAO429      0.0056
     35  CEP      -34.7560   13.8050   22.5100 C.3   429  CAO429      0.0056
     36  CAP      -37.1190   13.0190   23.1360 C.3   429  CAO429      0.2312
     37  OAP      -38.3990   13.5660   23.4480 O.3   429  CAO429     -0.2131
     38  C9P      -37.1400   12.4040   21.7530 C.2   429  CAO429      0.2719
     39  O9P      -36.3400   11.5280   21.4800 O.2   429  CAO429     -0.2706
     40  N8P      -38.0330   12.8670   20.8790 N.am  429  CAO429     -0.2028
     41  C7P      -38.0770   12.4590   19.4830 C.3   429  CAO429      0.1249
     42  C6P      -37.1130   13.3520   18.6950 C.3   429  CAO429      0.1105
     43  C5P      -37.6670   14.7500   18.4500 C.2   429  CAO429      0.2471
     44  O5P      -38.7920   14.8320   17.9770 O.2   429  CAO429     -0.2729
     45  N4P      -36.8920   15.8440   18.6870 N.am  429  CAO429     -0.1815
     46  C3P      -37.3290   17.1930   18.2140 C.2   429  CAO429      0.0777
     47  C2P      -36.5580   18.4300   18.6250 C.3   429  CAO429      0.1491
     48  S1P      -34.8160   18.3040   18.3500 S.3   429  CAO429      0.1277
     49  O1P      -34.0430   19.6470   18.2910 O.2   429  CAO429     -0.2425
@<TRIPOS>BOND
     1    44    43    2
     2    46    47    1
     3    46    45    2
     4    49    48    2
     5    48    47    1
     6    43    45    1
     7    43    42    1
     8    42    41    1
     9    41    40    1
    10    40    38   am
    11    39    38    2
    12    38    36    1
    13    35    32    1
    14    34    32    1
    15    36    32    1
    16    36    37    1
    17    32    33    1
    18    33    31    1
    19    31    28    1
    20    25    24    2
    21    26    24    1
    22    24    27    1
    23    24    23    1
    24    28    27    1
    25    28    29    2
    26    28    30    1
    27    23    22    1
    28     9     8    1
    29     9    10    1
    30     8     5    2
    31    14    12    1
    32    14    15    1
    33    14    20    1
    34    12    13    1
    35    12    11    1
    36    15    16    1
    37    22    20    1
    38    19    16    2
    39    10    11    1
    40    10     4    1
    41    20    21    1
    42     5     4    1
    43     5     6    1
    44    11    21    1
    45    16    17    1
    46    16    18    1
    47     7     6    1
    48     4     3    2
    49     6     1    2
    50     3     2    1
    51     1     2    1
