@<TRIPOS>MOLECULE
1t40_NAP_A_1.pdb
 48 52 0 0 0
SMALL
GASTEIGER

@<TRIPOS>ATOM
      1  PA        22.7080   -4.9050   27.1800 P.3   318  NAP318      0.2189
      2  O1A       23.6000   -3.8310   26.6790 O.2   318  NAP318     -0.5170
      3  O2A       21.7130   -4.5910   28.2180 O.3   318  NAP318     -0.4371
      4  O5B       23.6540   -6.1170   27.6610 O.3   318  NAP318     -0.3112
      5  C5B       23.0840   -7.3400   28.1520 C.3   318  NAP318      0.1813
      6  C4B       24.2420   -8.2030   28.6010 C.3   318  NAP318      0.1820
      7  O4B       24.9380   -7.5810   29.7000 O.3   318  NAP318     -0.3136
      8  C3B       23.8440   -9.5810   29.0830 C.3   318  NAP318      0.2157
      9  O3B       24.7460  -10.5530   28.5230 O.3   318  NAP318     -0.2175
     10  C2B       23.8910   -9.4900   30.5980 C.3   318  NAP318      0.2314
     11  O2B       24.1680  -10.7470   31.2360 O.3   318  NAP318     -0.2630
     12  C1B       24.9980   -8.4810   30.8210 C.3   318  NAP318      0.3158
     13  N9A       24.9400   -7.7360   32.1090 N.pl3 318  NAP318     -0.1439
     14  C8A       23.8930   -7.0950   32.6640 C.3   318  NAP318      0.3377
     15  N7A       24.2220   -6.4640   33.7920 N.2   318  NAP318     -0.2095
     16  C5A       25.5010   -6.7460   33.9210 C.2   318  NAP318      0.2526
     17  C6A       26.3240   -6.3340   34.9730 C.2   318  NAP318      0.4393
     18  N6A       25.8560   -5.5730   35.9650 N.pl3 318  NAP318      0.2180
     19  N1A       27.6270   -6.7490   34.9140 N.2   318  NAP318      0.0021
     20  C2A       28.1270   -7.5160   33.9180 C.3   318  NAP318      0.5254
     21  N3A       27.3110   -7.9030   32.9220 N.2   318  NAP318     -0.0055
     22  C4A       25.9960   -7.5350   32.8940 C.2   318  NAP318      0.3518
     23  O3        22.0290   -5.5770   25.8840 O.3   318  NAP318     -0.2703
     24  PN        20.6710   -5.6360   25.0230 P.3   318  NAP318      0.2189
     25  O1N       19.9180   -6.8150   25.5340 O.3   318  NAP318     -0.4371
     26  O2N       21.0320   -5.5960   23.5830 O.2   318  NAP318     -0.5170
     27  O5D       19.9250   -4.2290   25.3510 O.3   318  NAP318     -0.3112
     28  C5D       19.0340   -4.0670   26.4770 C.3   318  NAP318      0.1813
     29  C4D       17.5370   -4.0920   26.1670 C.3   318  NAP318      0.1799
     30  O4D       17.3080   -3.1090   25.1280 O.3   318  NAP318     -0.3327
     31  C3D       17.0270   -5.3910   25.5450 C.3   318  NAP318      0.2158
     32  O3D       17.0250   -6.5930   26.2970 O.3   318  NAP318     -0.2175
     33  C2D       15.7910   -4.9170   24.7970 C.3   318  NAP318      0.2309
     34  O2D       14.7310   -4.8310   25.7720 O.3   318  NAP318     -0.2158
     35  C1D       16.2930   -3.5710   24.2170 C.3   318  NAP318      0.2263
     36  N1N       16.7570   -3.5210   22.7810 N.pl3 318  NAP318     -0.2787
     37  C2N       15.8130   -2.9800   21.8630 C.3   318  NAP318      0.1244
     38  C3N       16.1310   -2.9210   20.4910 C.2   318  NAP318      0.0544
     39  C7N       15.2670   -2.2250   19.4300 C.2   318  NAP318      0.2818
     40  O7N       15.5320   -2.3680   18.2360 O.2   318  NAP318     -0.2670
     41  N7N       14.3150   -1.3970   19.8600 N.am  318  NAP318     -0.0839
     42  C4N       17.3720   -3.4650   20.0920 C.2   318  NAP318      0.0033
     43  C5N       18.3370   -4.0320   20.9360 C.2   318  NAP318      0.0157
     44  C6N       18.0310   -4.0080   22.2900 C.2   318  NAP318      0.0633
     45  P2B       23.0600  -11.6410   31.9870 P.3   318  NAP318      0.5328
     46  O1X       21.7590  -11.3820   31.3300 O.2   318  NAP318     -0.2224
     47  O2X       23.5730  -13.0170   31.7630 O.3   318  NAP318     -0.1145
     48  O3X       23.1130  -11.1930   33.4010 O.3   318  NAP318     -0.1145
@<TRIPOS>BOND
     1    40    39    2
     2    39    41   am
     3    39    38    1
     4    42    38    2
     5    42    43    1
     6    38    37    1
     7    43    44    2
     8    37    36    1
     9    44    36    1
    10    36    35    1
    11    26    24    2
    12    35    33    1
    13    35    30    1
    14    33    31    1
    15    33    34    1
    16    24    27    1
    17    24    25    1
    18    24    23    1
    19    30    29    1
    20    27    28    1
    21    31    29    1
    22    31    32    1
    23    23     1    1
    24    29    28    1
    25     2     1    2
    26     1     4    1
    27     1     3    1
    28     4     5    1
    29     5     6    1
    30     9     8    1
    31     6     8    1
    32     6     7    1
    33     8    10    1
    34     7    12    1
    35    10    12    1
    36    10    11    1
    37    12    13    1
    38    11    45    1
    39    46    45    2
    40    47    45    1
    41    45    48    1
    42    13    14    1
    43    13    22    1
    44    14    15    1
    45    22    21    2
    46    22    16    1
    47    21    20    1
    48    15    16    2
    49    20    19    1
    50    16    17    1
    51    19    17    2
    52    17    18    1
