@<TRIPOS>MOLECULE
1t40_ID5_A_1.pdb
 28 30 0 0 0
SMALL
GASTEIGER

@<TRIPOS>ATOM
      1  C2        15.7490   -9.4330   18.2100 C.ar  320  ID5320      0.0667
      2  C3        16.3320  -10.4880   15.6250 C.ar  320  ID5320      0.0099
      3  C4        16.7090   -8.7860   17.3680 C.ar  320  ID5320      0.1460
      4  C5        15.0900  -10.5960   17.7530 C.ar  320  ID5320      0.1432
      5  C6        15.3760  -11.1360   16.4530 C.ar  320  ID5320      0.0300
      6  C7        17.0160   -9.3080   16.0570 C.ar  320  ID5320      0.0891
      7  F8        16.5590   -2.2600    8.9250 F     320  ID5320     -0.2017
      8  F9        14.1880  -11.1810   18.5750 F     320  ID5320     -0.2041
      9  C11       18.0090   -8.6890   15.1130 C.2   320  ID5320      0.2681
     10  C13       18.1820   -5.8950   13.3140 C.2   320  ID5320      0.1567
     11  F14       13.9470   -5.4410   11.4080 F     320  ID5320     -0.2075
     12  O15       17.4100   -7.6270   17.7340 O.3   320  ID5320     -0.4635
     13  O16       18.5170   -9.3520   14.1870 O.2   320  ID5320     -0.2682
     14  C18       19.0650   -6.5780   14.3330 C.3   320  ID5320      0.1805
     15  C20       16.9030   -6.7910   18.7820 C.3   320  ID5320      0.3186
     16  N21       18.6190   -4.9630   12.4760 N.2   320  ID5320     -0.3990
     17  S22       16.5050   -6.3070   13.1860 S.3   320  ID5320     -0.0717
     18  F23       18.8220   -2.9220   10.3870 F     320  ID5320     -0.1994
     19  C24       16.2950   -5.1940   11.9370 C.3   320  ID5320      0.1582
     20  C25       16.4890   -3.2000    9.8950 C.2   320  ID5320      0.1716
     21  C26       17.5640   -4.5340   11.6670 C.2   320  ID5320      0.1552
     22  C27       15.1370   -4.8360   11.1700 C.2   320  ID5320      0.1368
     23  C28       15.2330   -3.8480   10.1570 C.2   320  ID5320      0.0585
     24  C29       17.6630   -3.5330   10.6420 C.2   320  ID5320      0.1938
     25  C32       15.6990   -6.0300   18.2590 C.2   320  ID5320      0.4084
     26  O33       15.3220   -5.7950   17.1080 O.co2 320  ID5320     -0.2415
     27  O34       14.9480   -5.5550   19.2740 O.co2 320  ID5320     -0.2415
     28  N36       18.3440   -7.3480   15.3130 N.am  320  ID5320     -0.1933
@<TRIPOS>BOND
     1     7    20    1
     2    20    23    1
     3    20    24    2
     4    23    22    2
     5    18    24    1
     6    24    21    1
     7    22    11    1
     8    22    19    1
     9    21    19    1
    10    21    16    2
    11    19    17    1
    12    16    10    2
    13    17    10    1
    14    10    14    1
    15    13     9    2
    16    14    28    1
    17     9    28   am
    18     9     6    1
    19     2     6   ar
    20     2     5   ar
    21     6     3   ar
    22     5     4   ar
    23    26    25   ar
    24     3    12    1
    25     3     1   ar
    26    12    15    1
    27     4     1   ar
    28     4     8    1
    29    25    15    1
    30    25    27   ar
