@<TRIPOS>MOLECULE
1t41_ID5_A_1.pdb
 28 30 0 0 0
SMALL
GASTEIGER

@<TRIPOS>ATOM
      1  C2        -5.3530    5.7060    7.0930 C.ar  320  ID5320      0.0667
      2  C3        -7.7710    6.1610    8.2700 C.ar  320  ID5320      0.0099
      3  C4        -6.1900    4.6230    7.3330 C.ar  320  ID5320      0.1460
      4  C5        -5.6960    6.9520    7.4510 C.ar  320  ID5320      0.1432
      5  C6        -6.8980    7.2260    8.0580 C.ar  320  ID5320      0.0300
      6  C7        -7.4500    4.8540    7.8970 C.ar  320  ID5320      0.0891
      7  F8       -14.7360    0.5130    2.7860 F     320  ID5320     -0.2017
      8  F9        -4.8370    7.9510    7.2190 F     320  ID5320     -0.2041
      9  C11       -8.4910    3.8330    8.1390 C.2   320  ID5320      0.2681
     10  C13      -10.4410    1.8190    6.4400 C.2   320  ID5320      0.1567
     11  F14      -12.0670    4.3770    3.0520 F     320  ID5320     -0.2075
     12  O15       -5.8740    3.3340    7.0230 O.3   320  ID5320     -0.4635
     13  O16       -9.4620    4.0590    8.8800 O.2   320  ID5320     -0.2682
     14  C18       -9.4520    1.6650    7.5510 C.3   320  ID5320      0.1805
     15  C20       -4.5130    2.9630    6.7540 C.3   320  ID5320      0.3186
     16  N21      -11.3520    0.9390    6.1710 N.2   320  ID5320     -0.3990
     17  S22      -10.4260    3.2610    5.4700 S.3   320  ID5320     -0.0717
     18  F23      -13.5120   -0.5120    4.9680 F     320  ID5320     -0.1994
     19  C24      -11.7740    2.6490    4.6100 C.3   320  ID5320      0.1582
     20  C25      -13.7730    1.2360    3.3900 C.2   320  ID5320      0.1716
     21  C26      -12.1240    1.3940    5.1200 C.2   320  ID5320      0.1552
     22  C27      -12.4490    3.1760    3.5110 C.2   320  ID5320      0.1368
     23  C28      -13.4430    2.4880    2.8700 C.2   320  ID5320      0.0585
     24  C29      -13.1530    0.6840    4.4780 C.2   320  ID5320      0.1938
     25  C32       -3.9850    3.3890    5.3600 C.2   320  ID5320      0.4084
     26  O33       -4.7720    3.6970    4.4860 O.co2 320  ID5320     -0.2415
     27  O34       -2.7080    3.2440    5.1890 O.co2 320  ID5320     -0.2415
     28  N36       -8.3870    2.6700    7.4370 N.am  320  ID5320     -0.1933
@<TRIPOS>BOND
     1     7    20    1
     2    23    20    1
     3    23    22    2
     4    11    22    1
     5    20    24    2
     6    22    19    1
     7    24    18    1
     8    24    21    1
     9    26    25   ar
    10    19    21    1
    11    19    17    1
    12    21    16    2
    13    27    25   ar
    14    25    15    1
    15    17    10    1
    16    16    10    2
    17    10    14    1
    18    15    12    1
    19    12     3    1
    20     1     3   ar
    21     1     4   ar
    22     8     4    1
    23     3     6   ar
    24    28    14    1
    25    28     9   am
    26     4     5   ar
    27     6     9    1
    28     6     2   ar
    29     5     2   ar
    30     9    13    2
