@<TRIPOS>MOLECULE
1t41_NAP_A_1.pdb
 48 52 0 0 0
SMALL
GASTEIGER

@<TRIPOS>ATOM
      1  PA         2.9280   -2.3000    9.5760 P.3   318  NAP318      0.2189
      2  O1A        2.3720   -3.6790    9.5380 O.3   318  NAP318     -0.4371
      3  O2A        3.9390   -1.8600    8.6030 O.2   318  NAP318     -0.5170
      4  O5B        3.3800   -2.0490   11.0870 O.3   318  NAP318     -0.3112
      5  C5B        3.9040   -0.7320   11.4540 C.3   318  NAP318      0.1813
      6  C4B        4.1130   -0.7660   12.9510 C.3   318  NAP318      0.1820
      7  O4B        5.1570   -1.7170   13.2700 O.3   318  NAP318     -0.3136
      8  C3B        4.5100    0.5690   13.5800 C.3   318  NAP318      0.2157
      9  O3B        3.8370    0.6870   14.8260 O.3   318  NAP318     -0.2175
     10  C2B        5.9950    0.4100   13.7570 C.3   318  NAP318      0.2314
     11  O2B        6.5070    1.1800   14.8330 O.3   318  NAP318     -0.2630
     12  C1B        6.1710   -1.0550   14.0400 C.3   318  NAP318      0.3158
     13  N9A        7.4380   -1.6370   13.6190 N.pl3 318  NAP318     -0.1439
     14  C8A        8.0540   -1.4070   12.4220 C.3   318  NAP318      0.3377
     15  N7A        9.1800   -2.0940   12.2850 N.2   318  NAP318     -0.2095
     16  C5A        9.2900   -2.7810   13.4640 C.2   318  NAP318      0.2526
     17  C6A       10.3020   -3.6500   13.8960 C.2   318  NAP318      0.4393
     18  N6A       11.3900   -3.9540   13.2020 N.pl3 318  NAP318      0.2180
     19  N1A       10.1050   -4.1600   15.1750 N.2   318  NAP318      0.0021
     20  C2A        9.0240   -3.8480   15.8740 C.3   318  NAP318      0.5254
     21  N3A        8.0320   -3.0260   15.5310 N.2   318  NAP318     -0.0055
     22  C4A        8.2150   -2.5040   14.2830 C.2   318  NAP318      0.3518
     23  O3         1.6480   -1.3440    9.5210 O.3   318  NAP318     -0.2703
     24  PN         0.9620   -0.3080    8.5130 P.3   318  NAP318      0.2189
     25  O1N        1.5790    1.0300    8.6920 O.3   318  NAP318     -0.4371
     26  O2N       -0.5070   -0.4620    8.6760 O.2   318  NAP318     -0.5170
     27  O5D        1.2800   -0.8840    7.0530 O.3   318  NAP318     -0.3112
     28  C5D        2.4630   -0.4910    6.2820 C.3   318  NAP318      0.1813
     29  C4D        2.1210    0.5890    5.2970 C.3   318  NAP318      0.1799
     30  O4D        1.1730    0.0890    4.3120 O.3   318  NAP318     -0.3327
     31  C3D        1.4120    1.8320    5.8010 C.3   318  NAP318      0.2158
     32  O3D        2.2660    2.6890    6.5740 O.3   318  NAP318     -0.2175
     33  C2D        0.8650    2.4430    4.5240 C.3   318  NAP318      0.2309
     34  O2D        1.9900    3.0300    3.8400 O.3   318  NAP318     -0.2158
     35  C1D        0.4060    1.1710    3.8160 C.3   318  NAP318      0.2263
     36  N1N       -1.0190    0.8560    4.0610 N.pl3 318  NAP318     -0.2787
     37  C2N       -1.9190    1.0520    3.0510 C.3   318  NAP318      0.1244
     38  C3N       -3.2610    0.7950    3.2460 C.2   318  NAP318      0.0544
     39  C7N       -4.2520    0.9290    2.1390 C.2   318  NAP318      0.2818
     40  O7N       -5.4610    0.9700    2.3760 O.2   318  NAP318     -0.2670
     41  N7N       -3.7620    0.9210    0.8890 N.am  318  NAP318     -0.0839
     42  C4N       -3.7210    0.3530    4.4980 C.2   318  NAP318      0.0033
     43  C5N       -2.7960    0.1470    5.5250 C.2   318  NAP318      0.0157
     44  C6N       -1.4630    0.3490    5.3040 C.2   318  NAP318      0.0633
     45  P2B        7.3690    2.5430   14.6610 P.3   318  NAP318      0.5328
     46  O1X        6.9530    3.2050   13.3840 O.2   318  NAP318     -0.2224
     47  O2X        6.9980    3.3010   15.9130 O.3   318  NAP318     -0.1145
     48  O3X        8.8060    2.1090   14.6300 O.3   318  NAP318     -0.1145
@<TRIPOS>BOND
     1    41    39   am
     2    39    40    2
     3    39    38    1
     4    37    38    1
     5    37    36    1
     6    38    42    2
     7    35    36    1
     8    35    30    1
     9    35    33    1
    10    34    33    1
    11    36    44    1
    12    30    29    1
    13    42    43    1
    14    33    31    1
    15    29    31    1
    16    29    28    1
    17    44    43    2
    18    31    32    1
    19    28    27    1
    20    27    24    1
    21    24    26    2
    22    24    25    1
    23    24    23    1
    24     3     1    2
    25    23     1    1
    26     2     1    1
    27     1     4    1
    28     4     5    1
    29     5     6    1
    30    15    14    1
    31    15    16    2
    32    14    13    1
    33     6     7    1
    34     6     8    1
    35    18    17    1
    36     7    12    1
    37    46    45    2
    38    16    17    1
    39    16    22    1
    40     8    10    1
    41     8     9    1
    42    13    12    1
    43    13    22    1
    44    10    12    1
    45    10    11    1
    46    17    19    2
    47    22    21    2
    48    48    45    1
    49    45    11    1
    50    45    47    1
    51    19    20    1
    52    21    20    1
