@<TRIPOS>MOLECULE
1t43_SAH_A_1.pdb
 26 28 0 0 0
SMALL
GASTEIGER

@<TRIPOS>ATOM
      1  N        -14.9780  100.3510   -0.0870 N.3   300  SAH300     -0.1208
      2  CA       -14.6840  101.7100    0.3440 C.3   300  SAH300      0.1952
      3  CB       -13.6390  101.6830    1.4540 C.3   300  SAH300      0.0422
      4  CG       -12.2380  101.3860    0.9490 C.3   300  SAH300      0.0597
      5  SD       -11.1460  100.8700    2.3090 S.3   300  SAH300     -0.1375
      6  C        -14.1810  102.6100   -0.7820 C.2   300  SAH300      0.3819
      7  O        -13.9500  102.1150   -1.9690 O.co2 300  SAH300     -0.2441
      8  OXT      -13.5990  103.7200   -0.4110 O.co2 300  SAH300     -0.2441
      9  C5'      -12.0100   99.2680    2.7530 C.3   300  SAH300      0.0899
     10  C4'      -12.7900   99.6200    3.9970 C.3   300  SAH300      0.1630
     11  O4'      -13.5670   98.4900    4.4840 O.3   300  SAH300     -0.3153
     12  C3'      -11.9360   99.9740    5.1960 C.3   300  SAH300      0.2168
     13  O3'      -11.4460  101.3020    5.0830 O.3   300  SAH300     -0.2175
     14  C2'      -12.9430   99.8590    6.3290 C.3   300  SAH300      0.2569
     15  O2'      -13.7270  101.0260    6.4200 O.3   300  SAH300     -0.2130
     16  C1'      -13.7810   98.6510    5.8850 C.3   300  SAH300      0.3185
     17  N9       -13.3330   97.4490    6.5900 N.pl3 300  SAH300     -0.1439
     18  C8       -12.0310   97.1420    6.8910 C.3   300  SAH300      0.3377
     19  N7       -11.8880   96.0190    7.5450 N.2   300  SAH300     -0.2095
     20  C5       -13.1820   95.5470    7.6780 C.2   300  SAH300      0.2526
     21  C6       -13.6920   94.3920    8.2730 C.2   300  SAH300      0.4393
     22  N6       -12.9180   93.4680    8.8520 N.pl3 300  SAH300      0.2180
     23  N1       -15.0330   94.2120    8.2530 N.2   300  SAH300      0.0021
     24  C2       -15.7920   95.1490    7.6700 C.3   300  SAH300      0.5254
     25  N3       -15.4230   96.2800    7.0690 N.2   300  SAH300     -0.0055
     26  C4       -14.0870   96.4210    7.1040 C.2   300  SAH300      0.3518
@<TRIPOS>BOND
     1     7     6   ar
     2     6     8   ar
     3     6     2    1
     4     1     2    1
     5     2     3    1
     6     4     3    1
     7     4     5    1
     8     5     9    1
     9     9    10    1
    10    10    11    1
    11    10    12    1
    12    11    16    1
    13    13    12    1
    14    12    14    1
    15    16    14    1
    16    16    17    1
    17    14    15    1
    18    17    18    1
    19    17    26    1
    20    18    19    1
    21    25    26    2
    22    25    24    1
    23    26    20    1
    24    19    20    2
    25    24    23    1
    26    20    21    1
    27    23    21    2
    28    21    22    1
