@<TRIPOS>MOLECULE
1t44_ATP_A_1.pdb
 31 33 0 0 0
SMALL
GASTEIGER

@<TRIPOS>ATOM
      1  PG         2.8120   -1.4100   13.7870 P.3   900  ATP900      0.5373
      2  O1G        3.6010   -2.6340   13.5420 O.3   900  ATP900     -0.1143
      3  O2G        1.6540   -1.3150   12.7850 O.2   900  ATP900     -0.2221
      4  O3G        2.2810   -1.3500   15.2320 O.3   900  ATP900     -0.1143
      5  PB         4.7140    0.7030   14.3850 P.3   900  ATP900      0.2277
      6  O1B        5.9620    0.9600   13.6580 O.2   900  ATP900     -0.5168
      7  O2B        4.9310    0.0270   15.7310 O.3   900  ATP900     -0.4368
      8  O3B        3.7900   -0.1670   13.4200 O.3   900  ATP900     -0.2258
      9  PA         3.9500    3.2830   15.4720 P.3   900  ATP900      0.2189
     10  O1A        3.0210    3.0800   16.5950 O.3   900  ATP900     -0.4371
     11  O2A        5.4070    3.4810   15.9040 O.2   900  ATP900     -0.5170
     12  O3A        3.8190    2.0420   14.4440 O.3   900  ATP900     -0.2700
     13  O5'        3.3880    4.4980   14.5680 O.3   900  ATP900     -0.3112
     14  C5'        3.9270    4.8410   13.3030 C.3   900  ATP900      0.1813
     15  C4'        2.7910    5.3140   12.4020 C.3   900  ATP900      0.1821
     16  O4'        2.0770    6.3670   13.0320 O.3   900  ATP900     -0.3135
     17  C3'        3.2260    5.8580   11.0500 C.3   900  ATP900      0.2184
     18  O3'        2.3130    5.4140   10.0450 O.3   900  ATP900     -0.2174
     19  C2'        3.1650    7.3560   11.2530 C.3   900  ATP900      0.2570
     20  O2'        3.0390    8.1280   10.0930 O.3   900  ATP900     -0.2130
     21  C1'        1.9430    7.4640   12.1520 C.3   900  ATP900      0.3186
     22  N9         1.9240    8.7070   12.9180 N.pl3 900  ATP900     -0.1439
     23  C8         2.8960    9.1770   13.7710 C.3   900  ATP900      0.3377
     24  N7         2.4940   10.3590   14.2890 N.2   900  ATP900     -0.2095
     25  C5         1.2820   10.6610   13.7580 C.2   900  ATP900      0.2526
     26  C6         0.4180   11.7490   13.9110 C.2   900  ATP900      0.4393
     27  N6         0.7380   12.8080   14.6510 N.pl3 900  ATP900      0.2180
     28  N1        -0.7750   11.7570   13.2430 N.2   900  ATP900      0.0021
     29  C2        -1.1100   10.7210   12.4110 C.3   900  ATP900      0.5254
     30  N3        -0.2550    9.6450   12.2210 N.2   900  ATP900     -0.0055
     31  C4         0.9150    9.6200   12.9050 C.2   900  ATP900      0.3518
@<TRIPOS>BOND
     1    18    17    1
     2    20    19    1
     3    17    19    1
     4    17    15    1
     5    19    21    1
     6    21    22    1
     7    21    16    1
     8    30    29    1
     9    30    31    2
    10    15    16    1
    11    15    14    1
    12    29    28    1
    13     3     1    2
    14    31    22    1
    15    31    25    1
    16    22    23    1
    17    28    26    2
    18    14    13    1
    19     8     1    1
    20     8     5    1
    21     2     1    1
    22     6     5    2
    23    25    26    1
    24    25    24    2
    25    23    24    1
    26     1     4    1
    27    26    27    1
    28     5    12    1
    29     5     7    1
    30    12     9    1
    31    13     9    1
    32     9    11    2
    33     9    10    1
