@<TRIPOS>MOLECULE
1t46_STI_A_1.pdb
 37 41 0 0 0
SMALL
GASTEIGER

@<TRIPOS>ATOM
      1  C1        32.6960   24.7000   47.5410 C.ar    3  STI3        0.0208
      2  C6        31.8180   25.4090   46.7190 C.ar    3  STI3        0.0057
      3  C5        30.6070   24.8220   46.3550 C.ar    3  STI3        0.0497
      4  C4        30.2890   23.5400   46.7930 C.ar    3  STI3        0.1014
      5  N3        31.1560   22.8770   47.5750 N.ar    3  STI3       -0.2422
      6  C2        32.3300   23.4240   47.9550 C.ar    3  STI3        0.0989
      7  C7        29.6570   25.5420   45.4790 C.2     3  STI3        0.1472
      8  C12       29.9720   26.7830   44.9260 C.2     3  STI3        0.0546
      9  C11       29.0340   27.3880   44.0930 C.2     3  STI3        0.1144
     10  N10       27.8540   26.7890   43.8490 N.2     3  STI3       -0.1683
     11  C9        27.5660   25.5940   44.4210 C.1     3  STI3        0.1696
     12  N8        28.4650   24.9750   45.2160 N.2     3  STI3       -0.3361
     13  N13       26.4040   24.9540   44.2010 N.pl3   3  STI3       -0.1360
     14  C14       25.3470   25.5110   43.5600 C.ar    3  STI3        0.0799
     15  C19       24.2990   26.0650   44.2940 C.ar    3  STI3       -0.0057
     16  C18       23.2070   26.6100   43.6280 C.ar    3  STI3       -0.0016
     17  C17       23.1490   26.6030   42.2330 C.ar    3  STI3        0.0164
     18  C16       24.1950   26.0540   41.4950 C.ar    3  STI3        0.0750
     19  C15       25.2830   25.4900   42.1650 C.ar    3  STI3        0.0336
     20  N21       24.0610   26.0500   40.0970 N.am    3  STI3       -0.1754
     21  C22       24.9820   25.6240   39.2380 C.2     3  STI3        0.2690
     22  C23       24.6520   25.6310   37.7790 C.ar    3  STI3        0.0554
     23  C25       25.4430   24.8950   36.8960 C.ar    3  STI3        0.0043
     24  C26       25.1350   24.8970   35.5390 C.ar    3  STI3       -0.0028
     25  C27       24.0400   25.6290   35.0810 C.ar    3  STI3       -0.0061
     26  C28       23.2420   26.3570   35.9610 C.ar    3  STI3       -0.0028
     27  C29       23.5530   26.3490   37.3180 C.ar    3  STI3        0.0043
     28  C46       23.7080   25.6150   33.6100 C.3     3  STI3        0.0992
     29  N48       23.6120   26.9460   33.0270 N.3     3  STI3       -0.2665
     30  C53       24.7780   27.8090   33.1870 C.3     3  STI3        0.0899
     31  C52       24.4070   29.2250   32.7690 C.3     3  STI3        0.0897
     32  N51       23.8580   29.1530   31.4220 N.3     3  STI3       -0.2691
     33  C54       23.8300   30.4370   30.7290 C.3     3  STI3        0.0897
     34  C50       22.6960   28.3020   31.1910 C.3     3  STI3        0.0897
     35  C49       22.9660   26.9000   31.7180 C.3     3  STI3        0.0899
     36  O29       26.0670   25.2150   39.5910 O.2     3  STI3       -0.2680
     37  C20       24.3250   26.0840   45.8060 C.3     3  STI3        0.0324
@<TRIPOS>BOND
     1    33    32    1
     2    34    32    1
     3    34    35    1
     4    32    31    1
     5    35    29    1
     6    31    30    1
     7    29    30    1
     8    29    28    1
     9    28    25    1
    10    25    24   ar
    11    25    26   ar
    12    24    23   ar
    13    26    27   ar
    14    23    22   ar
    15    27    22   ar
    16    22    21    1
    17    21    36    2
    18    21    20   am
    19    20    18    1
    20    18    19   ar
    21    18    17   ar
    22    19    14   ar
    23    17    16   ar
    24    14    13    1
    25    14    15   ar
    26    16    15   ar
    27    10     9    1
    28    10    11    2
    29     9     8    2
    30    13    11    1
    31    15    37    1
    32    11    12    2
    33     8     7    1
    34    12     7    2
    35     7     3    1
    36     3     2   ar
    37     3     4   ar
    38     2     1   ar
    39     4     5   ar
    40     1     6   ar
    41     5     6   ar
