@<TRIPOS>MOLECULE
1t47_NTD_A_1.pdb
 23 24 0 0 0
SMALL
GASTEIGER

@<TRIPOS>ATOM
      1  O1        58.5540   52.6190   39.0560 O.2   551  NTD551     -0.2911
      2  C5        58.8080   52.6680   40.2580 C.2   551  NTD551      0.1789
      3  C2        60.0760   53.4020   40.6980 C.3   551  NTD551      0.0698
      4  C3        60.5460   52.8760   42.0540 C.3   551  NTD551      0.0162
      5  C4        59.4050   52.9410   43.0690 C.3   551  NTD551      0.0698
      6  C1        58.1830   52.2000   42.5130 C.2   551  NTD551      0.1789
      7  O5        57.3930   51.7070   43.3190 O.2   551  NTD551     -0.2911
      8  C6        57.9310   52.0690   41.1530 C.2   551  NTD551      0.1082
      9  C7        56.7150   51.2910   40.6510 C.2   551  NTD551      0.2027
     10  O7        55.7150   50.9610   41.5100 O.2   551  NTD551     -0.2863
     11  C8        56.6050   50.8620   39.1840 C.ar  551  NTD551      0.0616
     12  C13       57.3930   49.8110   38.7210 C.ar  551  NTD551      0.0048
     13  C12       57.2100   49.3120   37.4350 C.ar  551  NTD551      0.0041
     14  C11       56.2360   49.8550   36.6070 C.ar  551  NTD551      0.0731
     15  C14       56.0020   49.2800   35.2060 C.3   551  NTD551      0.4186
     16  F2        55.2140   48.2130   35.3000 F     551  NTD551     -0.1659
     17  F3        55.4140   50.1800   34.4180 F     551  NTD551     -0.1659
     18  F1        57.1590   48.9430   34.6510 F     551  NTD551     -0.1659
     19  C10       55.4600   50.9130   37.0670 C.ar  551  NTD551      0.0280
     20  C9        55.6410   51.4140   38.3520 C.ar  551  NTD551      0.1459
     21  N         54.9110   52.4510   38.7520 N.pl3 551  NTD551      0.0578
     22  ON2       55.1210   53.0370   40.0220 O.2   551  NTD551     -0.1261
     23  ON1       53.9170   52.9950   37.8790 O.2   551  NTD551     -0.1261
@<TRIPOS>BOND
     1    17    15    1
     2    18    15    1
     3    15    16    1
     4    15    14    1
     5    14    19   ar
     6    14    13   ar
     7    19    20   ar
     8    13    12   ar
     9    23    21    2
    10    20    21    1
    11    20    11   ar
    12    12    11   ar
    13    21    22    2
    14     1     2    2
    15    11     9    1
    16     2     3    1
    17     2     8    1
    18     9     8    2
    19     9    10    1
    20     3     4    1
    21     8     6    1
    22     4     5    1
    23     6     5    1
    24     6     7    2
