@<TRIPOS>MOLECULE
1t48_BB3_A_1.pdb
 28 30 0 0 0
SMALL
GASTEIGER

@<TRIPOS>ATOM
      1 BR22       48.6060   31.1550   25.9510 Br    299  BB3299     -0.0685
      2  C13       50.4400   30.9340   25.6340 C.3   299  BB3299      0.1410
      3  C14       51.2350   30.4560   26.7650 C.2   299  BB3299      0.1935
      4  O20       50.7290   30.2220   27.8890 O.2   299  BB3299     -0.2896
      5  C15       52.6640   30.2570   26.5230 C.2   299  BB3299      0.0705
      6 BR21       53.6820   29.6420   27.9680 Br    299  BB3299     -0.0460
      7  C16       53.2220   30.5310   25.2820 C.2   299  BB3299      0.0125
      8  C12       51.0450   31.1900   24.4020 C.2   299  BB3299     -0.0042
      9  C11       52.4220   30.9820   24.2320 C.2   299  BB3299      0.0366
     10  C03       53.0650   31.2630   22.9060 C.2   299  BB3299      0.1980
     11  O19       52.5540   32.0930   22.1590 O.2   299  BB3299     -0.2865
     12  C9        54.1870   30.6490   22.5100 C.ar  299  BB3299      0.0721
     13  C8        54.6610   29.4340   22.8460 C.ar  299  BB3299      0.1258
     14  C17       54.0160   28.4220   23.7550 C.3   299  BB3299      0.0646
     15  C18       55.1230   27.8280   24.6190 C.3   299  BB3299      0.0084
     16  C5        55.1950   31.2310   21.5740 C.ar  299  BB3299      0.0403
     17  C6        55.2470   32.4340   20.8940 C.ar  299  BB3299      0.0046
     18  C4        56.2690   30.2560   21.4750 C.ar  299  BB3299      0.1463
     19  O7        55.9600   29.1660   22.2390 O.2   299  BB3299     -0.4576
     20  C3        57.3860   30.4870   20.7030 C.ar  299  BB3299      0.0574
     21  C2        57.4290   31.7010   20.0190 C.ar  299  BB3299      0.1252
     22  C1        56.3890   32.6430   20.1230 C.ar  299  BB3299      0.0201
     23  S01       58.8020   32.0390   19.0210 S.O2  299  BB3299      0.0635
     24  O01       59.1930   30.8750   18.2780 O.2   299  BB3299     -0.1528
     25  O02       58.4490   33.1340   18.0870 O.2   299  BB3299     -0.1528
     26  N01       60.1210   32.5230   20.0110 N.3   299  BB3299     -0.1526
     27  C01       59.8570   33.2870   21.2170 C.3   299  BB3299      0.1150
     28  C02       61.4860   32.1720   19.6500 C.3   299  BB3299      0.1150
@<TRIPOS>BOND
     1    25    23    2
     2    24    23    2
     3    23    26    1
     4    23    21    1
     5    28    26    1
     6    26    27    1
     7    21    22   ar
     8    21    20   ar
     9    22    17   ar
    10    20    18   ar
    11    17    16   ar
    12    18    16   ar
    13    18    19   ar
    14    16    12   ar
    15    11    10    2
    16    19    13   ar
    17    12    13   ar
    18    12    10    1
    19    13    14    1
    20    10     9    1
    21    14    15    1
    22     9     8    2
    23     9     7    1
    24     8     2    1
    25     7     5    2
    26     2     1    1
    27     2     3    1
    28     5     3    1
    29     5     6    1
    30     3     4    2
