@<TRIPOS>MOLECULE
1t49_892_A_1.pdb
 36 39 0 0 0
SMALL
GASTEIGER

@<TRIPOS>ATOM
      1 BR22       48.2310   31.0850   25.3520 Br    301  892301     -0.0457
      2  C13       50.0730   30.8090   25.1170 C.ar  301  892301      0.0740
      3  C14       50.8270   30.3510   26.2890 C.ar  301  892301      0.2079
      4  O20       50.2030   30.1470   27.4770 O.3   301  892301     -0.2855
      5  C15       52.2680   30.1190   26.1290 C.ar  301  892301      0.0740
      6 BR21       53.2550   29.5300   27.6260 Br    301  892301     -0.0457
      7  C16       52.8540   30.3460   24.8880 C.ar  301  892301      0.0131
      8  C12       50.7280   31.0090   23.9050 C.ar  301  892301      0.0131
      9  C11       52.1020   30.7770   23.7900 C.ar  301  892301      0.0402
     10  C03       52.7590   31.0090   22.4530 C.2   301  892301      0.1983
     11  O19       52.2050   31.7870   21.6820 O.2   301  892301     -0.2865
     12  C9        53.9010   30.3970   22.0720 C.ar  301  892301      0.0722
     13  C8        54.3990   29.2000   22.4460 C.ar  301  892301      0.1258
     14  C17       53.7990   28.2240   23.4270 C.3   301  892301      0.0646
     15  C18       54.8930   27.7140   24.3460 C.3   301  892301      0.0084
     16  C5        54.8840   30.9410   21.0840 C.ar  301  892301      0.0403
     17  C6        54.9290   32.1140   20.3490 C.ar  301  892301      0.0046
     18  C4        55.9480   29.9510   20.9680 C.ar  301  892301      0.1463
     19  O7        55.6660   28.8970   21.7820 O.2   301  892301     -0.4576
     20  C3        57.0290   30.1380   20.1280 C.ar  301  892301      0.0577
     21  C2        57.0640   31.3220   19.3990 C.ar  301  892301      0.1301
     22  C1        56.0390   32.2780   19.5100 C.ar  301  892301      0.0205
     23  S01       58.3950   31.5720   18.3290 S.O2  301  892301      0.0929
     24  O01       58.3540   30.5670   17.2680 O.2   301  892301     -0.1483
     25  O02       58.2710   32.9100   17.7430 O.2   301  892301     -0.1483
     26  N01       59.8900   31.3950   19.1730 N.pl3 301  892301     -0.0965
     27  C02       60.1670   32.0780   20.3060 C.ar  301  892301      0.0911
     28  C01       61.0290   31.5140   21.2400 C.ar  301  892301      0.0194
     29  C04       59.6120   33.3340   20.5460 C.ar  301  892301      0.0194
     30  C07       59.9200   34.0180   21.7210 C.ar  301  892301      0.0214
     31  C06       60.7850   33.4460   22.6530 C.ar  301  892301      0.1251
     32  C05       61.3390   32.1950   22.4120 C.ar  301  892301      0.0214
     33  S02       61.1870   34.3070   24.1580 S.O2  301  892301      0.0935
     34  O05       61.3820   33.3420   25.2250 O.2   301  892301     -0.1503
     35  O03       62.4070   35.0710   23.9640 O.2   301  892301     -0.1503
     36  N02       59.9120   35.3260   24.5510 N.3   301  892301      0.0392
@<TRIPOS>BOND
     1    24    23    2
     2    25    23    2
     3    23    26    1
     4    23    21    1
     5    26    27    1
     6    21    22   ar
     7    21    20   ar
     8    22    17   ar
     9    20    18   ar
    10    27    29   ar
    11    27    28   ar
    12    17    16   ar
    13    29    30   ar
    14    18    16   ar
    15    18    19   ar
    16    16    12   ar
    17    28    32   ar
    18    11    10    2
    19    30    31   ar
    20    19    13   ar
    21    12    13   ar
    22    12    10    1
    23    32    31   ar
    24    13    14    1
    25    10     9    1
    26    31    33    1
    27    14    15    1
    28     9     8   ar
    29     9     7   ar
    30     8     2   ar
    31    35    33    2
    32    33    36    1
    33    33    34    2
    34     7     5   ar
    35     2     1    1
    36     2     3   ar
    37     5     3   ar
    38     5     6    1
    39     3     4    1
