@<TRIPOS>MOLECULE
1t4c_COA_A_1.pdb
 48 50 0 0 0
SMALL
GASTEIGER

@<TRIPOS>ATOM
      1  N1A      102.1050   -0.4150   17.0830 N.2     1  COA1        0.0021
      2  C2A      102.4990   -1.0870   15.9370 C.3     1  COA1        0.5254
      3  N3A      101.9430   -0.7490   14.7100 N.2     1  COA1       -0.0055
      4  C4A      100.9930    0.2370   14.6280 C.2     1  COA1        0.3518
      5  C5A      100.5870    0.9120   15.7910 C.2     1  COA1        0.2526
      6  C6A      101.1520    0.5790   17.0260 C.2     1  COA1        0.4393
      7  N6A      100.6440    1.0610   18.1570 N.pl3   1  COA1        0.2180
      8  N7A       99.6550    1.8250   15.4310 N.2     1  COA1       -0.2095
      9  C8A       99.4660    1.7450   14.0870 C.3     1  COA1        0.3377
     10  N9A      100.2780    0.7650   13.5630 N.pl3   1  COA1       -0.1439
     11  C1B      100.3770    0.3290   12.1340 C.3     1  COA1        0.3185
     12  C2B       99.0570   -0.0800   11.4500 C.3     1  COA1        0.2543
     13  O2B       98.7040   -1.4430   11.5930 O.3     1  COA1       -0.2131
     14  C3B       99.3300    0.2550    9.9960 C.3     1  COA1        0.1928
     15  O3B       99.9970   -0.8400    9.3840 O.3     1  COA1       -0.2673
     16  P3B      100.2630   -1.0940    7.8050 P.3     1  COA1        0.5327
     17  O7A      100.3200   -2.5610    7.6790 O.3     1  COA1       -0.1145
     18  O8A      101.5740   -0.4040    7.3450 O.3     1  COA1       -0.1145
     19  O9A       99.0940   -0.6110    6.9170 O.2     1  COA1       -0.2224
     20  C4B      100.2340    1.4910   10.0850 C.3     1  COA1        0.1795
     21  O4B      100.9260    1.3670   11.3210 O.3     1  COA1       -0.3136
     22  C5B       99.5000    2.8370   10.0210 C.3     1  COA1        0.1812
     23  O5B       98.1140    2.6930   10.2920 O.3     1  COA1       -0.3112
     24  P1A       96.9670    3.4440    9.4280 P.3     1  COA1        0.2189
     25  O1A       95.6720    3.3270   10.1250 O.3     1  COA1       -0.4371
     26  O2A       96.8490    2.8820    7.9900 O.2     1  COA1       -0.5170
     27  O3A       97.4320    5.0130    9.4380 O.3     1  COA1       -0.2703
     28  P2A       97.4160    6.0160    8.1460 P.3     1  COA1        0.2188
     29  O4A       98.0600    5.3210    6.9900 O.2     1  COA1       -0.5170
     30  O5A       98.0800    7.3610    8.4890 O.3     1  COA1       -0.4371
     31  O6A       95.8660    6.3110    7.7630 O.3     1  COA1       -0.3138
     32  CBP       93.4840    6.7210    8.1630 C.3     1  COA1        0.0645
     33  CCP       94.9390    6.9340    8.6370 C.3     1  COA1        0.1519
     34  CDP       92.6500    7.5500    9.1450 C.3     1  COA1        0.0056
     35  CEP       93.3470    7.2520    6.7290 C.3     1  COA1        0.0056
     36  CAP       93.0570    5.2260    8.1770 C.3     1  COA1        0.2312
     37  OAP       93.2240    4.7430    9.5030 O.3     1  COA1       -0.2131
     38  C9P       91.6670    4.8950    7.5770 C.2     1  COA1        0.2719
     39  O9P       91.3610    5.1650    6.2090 O.2     1  COA1       -0.2706
     40  N8P       90.7530    4.3000    8.3740 N.am    1  COA1       -0.2028
     41  C7P       89.3280    4.2280    8.0930 C.3     1  COA1        0.1248
     42  C6P       88.6340    5.5710    7.8530 C.3     1  COA1        0.1102
     43  C5P       88.9730    6.6680    8.8660 C.2     1  COA1        0.2432
     44  O5P       88.8070    6.5160   10.0960 O.2     1  COA1       -0.2733
     45  N4P       89.4670    7.8050    8.3460 N.am    1  COA1       -0.2044
     46  C3P       89.0730    9.1440    8.7450 C.3     1  COA1        0.1276
     47  C2P       89.8830    9.6470    9.9280 C.3     1  COA1        0.0920
     48  S1P       88.8410   10.0800   11.3500 S.3     1  COA1       -0.0802
@<TRIPOS>BOND
     1    39    38    2
     2    35    32    1
     3    19    16    2
     4    29    28    2
     5    18    16    1
     6    38    36    1
     7    38    40   am
     8    17    16    1
     9    31    28    1
    10    31    33    1
    11    16    15    1
    12    42    41    1
    13    42    43    1
    14    26    24    2
    15    41    40    1
    16    28    30    1
    17    28    27    1
    18    32    36    1
    19    32    33    1
    20    32    34    1
    21    36    37    1
    22    45    46    1
    23    45    43   am
    24    46    47    1
    25    43    44    2
    26    15    14    1
    27    24    27    1
    28    24    25    1
    29    24    23    1
    30    47    48    1
    31    14    20    1
    32    14    12    1
    33    22    20    1
    34    22    23    1
    35    20    21    1
    36    21    11    1
    37    12    13    1
    38    12    11    1
    39    11    10    1
    40    10     9    1
    41    10     4    1
    42     9     8    1
    43     4     3    2
    44     4     5    1
    45     3     2    1
    46     8     5    2
    47     5     6    1
    48     2     1    1
    49     6     1    2
    50     6     7    1
