@<TRIPOS>MOLECULE
1t4e_DIZ_A_1.pdb
 32 35 0 0 0
SMALL
GASTEIGER

@<TRIPOS>ATOM
      1 CL1        46.9900   12.5070   23.9630 Cl    112  DIZ112     -0.0822
      2  C1        46.4590   13.0780   25.4790 C.ar  112  DIZ112      0.0577
      3  C2        45.4730   14.0890   25.5250 C.ar  112  DIZ112      0.0111
      4  C3        44.9950   14.5530   26.7710 C.ar  112  DIZ112     -0.0013
      5  C4        45.5070   14.0040   28.0100 C.ar  112  DIZ112      0.0067
      6  C5        46.5220   12.9920   27.9340 C.ar  112  DIZ112     -0.0013
      7  C6        46.9930   12.5320   26.6690 C.ar  112  DIZ112      0.0111
      8  C7        44.9600   14.4310   29.3870 C.3   112  DIZ112      0.2030
      9  C8        44.4820   15.9000   29.4790 C.2   112  DIZ112      0.3867
     10  O1        45.1280   16.8830   29.1700 O.co2 112  DIZ112     -0.2434
     11  O2        43.2240   16.0420   29.9500 O.co2 112  DIZ112     -0.2434
     12  N1        43.8710   13.3990   29.7940 N.am  112  DIZ112     -0.2505
     13  C9        44.0370   12.7710   31.0370 C.2   112  DIZ112      0.2377
     14  O3        44.9980   13.0330   31.7820 O.2   112  DIZ112     -0.2740
     15  C10       43.0860   11.7530   31.5240 C.3   112  DIZ112      0.1520
     16  C11       43.6710   10.6720   32.2090 C.2   112  DIZ112     -0.0045
     17  C12       42.8840    9.6360   32.7030 C.2   112  DIZ112      0.0267
     18  I1        43.8310    8.1200   33.6790 I     112  DIZ112     -0.0428
     19  C13       41.4860    9.6330   32.5270 C.2   112  DIZ112      0.0078
     20  C14       40.8780   10.7200   31.8340 C.2   112  DIZ112      0.0298
     21  C15       41.6750   11.7920   31.3250 C.2   112  DIZ112      0.1341
     22  N2        40.9860   12.8020   30.6500 N.2   112  DIZ112     -0.3385
     23  C16       41.3750   13.4730   29.5120 C.1   112  DIZ112      0.2025
     24  O4        40.6240   14.3350   29.0510 O.2   112  DIZ112     -0.2121
     25  C17       42.7390   13.1510   28.8060 C.3   112  DIZ112      0.2181
     26  C18       42.7140   11.7920   28.0130 C.ar  112  DIZ112      0.0127
     27  C19       43.9110   11.0910   27.7240 C.ar  112  DIZ112     -0.0007
     28  C20       43.9440    9.9000   26.9940 C.ar  112  DIZ112      0.0112
     29  C21       42.7660    9.3640   26.5180 C.ar  112  DIZ112      0.0577
     30 CL2        42.8510    7.9550   25.6170 Cl    112  DIZ112     -0.0822
     31  C22       41.5290    9.9890   26.7720 C.ar  112  DIZ112      0.0112
     32  C23       41.5020   11.2040   27.5210 C.ar  112  DIZ112     -0.0007
@<TRIPOS>BOND
     1     1     2    1
     2     2     3   ar
     3     2     7   ar
     4     3     4   ar
     5    30    29    1
     6    29    31   ar
     7    29    28   ar
     8     7     6   ar
     9     4     5   ar
    10    31    32   ar
    11    28    27   ar
    12    32    26   ar
    13    27    26   ar
    14     6     5   ar
    15     5     8    1
    16    26    25    1
    17    25    23    1
    18    25    12    1
    19    24    23    2
    20    10     9   ar
    21     8     9    1
    22     8    12    1
    23     9    11   ar
    24    23    22    2
    25    12    13   am
    26    22    21    2
    27    13    15    1
    28    13    14    2
    29    21    15    1
    30    21    20    1
    31    15    16    1
    32    20    19    2
    33    16    17    2
    34    19    17    1
    35    17    18    1
