@<TRIPOS>MOLECULE
1t4g_ANP_A_1.pdb
 31 33 0 0 0
SMALL
GASTEIGER

@<TRIPOS>ATOM
      1  PG        27.3710   59.8520   -9.8230 P.3   401  ANP401      0.4884
      2  O1G       28.6650   60.3010   -9.3960 O.3   401  ANP401     -0.1240
      3  O2G       26.5930   59.3660   -8.6410 O.3   401  ANP401     -0.1240
      4  O3G       26.6590   60.9520  -10.4480 O.2   401  ANP401     -0.2331
      5  PB        27.9370   57.1400  -10.5960 P.3   401  ANP401      0.4669
      6  O1B       27.1280   56.6250   -9.4630 O.3   401  ANP401     -0.1253
      7  O2B       29.3590   57.0470  -10.2750 O.2   401  ANP401     -0.2351
      8  N3B       27.5480   58.6300  -10.9520 N.3   401  ANP401     -0.0163
      9  PA        26.4160   55.3110  -12.0940 P.3   401  ANP401      0.2220
     10  O1A       26.5240   54.1170  -11.1430 O.3   401  ANP401     -0.4370
     11  O2A       25.1470   56.0630  -11.8320 O.2   401  ANP401     -0.5170
     12  O3A       27.6930   56.2730  -11.9080 O.3   401  ANP401     -0.2360
     13  O5'       26.4800   54.7430  -13.6320 O.3   401  ANP401     -0.3111
     14  C5'       25.7920   55.3910  -14.8130 C.3   401  ANP401      0.1813
     15  C4'       26.0810   54.6460  -15.8850 C.3   401  ANP401      0.1821
     16  O4'       25.6570   53.2480  -15.6360 O.3   401  ANP401     -0.3135
     17  C3'       25.2020   55.0520  -17.0960 C.3   401  ANP401      0.2184
     18  O3'       25.4060   56.3160  -17.6040 O.3   401  ANP401     -0.2174
     19  C2'       25.0760   53.7460  -17.9360 C.3   401  ANP401      0.2570
     20  O2'       26.2590   53.7200  -18.9200 O.3   401  ANP401     -0.2130
     21  C1'       25.3090   52.6260  -16.9070 C.3   401  ANP401      0.3186
     22  N9        24.0860   52.0340  -16.7710 N.pl3 401  ANP401     -0.1439
     23  C8        23.1120   52.3040  -15.7830 C.3   401  ANP401      0.3377
     24  N7        22.0710   51.5620  -15.9840 N.2   401  ANP401     -0.2095
     25  C5        22.2890   50.7910  -17.0720 C.2   401  ANP401      0.2526
     26  C6        21.5350   49.8400  -17.7350 C.2   401  ANP401      0.4393
     27  N6        20.2880   49.5150  -17.2970 N.pl3 401  ANP401      0.2180
     28  N1        22.0780   49.2110  -18.8680 N.2   401  ANP401      0.0021
     29  C2        23.3770   49.5370  -19.3440 C.3   401  ANP401      0.5254
     30  N3        24.1450   50.4690  -18.7190 N.2   401  ANP401     -0.0055
     31  C4        23.5510   51.0780  -17.5750 C.2   401  ANP401      0.3518
@<TRIPOS>BOND
     1    29    28    1
     2    29    30    1
     3    20    19    1
     4    28    26    2
     5    30    31    2
     6    19    17    1
     7    19    21    1
     8    26    27    1
     9    26    25    1
    10    18    17    1
    11    31    25    1
    12    31    22    1
    13    17    15    1
    14    25    24    2
    15    21    22    1
    16    21    16    1
    17    22    23    1
    18    24    23    1
    19    15    16    1
    20    15    14    1
    21    14    13    1
    22    13     9    1
    23     9    12    1
    24     9    11    2
    25     9    10    1
    26    12     5    1
    27     8     5    1
    28     8     1    1
    29     5     7    2
    30     5     6    1
    31     4     1    2
    32     1     2    1
    33     1     3    1
