@<TRIPOS>MOLECULE
1t4j_FRJ_A_1.pdb
 41 45 0 0 0
SMALL
GASTEIGER

@<TRIPOS>ATOM
      1  O36       63.2570   34.3370   23.6600 O.2   299  FRJ299     -0.1482
      2  S33       62.0380   33.5910   24.0420 S.O2  299  FRJ299      0.0947
      3  O35       62.3910   32.6040   25.0870 O.2   299  FRJ299     -0.1482
      4  N34       60.8520   34.6750   24.6580 N.pl3 299  FRJ299     -0.0702
      5  C37       59.9690   34.2110   25.6890 C.ar  299  FRJ299      0.2025
      6  N38       60.0220   32.9750   26.1900 N.ar  299  FRJ299     -0.2199
      7  C39       59.0610   32.8340   27.1420 C.ar  299  FRJ299      0.1080
      8  C40       58.3010   33.9790   27.3290 C.ar  299  FRJ299      0.0589
      9  S41       58.8050   35.2310   26.3010 S.2   299  FRJ299     -0.0478
     10  C30       61.4410   32.8150   22.6180 C.ar  299  FRJ299      0.1272
     11  C31       60.5580   33.4940   21.7690 C.ar  299  FRJ299      0.0216
     12  C32       60.0840   32.8750   20.6140 C.ar  299  FRJ299      0.0194
     13  C29       61.8530   31.5180   22.3010 C.ar  299  FRJ299      0.0216
     14  C28       61.3770   30.9000   21.1460 C.ar  299  FRJ299      0.0194
     15  C27       60.4890   31.5730   20.3050 C.ar  299  FRJ299      0.0911
     16  N16       60.0520   30.9390   19.1870 N.pl3 299  FRJ299     -0.0965
     17  S15       58.5750   31.3190   18.3950 S.O2  299  FRJ299      0.0929
     18  O17       58.4170   30.3380   17.3030 O.2   299  FRJ299     -0.1483
     19  O18       58.5930   32.6890   17.8380 O.2   299  FRJ299     -0.1483
     20  C2        57.2850   31.1410   19.5120 C.ar  299  FRJ299      0.1301
     21  C1        56.2520   32.0960   19.6320 C.ar  299  FRJ299      0.0205
     22  C3        57.3150   29.9900   20.2930 C.ar  299  FRJ299      0.0577
     23  C6        56.2840   29.8260   21.1900 C.ar  299  FRJ299      0.1463
     24  O7        56.0860   28.7980   22.0490 O.2   299  FRJ299     -0.4576
     25  C5        55.2070   30.8100   21.3240 C.ar  299  FRJ299      0.0403
     26  C4        55.1930   31.9540   20.5440 C.ar  299  FRJ299      0.0046
     27  C9        54.3580   30.3330   22.4570 C.ar  299  FRJ299      0.0721
     28  C8        54.8680   29.1160   22.7810 C.ar  299  FRJ299      0.1258
     29  C13       54.3410   28.1640   23.8370 C.3   299  FRJ299      0.0646
     30  C14       55.3440   27.0520   24.1310 C.3   299  FRJ299      0.0084
     31  C10       53.1240   30.6690   22.7650 C.2   299  FRJ299      0.1980
     32  O12       52.4580   30.9860   21.7920 O.2   299  FRJ299     -0.2865
     33  C11       52.2670   30.4680   23.9520 C.2   299  FRJ299      0.0366
     34  C19       52.9930   30.0740   25.0670 C.2   299  FRJ299      0.0125
     35  C20       52.4290   29.8970   26.3060 C.2   299  FRJ299      0.0705
     36 BR26       53.4780   29.3240   27.7420 Br    299  FRJ299     -0.0460
     37  C21       51.0050   30.1780   26.4840 C.2   299  FRJ299      0.1935
     38  O25       50.4470   30.0430   27.5920 O.2   299  FRJ299     -0.2896
     39  C22       50.2750   30.6310   25.2900 C.3   299  FRJ299      0.1410
     40  C23       50.9090   30.7880   24.0560 C.2   299  FRJ299     -0.0042
     41 BR24       48.4610   30.9660   25.5520 Br    299  FRJ299     -0.0685
@<TRIPOS>BOND
     1    18    17    2
     2    19    17    2
     3    17    16    1
     4    17    20    1
     5    16    15    1
     6    20    21   ar
     7    20    22   ar
     8    21    26   ar
     9    22    23   ar
    10    15    12   ar
    11    15    14   ar
    12    26    25   ar
    13    12    11   ar
    14    14    13   ar
    15    23    25   ar
    16    23    24   ar
    17    25    27   ar
    18    11    10   ar
    19    32    31    2
    20    24    28   ar
    21    13    10   ar
    22    27    31    1
    23    27    28   ar
    24    10     2    1
    25    31    33    1
    26    28    29    1
    27     1     2    2
    28    29    30    1
    29    33    40    2
    30    33    34    1
    31     2     4    1
    32     2     3    2
    33    40    39    1
    34     4     5    1
    35    34    35    2
    36    39    41    1
    37    39    37    1
    38     5     6   ar
    39     5     9   ar
    40     6     7   ar
    41     9     8   ar
    42    35    37    1
    43    35    36    1
    44    37    38    2
    45     7     8   ar
