@<TRIPOS>MOLECULE
1t4p_2BH_A_1.pdb
 13 12 0 0 0
SMALL
GASTEIGER

@<TRIPOS>ATOM
      1  NP1        5.7810   49.2220   -2.0940 N.3   1000  2BH1000     0.0000
      2  C02        4.9240   49.2700   -3.3460 C.3   1000  2BH1000     0.0000
      3  C03        3.8720   50.3420   -3.2090 C.2   1000  2BH1000     0.0000
      4  O04        3.0220   50.6480   -4.0200 O.co2 1000  2BH1000     0.0000
      5  O05        4.0260   50.9280   -2.0040 O.co2 1000  2BH1000     0.0000
      6  C06        4.3300   47.8680   -3.4970 C.3   1000  2BH1000     0.0000
      7  C07        3.4870   47.4130   -2.2950 C.3   1000  2BH1000     0.0000
      8  C08        2.9270   46.0070   -2.4480 C.2   1000  2BH1000     0.0000
      9  C09        1.6230   45.6600   -2.1690 C.2   1000  2BH1000     0.0000
     10  B          1.1090   44.2340   -2.2840 B     1000  2BH1000     0.0000
     11  O11       -0.2700   44.0740   -1.9930 O.3   1000  2BH1000     0.0000
     12  O12        1.8360   43.3670   -1.4180 O.3   1000  2BH1000     0.0000
     13  O13        1.2550   43.5840   -3.4990 O.3   1000  2BH1000     0.0000
@<TRIPOS>BOND
     1     4     3   ar
     2    13    10    1
     3     6     2    1
     4     6     7    1
     5     2     3    1
     6     2     1    1
     7     3     5   ar
     8     8     7    1
     9     8     9    2
    10    10     9    1
    11    10    11    1
    12    10    12    1
