@<TRIPOS>MOLECULE
1t4t_DIR_A_1.pdb
 11 10 0 0 0
SMALL
GASTEIGER

@<TRIPOS>ATOM
      1  CA        -5.2790   47.6760   10.2130 C.3   1000  DIR1000     0.2373
      2  CB        -4.3950   46.5260    9.6570 C.3   1000  DIR1000     0.2508
      3  N         -5.2300   48.6240    9.0650 N.3   1000  DIR1000    -0.1169
      4  C         -4.5220   48.4720   11.3190 C.2   1000  DIR1000     0.3855
      5  NG        -4.4760   45.3100   10.4840 N.pl3 1000  DIR1000    -0.0848
      6  CD        -3.6390   44.2220   10.2460 C.2   1000  DIR1000     0.5284
      7  OXT       -4.2660   48.1650   12.4550 O.co2 1000  DIR1000    -0.2439
      8  O         -4.0600   49.6450   10.8090 O.co2 1000  DIR1000    -0.2439
      9  NH1       -2.6590   44.1590    9.3820 N.4   1000  DIR1000     0.1134
     10  NH2       -3.9290   43.1400   11.0370 N.pl3 1000  DIR1000     0.1348
     11  OH1       -1.9300   43.0550    9.3000 O.3   1000  DIR1000     0.0294
@<TRIPOS>BOND
     1     3     1    1
     2    11     9    1
     3     9     6    1
     4     2     1    1
     5     2     5    1
     6     1     4    1
     7     6     5    1
     8     6    10    2
     9     8     4   ar
    10     4     7   ar
