@<TRIPOS>MOLECULE
1t4u_81A_H_1.pdb
 32 34 0 0 0
SMALL
GASTEIGER

@<TRIPOS>ATOM
      1  S         20.8060  -18.3690   24.3070 S.O2  4815  81A4815     0.0117
      2  O4        22.0930  -18.9010   24.0020 O.2   4815  81A4815    -0.1685
      3  O5        19.8800  -18.3490   23.2190 O.2   4815  81A4815    -0.1685
      4  C16       20.1190  -19.3050   25.6580 C.3   4815  81A4815     0.1816
      5  C26       20.0620  -15.8980   25.3860 C.ar  4815  81A4815     0.1373
      6  C25       20.3860  -14.6730   25.9680 C.ar  4815  81A4815     0.0211
      7  C24       21.7020  -14.3640   26.2970 C.ar  4815  81A4815     0.0014
      8  C23       22.7070  -15.2910   26.0230 C.ar  4815  81A4815     0.0014
      9  C28       22.4180  -16.5200   25.4340 C.ar  4815  81A4815     0.0197
     10  C27       21.1130  -16.8210   25.1050 C.ar  4815  81A4815     0.1241
     11  C2        18.5860  -13.4150   21.1850 C.ar  4815  81A4815    -0.0157
     12  C2A       19.6710  -12.7410   20.4140 C.3   4815  81A4815     0.0312
     13  C6        17.8740  -15.2080   22.6450 C.ar  4815  81A4815     0.1745
     14  C1        18.8760  -14.5710   21.8950 C.ar  4815  81A4815     0.0357
     15  C3        17.2770  -12.8710   21.2080 C.ar  4815  81A4815     0.0329
     16  C5        16.5670  -14.6730   22.6700 C.ar  4815  81A4815     0.0766
     17  C4        16.2600  -13.5000   21.9690 C.ar  4815  81A4815     0.1414
     18  O8        18.1620  -16.3570   23.3680 O.3   4815  81A4815    -0.3571
     19  S20       18.2960  -16.2850   24.9500 S.3   4815  81A4815     0.0518
     20  O21       17.7260  -17.4820   25.5210 O.3   4815  81A4815    -0.0570
     21  O22       17.5650  -15.1600   25.4690 O.3   4815  81A4815    -0.0570
     22  O7        14.9620  -12.9920   22.0450 O.3   4815  81A4815    -0.4752
     23  C10       14.4540  -12.4310   20.8020 C.3   4815  81A4815     0.2089
     24  C14       13.1900  -11.5830   21.0440 C.3   4815  81A4815     0.0852
     25  CEA       11.7690  -12.1240   20.7230 C.3   4815  81A4815     0.0076
     26  CEB       12.4070  -11.0270   19.8410 C.3   4815  81A4815     0.0076
     27  C15       13.1300  -10.6710   22.2580 C.3   4815  81A4815     0.2628
     28  O16       13.2200  -11.2710   23.5400 O.2   4815  81A4815    -0.3083
     29  N10       12.3740  -12.2200   23.7040 N.pl3 4815  81A4815     0.1306
     30  C17       11.2800  -12.0160   24.4180 C.cat 4815  81A4815     0.5748
     31  N11       10.3770  -12.9440   24.5240 N.pl3 4815  81A4815     0.1387
     32  N12       11.1140  -10.8480   25.0620 N.pl3 4815  81A4815     0.1387
@<TRIPOS>BOND
     1    26    25    1
     2    26    24    1
     3    12    11    1
     4    25    24    1
     5    23    24    1
     6    23    22    1
     7    24    27    1
     8    11    15   ar
     9    11    14   ar
    10    15    17   ar
    11    14    13   ar
    12    17    22    1
    13    17    16   ar
    14    27    28    1
    15    13    16   ar
    16    13    18    1
    17     3     1    2
    18    18    19    1
    19    28    29    1
    20    29    30    2
    21     2     1    2
    22     1    10    1
    23     1     4    1
    24    30    31    1
    25    30    32    1
    26    19     5    1
    27    19    21    1
    28    19    20    1
    29    10     5   ar
    30    10     9   ar
    31     5     6   ar
    32     9     8   ar
    33     6     7   ar
    34     8     7   ar
