@<TRIPOS>MOLECULE
1t4v_14A_H_1.pdb
 27 28 0 0 0
SMALL
GASTEIGER

@<TRIPOS>ATOM
      1  N1        10.2210  -12.9420   24.4940 N.pl3 1411  14A1411     0.1387
      2  C2        11.0380  -11.9630   24.1390 C.cat 1411  14A1411     0.5748
      3  N3        10.8990  -10.7420   24.6420 N.pl3 1411  14A1411     0.1387
      4  N4        11.9500  -12.1800   23.2230 N.pl3 1411  14A1411     0.1306
      5  O5        12.9320  -11.3150   22.9410 O.2   1411  14A1411    -0.3083
      6  C6        12.8750  -10.7330   21.6190 C.3   1411  14A1411     0.2633
      7  C7        13.4390  -11.7160   20.5680 C.3   1411  14A1411     0.0994
      8  C8        14.9370  -11.9080   20.6760 C.3   1411  14A1411     0.2094
      9  O9        15.1530  -12.9450   21.6270 O.3   1411  14A1411    -0.4753
     10  C10       16.4310  -13.4820   21.6420 C.ar  1411  14A1411     0.1395
     11  C11       17.4660  -12.9730   20.8410 C.ar  1411  14A1411     0.0483
     12  C12       18.7500  -13.5690   20.9110 C.ar  1411  14A1411     0.0608
     13  C13       18.9680  -14.6250   21.7400 C.ar  1411  14A1411     0.0161
     14  C14       17.9680  -15.1090   22.5250 C.ar  1411  14A1411     0.0574
     15  C15       16.7010  -14.5660   22.4860 C.ar  1411  14A1411     0.0415
     16 CL16       20.0380  -12.9820   19.9780 Cl    1411  14A1411    -0.0821
     17  C17       18.2570  -16.2700   23.3980 C.2   1411  14A1411     0.2493
     18  O18       17.4590  -17.2030   23.2970 O.2   1411  14A1411    -0.2699
     19  N19       19.2560  -16.3480   24.3080 N.am  1411  14A1411    -0.2736
     20  C20       19.2990  -17.5030   25.2690 C.3   1411  14A1411     0.1201
     21  C21       18.0340  -17.8510   26.0680 C.2   1411  14A1411    -0.0047
     22  C22       18.0230  -18.3200   27.3020 C.2   1411  14A1411    -0.0031
     23  C23       19.7830  -15.0070   24.6680 C.3   1411  14A1411     0.0759
     24  C24       21.3050  -15.1490   24.5490 C.3   1411  14A1411     0.0198
     25  C25       21.9790  -14.5420   25.7180 C.3   1411  14A1411     0.0018
     26  C26       20.9150  -14.4310   26.7970 C.3   1411  14A1411     0.0018
     27  C27       19.6230  -14.9140   26.1870 C.3   1411  14A1411     0.0198
@<TRIPOS>BOND
     1    16    12    1
     2     7     8    1
     3     7     6    1
     4     8     9    1
     5    11    12   ar
     6    11    10   ar
     7    12    13   ar
     8     6     5    1
     9     9    10    1
    10    10    15   ar
    11    13    14   ar
    12    15    14   ar
    13    14    17    1
    14     5     4    1
    15     4     2    2
    16    18    17    2
    17    17    19   am
    18     2     1    1
    19     2     3    1
    20    19    23    1
    21    19    20    1
    22    24    23    1
    23    24    25    1
    24    23    27    1
    25    20    21    1
    26    25    26    1
    27    21    22    2
    28    27    26    1
