@<TRIPOS>MOLECULE
1t57_FMN_A_1.pdb
 31 33 0 0 0
SMALL
GASTEIGER

@<TRIPOS>ATOM
      1  N1       -16.5710   -3.2350    7.1990 N.2   200  FMN200     -0.2890
      2  C2       -16.9930   -3.3810    5.8830 C.1   200  FMN200      0.3669
      3  O2       -18.1420   -3.6920    5.6350 O.2   200  FMN200     -0.1744
      4  N3       -16.1390   -3.3470    4.8140 N.2   200  FMN200     -0.2300
      5  C4       -14.8350   -2.9630    4.9940 C.1   200  FMN200      0.2513
      6  O4       -14.0480   -3.0510    4.0430 O.2   200  FMN200     -0.2057
      7  C4A      -14.3740   -2.8390    6.3070 C.2   200  FMN200      0.2697
      8  N5       -13.0580   -2.5090    6.5390 N.2   200  FMN200     -0.3922
      9  C5A      -12.5610   -2.6690    7.8110 C.2   200  FMN200      0.1102
     10  C6       -11.2300   -2.3500    8.0190 C.3   200  FMN200      0.0605
     11  C7       -10.6950   -2.3610    9.2770 C.3   200  FMN200      0.0248
     12  C7M       -9.2690   -1.9320    9.4000 C.3   200  FMN200      0.0048
     13  C8       -11.5570   -2.2180   10.3580 C.2   200  FMN200     -0.0461
     14  C8M      -11.0150   -2.0930   11.7710 C.3   200  FMN200      0.0261
     15  C9       -12.9080   -2.5020   10.1670 C.2   200  FMN200     -0.0084
     16  C9A      -13.4160   -2.8300    8.9060 C.3   200  FMN200      0.1451
     17  N10      -14.8000   -2.8790    8.6860 N.pl3 200  FMN200     -0.2694
     18  C10      -15.2390   -3.0500    7.3970 C.2   200  FMN200      0.2416
     19  C1'      -15.8030   -3.0140    9.8110 C.3   200  FMN200      0.1294
     20  C2'      -15.7330   -4.4080   10.3700 C.3   200  FMN200      0.2044
     21  O2'      -15.8710   -5.3330    9.2850 O.3   200  FMN200     -0.2185
     22  C3'      -16.8630   -4.6610   11.3420 C.3   200  FMN200      0.2164
     23  O3'      -18.0980   -4.4070   10.7440 O.3   200  FMN200     -0.2175
     24  C4'      -16.7720   -4.1770   12.7990 C.3   200  FMN200      0.2147
     25  O4'      -17.8560   -4.8190   13.4280 O.3   200  FMN200     -0.2176
     26  C5'      -17.0510   -2.7680   13.2750 C.3   200  FMN200      0.1892
     27  O5'      -17.0690   -2.9340   14.6750 O.3   200  FMN200     -0.2674
     28  P        -18.1870   -2.4790   15.7380 P.3   200  FMN200      0.5327
     29  O1P      -17.5500   -2.5760   17.0810 O.3   200  FMN200     -0.1145
     30  O2P      -19.4530   -3.3580   15.6990 O.3   200  FMN200     -0.1145
     31  O3P      -18.5280   -1.0200   15.4070 O.2   200  FMN200     -0.2224
@<TRIPOS>BOND
     1     6     5    2
     2     4     5    2
     3     4     2    2
     4     5     7    1
     5     3     2    2
     6     2     1    2
     7     7     8    2
     8     7    18    1
     9     8     9    2
    10     1    18    2
    11    18    17    1
    12     9    10    1
    13     9    16    1
    14    10    11    1
    15    17    16    1
    16    17    19    1
    17    16    15    1
    18    11    12    1
    19    11    13    1
    20    21    20    1
    21    19    20    1
    22    15    13    2
    23    13    14    1
    24    20    22    1
    25    23    22    1
    26    22    24    1
    27    24    26    1
    28    24    25    1
    29    26    27    1
    30    27    28    1
    31    31    28    2
    32    30    28    1
    33    28    29    1
