@<TRIPOS>MOLECULE
1t5a_FBP_A_1.pdb
 20 20 0 0 0
SMALL
GASTEIGER

@<TRIPOS>ATOM
      1  P1        37.1720  -16.7880   71.9740 P.3   532  FBP532      0.5328
      2  O1P       36.5540  -15.8530   71.0050 O.2   532  FBP532     -0.2224
      3  O2P       38.5850  -16.8700   71.5980 O.3   532  FBP532     -0.1145
      4  O3P       36.5000  -18.0290   71.8690 O.3   532  FBP532     -0.1145
      5  O1        37.0070  -16.2030   73.4130 O.3   532  FBP532     -0.2648
      6  C1        37.4920  -16.8520   74.5920 C.3   532  FBP532      0.2152
      7  C2        37.9470  -15.7420   75.5360 C.3   532  FBP532      0.2780
      8  O2        38.4440  -16.2840   76.7650 O.3   532  FBP532     -0.1897
      9  C3        36.7920  -14.7780   75.8030 C.3   532  FBP532      0.2408
     10  O3        35.8750  -15.1940   76.7720 O.3   532  FBP532     -0.2149
     11  C4        37.5050  -13.5000   76.1150 C.3   532  FBP532      0.2167
     12  O4        36.6770  -12.3710   75.8260 O.3   532  FBP532     -0.2175
     13  C5        38.7060  -13.5610   75.1570 C.3   532  FBP532      0.1808
     14  O5        38.9580  -14.9370   74.8560 O.3   532  FBP532     -0.3255
     15  C6        39.9320  -12.9000   75.6990 C.3   532  FBP532      0.1859
     16  O6        39.7670  -11.4980   75.5560 O.3   532  FBP532     -0.2675
     17  P2        40.9840  -10.6230   75.0520 P.3   532  FBP532      0.5327
     18  O4P       42.1070  -10.7880   75.9590 O.3   532  FBP532     -0.1145
     19  O5P       41.3630  -11.0760   73.7270 O.2   532  FBP532     -0.2224
     20  O6P       40.5830   -9.2050   75.0010 O.3   532  FBP532     -0.1145
@<TRIPOS>BOND
     1     2     1    2
     2     3     1    1
     3     4     1    1
     4     1     5    1
     5     5     6    1
     6    19    17    2
     7     6     7    1
     8    14    13    1
     9    14     7    1
    10    20    17    1
    11    17    16    1
    12    17    18    1
    13    13    15    1
    14    13    11    1
    15     7     9    1
    16     7     8    1
    17    16    15    1
    18     9    11    1
    19     9    10    1
    20    12    11    1
