@<TRIPOS>MOLECULE
1t5b_FMN_A_1.pdb
 31 33 0 0 0
SMALL
GASTEIGER

@<TRIPOS>ATOM
      1  N1        -1.2720   46.3700   27.9230 N.2   202  FMN202     -0.2887
      2  C2         0.0470   46.0080   27.8900 C.1   202  FMN202      0.3669
      3  O2         0.8520   46.4330   28.6870 O.2   202  FMN202     -0.1744
      4  N3         0.4090   45.0990   26.8490 N.2   202  FMN202     -0.2300
      5  C4        -0.4650   44.5300   25.8480 C.1   202  FMN202      0.2513
      6  O4        -0.0200   43.7650   25.0060 O.2   202  FMN202     -0.2057
      7  C4A       -1.8110   44.9410   25.9450 C.2   202  FMN202      0.2703
      8  N5        -2.8460   44.5490   25.1170 N.2   202  FMN202     -0.3882
      9  C5A       -4.1840   44.8930   25.1030 C.2   202  FMN202      0.1277
     10  C6        -5.0990   44.3390   24.0900 C.3   202  FMN202      0.0820
     11  C7        -6.5070   44.7550   24.1040 C.2   202  FMN202     -0.0408
     12  C7M       -7.4020   44.1560   23.0250 C.3   202  FMN202      0.0265
     13  C8        -6.9830   45.7230   25.1410 C.2   202  FMN202     -0.0280
     14  C8M       -8.4540   46.2600   25.2690 C.3   202  FMN202      0.0304
     15  C9        -6.0210   46.2250   26.1190 C.2   202  FMN202      0.0123
     16  C9A       -4.6040   45.8150   26.1100 C.2   202  FMN202      0.0793
     17  N10       -3.5570   46.2480   27.0100 N.pl3 202  FMN202     -0.2545
     18  C10       -2.1750   45.8710   27.0010 C.2   202  FMN202      0.2449
     19  C1'       -3.9080   47.2490   28.1180 C.3   202  FMN202      0.1336
     20  C2'       -4.0020   48.6720   27.5480 C.3   202  FMN202      0.2048
     21  O2'       -2.7930   49.0730   26.8740 O.3   202  FMN202     -0.2185
     22  C3'       -4.3170   49.6990   28.6320 C.3   202  FMN202      0.2165
     23  O3'       -5.5010   49.3440   29.3640 O.3   202  FMN202     -0.2175
     24  C4'       -4.4420   51.0910   27.9430 C.3   202  FMN202      0.2147
     25  O4'       -4.5280   52.1050   28.9530 O.3   202  FMN202     -0.2176
     26  C5'       -5.7190   51.1850   27.1720 C.3   202  FMN202      0.1892
     27  O5'       -5.9380   52.4030   26.5290 O.3   202  FMN202     -0.2674
     28  P         -7.2680   52.5320   25.7650 P.3   202  FMN202      0.5327
     29  O1P       -8.4570   53.1420   26.3710 O.3   202  FMN202     -0.1145
     30  O2P       -7.1730   52.3880   24.2930 O.2   202  FMN202     -0.2224
     31  O3P       -6.6760   53.8630   25.5470 O.3   202  FMN202     -0.1145
@<TRIPOS>BOND
     1    12    11    1
     2    10    11    1
     3    10     9    1
     4    11    13    2
     5    30    28    2
     6     6     5    2
     7     9     8    2
     8     9    16    1
     9     8     7    2
    10    13    14    1
    11    13    15    1
    12    31    28    1
    13    28    29    1
    14    28    27    1
    15     5     7    1
    16     5     4    2
    17     7    18    1
    18    16    15    2
    19    16    17    1
    20    27    26    1
    21     4     2    2
    22    21    20    1
    23    18    17    1
    24    18     1    2
    25    17    19    1
    26    26    24    1
    27    20    19    1
    28    20    22    1
    29     2     1    2
    30     2     3    2
    31    24    22    1
    32    24    25    1
    33    22    23    1
