@<TRIPOS>MOLECULE
1t5c_ADP_A_1.pdb
 27 29 0 0 0
SMALL
GASTEIGER

@<TRIPOS>ATOM
      1  PB        -2.3510    2.0910   54.6850 P.3   600  ADP600      0.5373
      2  O1B       -2.5650    2.8300   53.4350 O.2   600  ADP600     -0.2221
      3  O2B       -1.4750    0.8010   54.4020 O.3   600  ADP600     -0.1143
      4  O3B       -1.6640    2.9130   55.7070 O.3   600  ADP600     -0.1143
      5  PA        -4.0530    0.0200   55.5860 P.3   600  ADP600      0.2231
      6  O1A       -4.0240   -0.7930   54.3630 O.2   600  ADP600     -0.5169
      7  O2A       -3.0870   -0.5100   56.5480 O.3   600  ADP600     -0.4370
      8  O3A       -3.6720    1.5220   55.2880 O.3   600  ADP600     -0.2261
      9  O5'       -5.4070   -0.1170   56.3290 O.3   600  ADP600     -0.3111
     10  C5'       -6.3850    0.7900   56.8130 C.3   600  ADP600      0.1813
     11  C4'       -7.4580   -0.1770   57.4860 C.3   600  ADP600      0.1821
     12  O4'       -8.5020   -0.2340   56.5260 O.3   600  ADP600     -0.3135
     13  C3'       -7.0260   -1.6670   57.6990 C.3   600  ADP600      0.2184
     14  O3'       -7.5230   -2.2330   58.9330 O.3   600  ADP600     -0.2174
     15  C2'       -7.5180   -2.4090   56.4470 C.3   600  ADP600      0.2570
     16  O2'       -7.6620   -3.8420   56.5880 O.3   600  ADP600     -0.2130
     17  C1'       -8.7820   -1.5970   56.1100 C.3   600  ADP600      0.3186
     18  N9        -9.0860   -1.5210   54.6430 N.pl3 600  ADP600     -0.1439
     19  C8        -8.4060   -0.7620   53.7340 C.3   600  ADP600      0.3377
     20  N7        -8.9270   -0.9220   52.5310 N.2   600  ADP600     -0.2095
     21  C5        -9.9380   -1.7500   52.6220 C.2   600  ADP600      0.2526
     22  C6       -10.8760   -2.3130   51.7160 C.2   600  ADP600      0.4393
     23  N6       -10.8170   -1.9700   50.4020 N.pl3 600  ADP600      0.2180
     24  N1       -11.8640   -3.2130   52.1780 N.2   600  ADP600      0.0021
     25  C2       -11.9510   -3.5790   53.5140 C.3   600  ADP600      0.5254
     26  N3       -11.0430   -3.0460   54.4010 N.2   600  ADP600     -0.0055
     27  C4       -10.0490   -2.1450   54.0030 C.2   600  ADP600      0.3518
@<TRIPOS>BOND
     1    23    22    1
     2    22    24    2
     3    22    21    1
     4    24    25    1
     5    20    21    2
     6    20    19    1
     7    21    27    1
     8     2     1    2
     9    25    26    1
    10    19    18    1
    11    27    26    2
    12    27    18    1
    13     6     5    2
    14     3     1    1
    15    18    17    1
    16     1     8    1
    17     1     4    1
    18     8     5    1
    19     5     9    1
    20     5     7    1
    21    17    15    1
    22    17    12    1
    23     9    10    1
    24    15    16    1
    25    15    13    1
    26    12    11    1
    27    10    11    1
    28    11    13    1
    29    13    14    1
