@<TRIPOS>MOLECULE
1t5c_PIN_A_1.pdb
 18 18 0 0 0
SMALL
GASTEIGER

@<TRIPOS>ATOM
      1  C1        13.9960   10.2110   51.4790 C.3   604  PIN604      0.1225
      2  C2        15.3110   10.9390   51.8920 C.3   604  PIN604      0.0939
      3  N1        16.5470   10.5750   51.1410 N.3   604  PIN604     -0.2689
      4  C3        17.6490   11.5710   51.2560 C.3   604  PIN604      0.0897
      5  C4        16.2470   10.3490   49.7400 C.3   604  PIN604      0.0897
      6  C1'       21.0050   10.9590   47.9280 C.3   604  PIN604      0.1225
      7  C2'       19.6340   10.3490   48.1060 C.3   604  PIN604      0.0939
      8  N1'       18.6040   10.8710   49.0190 N.3   604  PIN604     -0.2689
      9  C3'       17.4760    9.9840   48.9060 C.3   604  PIN604      0.0897
     10  C4'       18.9290   11.0980   50.4500 C.3   604  PIN604      0.0897
     11  S1        13.3800    9.0700   52.5740 S.3   604  PIN604     -0.1946
     12  S1'       21.9530   10.0660   46.7900 S.3   604  PIN604     -0.1946
     13  O1        12.0980    8.7140   52.2440 O.3   604  PIN604     -0.3074
     14  O2        13.5760    9.4790   53.8990 O.3   604  PIN604     -0.3074
     15  O3        14.3410    7.7510   52.3560 O.3   604  PIN604     -0.3074
     16  O1'       21.4300   10.0000   45.5120 O.3   604  PIN604     -0.3074
     17  O2'       22.2050    8.8210   47.4060 O.3   604  PIN604     -0.3074
     18  O3'       23.3260   10.8890   46.7800 O.3   604  PIN604     -0.3074
@<TRIPOS>BOND
     1    16    12    1
     2    18    12    1
     3    12    17    1
     4    12     6    1
     5     6     7    1
     6     7     8    1
     7     9     8    1
     8     9     5    1
     9     8    10    1
    10     5     3    1
    11    10     4    1
    12     3     4    1
    13     3     2    1
    14     1     2    1
    15     1    11    1
    16    13    11    1
    17    15    11    1
    18    11    14    1
