@<TRIPOS>MOLECULE
1t5d_174_X_1.pdb
 10 10 0 0 0
SMALL
GASTEIGER

@<TRIPOS>ATOM
      1 CL4       -19.7870   95.8620   18.5410 Cl    998  174998     -0.0822
      2  C4       -19.9320   94.2010   19.2190 C.ar  998  174998      0.0577
      3  C5       -18.8170   93.7150   19.9010 C.ar  998  174998      0.0116
      4  C6       -18.8470   92.4520   20.4660 C.ar  998  174998      0.0074
      5  C3       -21.0990   93.4280   19.0890 C.ar  998  174998      0.0116
      6  C2       -21.1270   92.1580   19.6640 C.ar  998  174998      0.0074
      7  C1       -19.9960   91.6810   20.3420 C.ar  998  174998      0.0798
      8  C        -19.9620   90.3300   20.9890 C.2   998  174998      0.3878
      9  O1       -20.9680   89.5920   20.9240 O.co2 998  174998     -0.2406
     10  O2       -18.9190   89.9910   21.5970 O.co2 998  174998     -0.2406
@<TRIPOS>BOND
     1     1     2    1
     2     5     2   ar
     3     5     6   ar
     4     2     3   ar
     5     6     7   ar
     6     3     4   ar
     7     7     4   ar
     8     7     8    1
     9     9     8   ar
    10     8    10   ar
