@<TRIPOS>MOLECULE
1t5f_DHH_A_1.pdb
 12 11 0 0 0
SMALL
GASTEIGER

@<TRIPOS>ATOM
      1  NP1       88.5700   43.8420   -6.2920 N.3   1000  DHH1000    -0.1208
      2  C02       88.3750   43.9240   -7.8060 C.3   1000  DHH1000     0.1943
      3  C03       88.8260   45.2290   -8.3850 C.2   1000  DHH1000     0.3819
      4  O04       88.9680   45.4820   -9.5610 O.co2 1000  DHH1000    -0.2441
      5  O05       88.9600   46.1310   -7.4170 O.co2 1000  DHH1000    -0.2441
      6  C06       86.8730   43.5200   -8.1440 C.3   1000  DHH1000     0.0306
      7  C07       85.9270   44.7670   -8.2390 C.3   1000  DHH1000     0.0023
      8  C08       84.5260   44.2260   -8.5560 C.3   1000  DHH1000     0.0082
      9  C09       83.5550   44.9910   -7.7060 C.3   1000  DHH1000     0.0998
     10  C10       82.1140   44.8390   -8.1500 C.3   1000  DHH1000     0.4259
     11  O1        81.3760   44.6790   -6.9920 O.2   1000  DHH1000    -0.2671
     12  O2        81.5480   46.0250   -8.6640 O.2   1000  DHH1000    -0.2671
@<TRIPOS>BOND
     1     4     3   ar
     2    12    10    1
     3     8     7    1
     4     8     9    1
     5     3     2    1
     6     3     5   ar
     7     7     6    1
     8    10     9    1
     9    10    11    1
    10     6     2    1
    11     2     1    1
