@<TRIPOS>MOLECULE
1t5g_ARG_A_1.pdb
 12 11 0 0 0
SMALL
GASTEIGER

@<TRIPOS>ATOM
      1  N         88.5670   42.2620   -7.8530 N.3   1000  ARG1000    -0.1208
      2  CA        87.9200   43.5730   -8.1010 C.3   1000  ARG1000     0.1944
      3  C         89.0260   44.6680   -8.1960 C.2   1000  ARG1000     0.3819
      4  O         90.2130   44.3120   -8.0620 O.co2 1000  ARG1000    -0.2441
      5  CB        86.9840   43.9390   -6.9530 C.3   1000  ARG1000     0.0343
      6  CG        85.8440   44.8340   -7.3980 C.3   1000  ARG1000     0.0490
      7  CD        84.5690   44.0480   -7.8980 C.3   1000  ARG1000     0.2205
      8  NE        83.9120   44.7990   -9.0300 N.pl3 1000  ARG1000    -0.0865
      9  CZ        82.6580   45.2680   -8.9670 C.cat 1000  ARG1000     0.5346
     10  NH1       82.2190   46.1620   -9.8610 N.pl3 1000  ARG1000     0.1354
     11  NH2       81.8600   44.8140   -7.9830 N.pl3 1000  ARG1000     0.1354
     12  OXT       88.6740   45.8510   -8.3600 O.co2 1000  ARG1000    -0.2441
@<TRIPOS>BOND
     1    10     9    1
     2     8     9    2
     3     8     7    1
     4     9    11    1
     5    12     3   ar
     6     3     2    1
     7     3     4   ar
     8     2     1    1
     9     2     5    1
    10     7     6    1
    11     6     5    1
