@<TRIPOS>MOLECULE
1t5p_1FH_A_1.pdb
 49 57 0 0 0
SMALL
GASTEIGER

@<TRIPOS>ATOM
      1 FE          8.6400    8.0860    4.6230 Fe    300  1FH300      0.0000
      2  NA         7.9140    8.8680    6.3040 N.2   300  1FH300      0.0000
      3  NB         6.7570    7.5510    4.0880 N.ar  300  1FH300      0.0000
      4  NC         9.3960    7.3050    3.0140 N.2   300  1FH300      0.0000
      5  ND        10.4960    8.6420    5.2510 N.ar  300  1FH300      0.0000
      6  C1A        8.5900    9.5090    7.3670 C.2   300  1FH300      0.0000
      7  CHA        9.9860    9.7080    7.3990 C.2   300  1FH300      0.0000
      8  C4D       10.8530    9.3080    6.4260 C.ar  300  1FH300      0.0000
      9  C1B        5.5840    7.7870    4.8320 C.ar  300  1FH300      0.0000
     10  CHB        5.5150    8.4100    6.0310 C.2   300  1FH300      0.0000
     11  C4A        6.5920    8.9140    6.7230 C.2   300  1FH300      0.0000
     12  C1C        8.7180    6.6360    1.9220 C.2   300  1FH300      0.0000
     13  CHC        7.2490    6.4210    1.8510 C.2   300  1FH300      0.0000
     14  C4B        6.3340    6.8680    2.9100 C.ar  300  1FH300      0.0000
     15  C1D       11.7230    8.4430    4.6150 C.ar  300  1FH300      0.0000
     16  CHD       11.8310    7.8080    3.4180 C.2   300  1FH300      0.0000
     17  C4C       10.7600    7.2780    2.6740 C.2   300  1FH300      0.0000
     18  C2A        7.6550    9.9650    8.4790 C.2   300  1FH300      0.0000
     19  CAA        7.9640   10.6970    9.8240 C.3   300  1FH300      0.0000
     20  C3A        6.4280    9.5840    8.0530 C.2   300  1FH300      0.0000
     21  CMA        5.1290    9.8380    8.8730 C.3   300  1FH300      0.0000
     22  CBA        8.5220   12.1320    9.7190 C.3   300  1FH300      0.0000
     23  CGA        9.8150   12.3390   10.5340 C.2   300  1FH300      0.0000
     24  O1A        9.8960   11.8420   11.6980 O.co2 300  1FH300      0.0000
     25  O2A       10.7510   13.0010   10.0110 O.co2 300  1FH300      0.0000
     26  C2B        4.3950    7.2880    4.1950 C.ar  300  1FH300      0.0000
     27  CMB        2.9270    7.3760    4.7480 C.3   300  1FH300      0.0000
     28  C3B        4.7910    6.7070    3.0080 C.ar  300  1FH300      0.0000
     29  CAB        3.8560    6.1050    2.1360 C.3   300  1FH300      0.0000
     30  CBB        3.0580    6.8380    1.1730 C.3   300  1FH300      0.0000
     31  C2C        9.7490    6.2030    0.9000 C.2   300  1FH300      0.0000
     32  CMC        9.6430    5.4480   -0.4700 C.3   300  1FH300      0.0000
     33  C3C       10.9520    6.6100    1.4050 C.2   300  1FH300      0.0000
     34  CAC       12.1870    6.3950    0.7660 C.3   300  1FH300      0.0000
     35  CBC       12.8940    5.1910    1.1700 C.3   300  1FH300      0.0000
     36  C2D       12.8310    8.9960    5.4030 C.ar  300  1FH300      0.0000
     37  CMD       14.3240    8.9980    5.0860 C.3   300  1FH300      0.0000
     38  C3D       12.2920    9.5390    6.5320 C.ar  300  1FH300      0.0000
     39  CAD       13.0240   10.2410    7.6940 C.3   300  1FH300      0.0000
     40  CBD       13.2520   11.7530    7.7640 C.3   300  1FH300      0.0000
     41  CGD       14.0100   12.1450    9.0470 C.2   300  1FH300      0.0000
     42  O1D       15.0090   12.9060    8.9510 O.co2 300  1FH300      0.0000
     43  O2D       13.5980   11.6820   10.1630 O.co2 300  1FH300      0.0000
     44  CG         6.6450    6.8410    0.5090 C.ar  300  1FH300      0.0000
     45  CD1        6.4240    8.1950    0.1210 C.ar  300  1FH300      0.0000
     46  CD2        6.2740    5.7930   -0.4150 C.ar  300  1FH300      0.0000
     47  CE1        5.8490    8.5030   -1.1520 C.ar  300  1FH300      0.0000
     48  CE2        5.7150    6.1130   -1.6560 C.ar  300  1FH300      0.0000
     49  CZ         5.4960    7.4590   -2.0370 C.ar  300  1FH300      0.0000
@<TRIPOS>BOND
     1    49    48   ar
     2    49    47   ar
     3    48    46   ar
     4    47    45   ar
     5    32    31    1
     6    46    44   ar
     7    45    44   ar
     8    44    13    1
     9    34    35    1
    10    34    33    1
    11    31    33    2
    12    31    12    1
    13    30    29    1
    14    33    17    1
    15    13    12    2
    16    13    14    1
    17    12     4    1
    18    29    28    1
    19    17     4    2
    20    17    16    1
    21    14    28   ar
    22    14     3   ar
    23    28    26   ar
    24     4     1    1
    25    16    15    2
    26     3     1    1
    27     3     9   ar
    28    26    27    1
    29    26     9   ar
    30    15     5   ar
    31    15    36   ar
    32     1     5    1
    33     1     2    1
    34     9    10    1
    35    37    36    1
    36     5     8   ar
    37    36    38   ar
    38    10    11    2
    39     2    11    1
    40     2     6    2
    41     8    38   ar
    42     8     7    2
    43    38    39    1
    44    11    20    1
    45     6     7    1
    46     6    18    1
    47    39    40    1
    48    40    41    1
    49    20    18    2
    50    20    21    1
    51    18    19    1
    52    42    41   ar
    53    41    43   ar
    54    22    19    1
    55    22    23    1
    56    25    23   ar
    57    23    24   ar
