@<TRIPOS>MOLECULE
1t5s_ACP_A_1.pdb
 31 33 0 0 0
SMALL
GASTEIGER

@<TRIPOS>ATOM
      1  PG       -15.7900    2.7580   15.3890 P.3   1001  ACP1001     0.1295
      2  O1G      -16.1630    4.2130   15.2290 O.3   1001  ACP1001    -0.3567
      3  O2G      -14.3040    2.5560   15.1850 O.2   1001  ACP1001    -0.4595
      4  O3G      -16.4210    2.2010   16.6740 O.3   1001  ACP1001    -0.3567
      5  PB       -16.4110    1.9990   12.4990 P.3   1001  ACP1001     0.3815
      6  O1B      -16.4820    3.4570   12.0210 O.3   1001  ACP1001    -0.1391
      7  O2B      -17.2400    0.9600   11.8490 O.2   1001  ACP1001    -0.2547
      8  C3B      -16.5610    1.9200   14.1460 C.3   1001  ACP1001     0.1768
      9  PA       -14.5180    0.0330   11.6130 P.3   1001  ACP1001     0.2209
     10  O1A      -15.2860   -1.0460   12.3190 O.3   1001  ACP1001    -0.4371
     11  O2A      -13.0020   -0.1270   11.5390 O.2   1001  ACP1001    -0.5170
     12  O3A      -14.8970    1.5330   12.1260 O.3   1001  ACP1001    -0.2483
     13  O5'      -15.0200    0.2030   10.0800 O.3   1001  ACP1001    -0.3111
     14  C5'      -14.2420    0.9330    9.1240 C.3   1001  ACP1001     0.1813
     15  C4'      -15.1650    1.6020    8.1130 C.3   1001  ACP1001     0.1821
     16  O4'      -15.7590    0.5450    7.3440 O.3   1001  ACP1001    -0.3135
     17  C3'      -16.3470    2.4140    8.6700 C.3   1001  ACP1001     0.2184
     18  O3'      -16.0550    3.7420    9.0970 O.3   1001  ACP1001    -0.2174
     19  C2'      -17.2910    2.3950    7.4860 C.3   1001  ACP1001     0.2570
     20  O2'      -16.8230    3.3050    6.5080 O.3   1001  ACP1001    -0.2130
     21  C1'      -17.0200    1.0080    6.8930 C.3   1001  ACP1001     0.3186
     22  N9       -17.9160   -0.0330    7.3670 N.pl3 1001  ACP1001    -0.1439
     23  C8       -18.2780   -0.2900    8.6090 C.3   1001  ACP1001     0.3377
     24  N7       -19.0960   -1.3830    8.6330 N.2   1001  ACP1001    -0.2095
     25  C5       -19.2570   -1.8360    7.3940 C.2   1001  ACP1001     0.2526
     26  C6       -19.9890   -2.9060    6.7070 C.2   1001  ACP1001     0.4393
     27  N6       -20.7580   -3.7920    7.3790 N.pl3 1001  ACP1001     0.2180
     28  N1       -19.8700   -2.9950    5.3710 N.2   1001  ACP1001     0.0021
     29  C2       -19.1140   -2.1540    4.6550 C.3   1001  ACP1001     0.5254
     30  N3       -18.4300   -1.1580    5.2160 N.2   1001  ACP1001    -0.0055
     31  C4       -18.4700   -0.9240    6.5500 C.2   1001  ACP1001     0.3518
@<TRIPOS>BOND
     1    29    30    1
     2    29    28    1
     3    30    31    2
     4    28    26    2
     5    20    19    1
     6    31    22    1
     7    31    25    1
     8    26    27    1
     9    26    25    1
    10    21    16    1
    11    21    22    1
    12    21    19    1
    13    16    15    1
    14    22    23    1
    15    25    24    2
    16    19    17    1
    17    15    17    1
    18    15    14    1
    19    23    24    1
    20    17    18    1
    21    14    13    1
    22    13     9    1
    23    11     9    2
    24     9    12    1
    25     9    10    1
    26     7     5    2
    27     6     5    1
    28    12     5    1
    29     5     8    1
    30     8     1    1
    31     3     1    2
    32     2     1    1
    33     1     4    1
