@<TRIPOS>MOLECULE
1t5t_ADP_A_1.pdb
 27 29 0 0 0
SMALL
GASTEIGER

@<TRIPOS>ATOM
      1  PB       -16.3060    2.5110   13.0490 P.3   1001  ADP1001     0.5373
      2  O1B      -16.2400    3.4830   11.8950 O.2   1001  ADP1001    -0.2221
      3  O2B      -17.4030    1.4800   13.0010 O.3   1001  ADP1001    -0.1143
      4  O3B      -16.3060    3.1550   14.4200 O.3   1001  ADP1001    -0.1143
      5  PA       -14.8290    0.2220   12.1720 P.3   1001  ADP1001     0.2231
      6  O1A      -15.6390   -0.8380   12.8870 O.3   1001  ADP1001    -0.4370
      7  O2A      -13.3470   -0.0560   11.9450 O.2   1001  ADP1001    -0.5169
      8  O3A      -14.9290    1.6930   12.8470 O.3   1001  ADP1001    -0.2261
      9  O5'      -15.4330    0.5650   10.7220 O.3   1001  ADP1001    -0.3111
     10  C5'      -14.5550    1.0320    9.6920 C.3   1001  ADP1001     0.1813
     11  C4'      -15.3500    1.7040    8.5890 C.3   1001  ADP1001     0.1821
     12  O4'      -15.9010    0.7000    7.7460 O.3   1001  ADP1001    -0.3135
     13  C3'      -16.5530    2.5720    9.0230 C.3   1001  ADP1001     0.2184
     14  O3'      -16.2020    3.9250    9.3420 O.3   1001  ADP1001    -0.2174
     15  C2'      -17.5170    2.4930    7.8520 C.3   1001  ADP1001     0.2570
     16  O2'      -17.1870    3.4590    6.8570 O.3   1001  ADP1001    -0.2130
     17  C1'      -17.1740    1.1530    7.2410 C.3   1001  ADP1001     0.3186
     18  N9       -18.1010    0.0800    7.5860 N.pl3 1001  ADP1001    -0.1439
     19  C8       -18.5390   -0.1830    8.8050 C.3   1001  ADP1001     0.3377
     20  N7       -19.3520   -1.2580    8.7660 N.2   1001  ADP1001    -0.2095
     21  C5       -19.4170   -1.7150    7.5060 C.2   1001  ADP1001     0.2526
     22  C6       -20.0770   -2.8360    6.8010 C.2   1001  ADP1001     0.4393
     23  N6       -20.8650   -3.6900    7.4810 N.pl3 1001  ADP1001     0.2180
     24  N1       -19.9220   -2.9760    5.4780 N.2   1001  ADP1001     0.0021
     25  C2       -19.1430   -2.0930    4.8280 C.3   1001  ADP1001     0.5254
     26  N3       -18.4960   -1.0490    5.4010 N.2   1001  ADP1001    -0.0055
     27  C4       -18.5870   -0.8090    6.7270 C.2   1001  ADP1001     0.3518
@<TRIPOS>BOND
     1    25    26    1
     2    25    24    1
     3    26    27    2
     4    24    22    2
     5    27    21    1
     6    27    18    1
     7    22    23    1
     8    22    21    1
     9    16    15    1
    10    17    18    1
    11    17    12    1
    12    17    15    1
    13    21    20    2
    14    18    19    1
    15    12    11    1
    16    15    13    1
    17    11    13    1
    18    11    10    1
    19    20    19    1
    20    13    14    1
    21    10     9    1
    22     9     5    1
    23     2     1    2
    24     7     5    2
    25     5     8    1
    26     5     6    1
    27     8     1    1
    28     3     1    1
    29     1     4    1
