@<TRIPOS>MOLECULE
1t5z_DHT_A_1.pdb
 21 24 0 0 0
SMALL
GASTEIGER

@<TRIPOS>ATOM
      1  C1        -0.1060   61.1110    3.9130 C.3   931  DHT931      0.0078
      2  C2         0.6660   59.8380    4.3390 C.3   931  DHT931      0.0645
      3  C3         2.1510   60.0190    3.8560 C.2   931  DHT931      0.1506
      4  O3         2.6910   59.0460    3.2880 O.2   931  DHT931     -0.2961
      5  C4         2.8430   61.3030    4.0910 C.3   931  DHT931      0.0645
      6  C5         2.0070   62.5220    3.5830 C.3   931  DHT931      0.0073
      7  C6         2.7080   63.8990    3.8520 C.3   931  DHT931      0.0004
      8  C7         1.8330   65.0470    3.2920 C.3   931  DHT931      0.0000
      9  C8         0.4120   65.0800    3.9470 C.3   931  DHT931      0.0001
     10  C9        -0.2840   63.6970    3.7010 C.3   931  DHT931      0.0000
     11  C10        0.5520   62.4750    4.2550 C.3   931  DHT931      0.0008
     12  C11       -1.7170   63.7520    4.3250 C.3   931  DHT931      0.0001
     13  C12       -2.6190   64.9040    3.8900 C.3   931  DHT931      0.0024
     14  C13       -1.9110   66.2770    3.9940 C.3   931  DHT931      0.0282
     15  C14       -0.4710   66.1820    3.3600 C.3   931  DHT931      0.0024
     16  C15        0.0280   67.6260    3.4860 C.3   931  DHT931      0.0027
     17  C16       -1.2030   68.4120    2.9960 C.3   931  DHT931      0.0329
     18  C17       -2.4070   67.4220    3.1350 C.3   931  DHT931      0.1519
     19  O17       -3.5320   68.1210    3.7030 O.3   931  DHT931     -0.2232
     20  C18       -1.8420   66.7020    5.5140 C.3   931  DHT931      0.0025
     21  C19        0.6750   62.6290    5.8280 C.3   931  DHT931      0.0000
@<TRIPOS>BOND
     1    17    18    1
     2    17    16    1
     3    18    19    1
     4    18    14    1
     5     4     3    2
     6     8     7    1
     7     8     9    1
     8    15    16    1
     9    15     9    1
    10    15    14    1
    11     6     7    1
    12     6     5    1
    13     6    11    1
    14    10     9    1
    15    10    11    1
    16    10    12    1
    17     3     5    1
    18     3     2    1
    19    13    14    1
    20    13    12    1
    21     1    11    1
    22     1     2    1
    23    14    20    1
    24    11    21    1
