@<TRIPOS>MOLECULE
1t63_DHT_A_1.pdb
 21 24 0 0 0
SMALL
GASTEIGER

@<TRIPOS>ATOM
      1  C1       -27.2160   28.3940    4.2530 C.3   931  DHT931      0.0078
      2  C2       -26.4290   27.1370    4.6550 C.3   931  DHT931      0.0645
      3  C3       -24.9730   27.3480    4.1360 C.2   931  DHT931      0.1506
      4  O3       -24.4650   26.4380    3.4790 O.2   931  DHT931     -0.2961
      5  C4       -24.2770   28.6300    4.4380 C.3   931  DHT931      0.0645
      6  C5       -25.1250   29.8580    3.9780 C.3   931  DHT931      0.0073
      7  C6       -24.4420   31.2320    4.2940 C.3   931  DHT931      0.0004
      8  C7       -25.3280   32.3880    3.7860 C.3   931  DHT931      0.0000
      9  C8       -26.7650   32.3700    4.4010 C.3   931  DHT931      0.0001
     10  C9       -27.4350   30.9830    4.1000 C.3   931  DHT931      0.0000
     11  C10      -26.5890   29.7620    4.6370 C.3   931  DHT931      0.0008
     12  C11      -28.8880   31.0040    4.6830 C.3   931  DHT931      0.0001
     13  C12      -29.7890   32.1600    4.2550 C.3   931  DHT931      0.0024
     14  C13      -29.1010   33.5390    4.4260 C.3   931  DHT931      0.0282
     15  C14      -27.6430   33.4850    3.8310 C.3   931  DHT931      0.0024
     16  C15      -27.1690   34.9340    4.0210 C.3   931  DHT931      0.0027
     17  C16      -28.3950   35.7250    3.5290 C.3   931  DHT931      0.0329
     18  C17      -29.5870   34.7220    3.5960 C.3   931  DHT931      0.1519
     19  O17      -30.7240   35.3790    4.1660 O.3   931  DHT931     -0.2232
     20  C18      -29.0860   33.9130    5.9720 C.3   931  DHT931      0.0025
     21  C19      -26.4850   29.8640    6.2200 C.3   931  DHT931      0.0000
@<TRIPOS>BOND
     1     4     3    2
     2    17    18    1
     3    17    16    1
     4    18    19    1
     5    18    14    1
     6     8     7    1
     7     8     9    1
     8    15    16    1
     9    15     9    1
    10    15    14    1
    11     6     7    1
    12     6     5    1
    13     6    11    1
    14    10     9    1
    15    10    11    1
    16    10    12    1
    17     3     5    1
    18     3     2    1
    19     1    11    1
    20     1     2    1
    21    13    14    1
    22    13    12    1
    23    14    20    1
    24    11    21    1
