@<TRIPOS>MOLECULE
1t64_TSN_A_1.pdb
 22 22 0 0 0
SMALL
GASTEIGER

@<TRIPOS>ATOM
      1  O1        61.8490   71.2370    4.5590 O.3   386  TSN386     -0.4024
      2  O2        60.9140   70.9210    6.9560 O.2   386  TSN386     -0.5359
      3  O3        58.4570   75.1370   12.7460 O.2   386  TSN386     -0.2910
      4  N1        62.3910   71.7780    5.5460 N.am  386  TSN386     -0.1984
      5  N2        62.7010   72.9110   16.9170 N.pl3 386  TSN386     -0.3041
      6  C1        60.5030   74.6030   13.7700 C.ar  386  TSN386      0.0351
      7  C2        59.8600   73.8630   14.7530 C.ar  386  TSN386      0.0041
      8  C3        60.6060   73.3150   15.7880 C.ar  386  TSN386      0.0146
      9  C4        61.9810   73.4880   15.8510 C.ar  386  TSN386      0.0479
     10  C5        62.6190   74.2250   14.8490 C.ar  386  TSN386      0.0146
     11  C6        61.8840   74.7930   13.8150 C.ar  386  TSN386      0.0041
     12  C7        59.6830   75.1610   12.6650 C.2   386  TSN386      0.1766
     13  C8        60.3780   75.6620   11.4290 C.3   386  TSN386      0.0835
     14  C9        60.3900   74.5470   10.4130 C.2   386  TSN386     -0.0230
     15  C10       61.4760   74.1320    9.7480 C.2   386  TSN386     -0.0256
     16  C11       61.2860   73.0290    8.7770 C.2   386  TSN386     -0.0026
     17  C12       62.0030   72.9180    7.6600 C.2   386  TSN386      0.0242
     18  C13       61.7410   71.8010    6.7070 C.2   386  TSN386      0.1102
     19  C14       59.6100   76.8100   10.8060 C.3   386  TSN386      0.0128
     20  C15       62.8170   74.7720    9.9690 C.3   386  TSN386      0.0307
     21  C17       64.1430   73.0470   17.0400 C.3   386  TSN386      0.1122
     22  C16       62.0180   72.1170   17.9340 C.3   386  TSN386      0.1122
@<TRIPOS>BOND
     1     1     4    1
     2     4    18   am
     3    18     2    2
     4    18    17    1
     5    17    16    2
     6    16    15    1
     7    15    20    1
     8    15    14    2
     9    14    13    1
    10    19    13    1
    11    13    12    1
    12    12     3    2
    13    12     6    1
    14     6    11   ar
    15     6     7   ar
    16    11    10   ar
    17     7     8   ar
    18    10     9   ar
    19     8     9   ar
    20     9     5    1
    21     5    21    1
    22     5    22    1
