@<TRIPOS>MOLECULE
1t66_FLU_C_1.pdb
 25 28 0 0 0
SMALL
GASTEIGER

@<TRIPOS>ATOM
      1  C1        21.5240   43.0400   88.2860 C.ar  301  FLU301      0.1988
      2  O1        20.6290   42.3540   87.7910 O.2   301  FLU301     -0.2865
      3  C2        21.2560   43.5350   89.6270 C.ar  301  FLU301      0.0794
      4  C3        22.3090   44.3200   90.1710 C.ar  301  FLU301      0.1480
      5  O2        22.0120   44.8160   91.5850 O.2   301  FLU301     -0.4572
      6  C4        22.9650   45.4900   92.0390 C.ar  301  FLU301      0.1304
      7  C5        22.5830   45.8840   93.3680 C.3   301  FLU301      0.1334
      8  C6        23.5550   46.6520   94.0580 C.2   301  FLU301      0.1807
      9  O3        23.2890   47.0270   95.2250 O.2   301  FLU301     -0.2909
     10  C7        24.7830   46.9940   93.4940 C.2   301  FLU301      0.0380
     11  C8        25.1260   46.5830   92.1580 C.2   301  FLU301      0.0057
     12  C9        24.1480   45.7980   91.4500 C.ar  301  FLU301      0.0310
     13  C10       24.5530   45.3770   90.0230 C.ar  301  FLU301      0.0058
     14  C11       23.4840   44.6130   89.5360 C.ar  301  FLU301      0.0348
     15  C12       23.7260   44.1030   88.1720 C.ar  301  FLU301      0.0063
     16  C13       22.6760   43.3120   87.6220 C.ar  301  FLU301      0.0422
     17  C14       25.7260   45.7090   89.4440 C.ar  301  FLU301      0.0066
     18  C15       25.9170   46.9250   88.7120 C.ar  301  FLU301      0.0002
     19  C16       27.1040   47.3170   88.0860 C.ar  301  FLU301      0.0000
     20  C17       28.2620   46.4200   88.1780 C.ar  301  FLU301      0.0002
     21  C18       28.0170   45.2170   88.9240 C.ar  301  FLU301      0.0066
     22  C19       26.8520   44.7910   89.5610 C.ar  301  FLU301      0.0798
     23  C20       26.9380   43.5440   90.2120 C.2   301  FLU301      0.3878
     24  O4        26.7910   42.5540   89.2500 O.co2 301  FLU301     -0.2406
     25  O5        27.0990   43.2100   91.5090 O.co2 301  FLU301     -0.2406
@<TRIPOS>BOND
     1    16    15   ar
     2    16     1   ar
     3     2     1    2
     4    19    20   ar
     5    19    18   ar
     6    15    14   ar
     7    20    21   ar
     8     1     3   ar
     9    18    17   ar
    10    21    22   ar
    11    24    23   ar
    12    17    22   ar
    13    17    13    1
    14    14    13   ar
    15    14     4    1
    16    22    23    1
    17     3     4   ar
    18    13    12   ar
    19     4     5   ar
    20    23    25   ar
    21    12     6   ar
    22    12    11    1
    23     5     6   ar
    24     6     7    1
    25    11    10    2
    26     7     8    1
    27    10     8    1
    28     8     9    2
