@<TRIPOS>MOLECULE
1t67_B3N_A_1.pdb
 22 22 0 0 0
SMALL
GASTEIGER

@<TRIPOS>ATOM
      1  O23       51.9990   -3.7700   32.7800 O.2   381  B3N381     -0.2684
      2  C13       50.9020   -4.1260   33.1930 C.2   381  B3N381      0.2648
      3  C14       50.2260   -3.2960   34.2600 C.ar  381  B3N381      0.0551
      4  C15       48.8750   -3.4710   34.5590 C.ar  381  B3N381      0.0058
      5  C16       48.2710   -2.6920   35.5590 C.ar  381  B3N381      0.0147
      6  C17       49.0060   -1.7360   36.2750 C.ar  381  B3N381      0.0479
      7  N20       48.4050   -0.9420   37.2730 N.pl3 381  B3N381     -0.3041
      8  C22       46.9880   -1.0320   37.5950 C.3   381  B3N381      0.1122
      9  C21       49.2070    0.0360   37.9940 C.3   381  B3N381      0.1122
     10  C18       50.3650   -1.5620   35.9720 C.ar  381  B3N381      0.0147
     11  C19       50.9690   -2.3440   34.9760 C.ar  381  B3N381      0.0058
     12  N12       50.3070   -5.2320   32.7430 N.am  381  B3N381     -0.2017
     13  C10       50.8830   -6.1430   31.7650 C.3   381  B3N381      0.1155
     14  C9        50.4130   -5.8850   30.3300 C.3   381  B3N381      0.0234
     15  C8        51.2480   -4.7800   29.6760 C.3   381  B3N381      0.0018
     16  C7        50.8180   -4.5190   28.2310 C.3   381  B3N381      0.0006
     17  C6        50.2150   -3.1390   28.0250 C.3   381  B3N381      0.0097
     18  C5        49.7050   -2.9730   26.5960 C.3   381  B3N381      0.0904
     19  C1        50.7510   -2.2360   25.7790 C.2   381  B3N381      0.2838
     20  O2        51.1280   -1.1130   26.0750 O.2   381  B3N381     -0.2698
     21  N3        51.2440   -2.8670   24.7240 N.am  381  B3N381      0.0385
     22  O4        52.2220   -2.4130   24.1260 O.2   381  B3N381     -0.1531
@<TRIPOS>BOND
     1    22    21    2
     2    21    19    1
     3    19    20    2
     4    19    18    1
     5    18    17    1
     6    17    16    1
     7    16    15    1
     8    15    14    1
     9    14    13    1
    10    13    12    1
    11    12     2   am
    12     1     2    2
    13     2     3    1
    14     3     4   ar
    15     3    11   ar
    16     4     5   ar
    17    11    10   ar
    18     5     6   ar
    19    10     6   ar
    20     6     7    1
    21     7     8    1
    22     7     9    1
