@<TRIPOS>MOLECULE
1t68_HEM_X_1.pdb
 43 50 0 0 0
SMALL
GASTEIGER

@<TRIPOS>ATOM
      1 FE         22.0110   78.2440   27.1840 Fe    201  HEM201      0.0000
      2  CHA       24.7820   76.2680   27.3490 C.2   201  HEM201      0.0000
      3  CHB       22.7110   79.5740   30.1750 C.2   201  HEM201      0.0000
      4  CHC       20.0300   80.8100   26.3930 C.2   201  HEM201      0.0000
      5  CHD       20.7600   76.3760   24.5970 C.2   201  HEM201      0.0000
      6  NA        23.4900   77.9630   28.5080 N.2   201  HEM201      0.0000
      7  C1A       24.4960   77.0320   28.4200 C.2   201  HEM201      0.0000
      8  C2A       25.1960   77.0460   29.6650 C.2   201  HEM201      0.0000
      9  C3A       24.6290   77.9360   30.4380 C.2   201  HEM201      0.0000
     10  C4A       23.5090   78.5400   29.7400 C.2   201  HEM201      0.0000
     11  CMA       25.0020   78.3080   31.8930 C.3   201  HEM201      0.0000
     12  CAA       26.4140   76.1670   30.0160 C.3   201  HEM201      0.0000
     13  CBA       26.1190   74.6790   30.0290 C.3   201  HEM201      0.0000
     14  CGA       27.3520   73.9270   30.4840 C.2   201  HEM201      0.0000
     15  O1A       27.4660   72.7120   30.1560 O.co2 201  HEM201      0.0000
     16  O2A       28.2310   74.5410   31.1300 O.co2 201  HEM201      0.0000
     17  NB        21.4740   79.8890   28.1570 N.ar  201  HEM201      0.0000
     18  C1B       21.8490   80.2750   29.3950 C.ar  201  HEM201      0.0000
     19  C2B       21.2590   81.5430   29.6380 C.ar  201  HEM201      0.0000
     20  C3B       20.5570   81.9420   28.5730 C.ar  201  HEM201      0.0000
     21  C4B       20.6580   80.8790   27.6140 C.ar  201  HEM201      0.0000
     22  CMB       21.4140   82.2450   30.9530 C.3   201  HEM201      0.0000
     23  CAB       19.7430   83.2120   28.2770 C.2   201  HEM201      0.0000
     24  CBB       20.2680   84.3620   28.6180 C.2   201  HEM201      0.0000
     25  NC        20.6070   78.5160   25.7600 N.2   201  HEM201      0.0000
     26  C1C       19.8820   79.6690   25.6190 C.2   201  HEM201      0.0000
     27  C2C       18.9660   79.4890   24.5160 C.2   201  HEM201      0.0000
     28  C3C       19.1460   78.2390   24.0820 C.2   201  HEM201      0.0000
     29  C4C       20.2090   77.6050   24.8310 C.2   201  HEM201      0.0000
     30  CMC       17.9880   80.5680   24.0780 C.3   201  HEM201      0.0000
     31  CAC       18.4340   77.4580   22.9670 C.2   201  HEM201      0.0000
     32  CBC       17.7590   78.0870   21.9810 C.2   201  HEM201      0.0000
     33  ND        22.6130   76.6130   26.1470 N.ar  201  HEM201      0.0000
     34  C1D       21.9790   76.0340   25.0690 C.ar  201  HEM201      0.0000
     35  C2D       22.8370   75.0460   24.5220 C.ar  201  HEM201      0.0000
     36  C3D       24.0720   75.0220   25.3550 C.ar  201  HEM201      0.0000
     37  C4D       23.8650   76.0130   26.3740 C.ar  201  HEM201      0.0000
     38  CMD       22.5440   74.1530   23.3390 C.3   201  HEM201      0.0000
     39  CAD       25.3300   74.2020   25.0580 C.3   201  HEM201      0.0000
     40  CBD       25.4760   72.9830   25.9180 C.3   201  HEM201      0.0000
     41  CGD       26.7840   72.2550   25.6530 C.2   201  HEM201      0.0000
     42  O1D       27.8020   72.9580   25.4470 O.co2 201  HEM201      0.0000
     43  O2D       26.7390   70.9850   25.6580 O.co2 201  HEM201      0.0000
@<TRIPOS>BOND
     1    32    31    2
     2    31    28    1
     3    38    35    1
     4    30    27    1
     5    28    27    2
     6    28    29    1
     7    27    26    1
     8    35    34   ar
     9    35    36   ar
    10     5    29    1
    11     5    34    2
    12    29    25    2
    13    39    36    1
    14    39    40    1
    15    34    33   ar
    16    36    37   ar
    17    42    41   ar
    18    26    25    1
    19    26     4    2
    20    41    43   ar
    21    41    40    1
    22    25     1    1
    23    33    37   ar
    24    33     1    1
    25    37     2    2
    26     4    21    1
    27     1    17    1
    28     1     6    1
    29     2     7    1
    30    21    17   ar
    31    21    20   ar
    32    17    18   ar
    33    23    20    1
    34    23    24    2
    35     7     6    2
    36     7     8    1
    37     6    10    1
    38    20    19   ar
    39    18    19   ar
    40    18     3    1
    41    19    22    1
    42     8    12    1
    43     8     9    2
    44    10     3    2
    45    10     9    1
    46    12    13    1
    47    13    14    1
    48    15    14   ar
    49     9    11    1
    50    14    16   ar
