@<TRIPOS>MOLECULE
1t69_SHH_A_1.pdb
 19 19 0 0 0
SMALL
GASTEIGER

@<TRIPOS>ATOM
      1  O1        28.1170   -2.3830   -6.7170 O.2   379  SHH379     -0.1531
      2  O2        28.9070   -1.2850   -8.9660 O.2   379  SHH379     -0.2698
      3  N1        29.2620   -2.5080   -7.1600 N.am  379  SHH379      0.0385
      4  C1        29.4990   -2.2090   -8.4230 C.2   379  SHH379      0.2838
      5  C2        30.5260   -3.0790   -9.1240 C.3   379  SHH379      0.0904
      6  C3        30.2290   -3.1560  -10.6170 C.3   379  SHH379      0.0097
      7  C4        30.1860   -4.5830  -11.1480 C.3   379  SHH379      0.0005
      8  C5        29.0160   -4.7240  -12.1150 C.3   379  SHH379      0.0005
      9  C6        29.4480   -5.1720  -13.5050 C.3   379  SHH379      0.0096
     10  C7        29.1480   -4.0950  -14.5380 C.3   379  SHH379      0.0872
     11  C8        30.0860   -4.2530  -15.7110 C.2   379  SHH379      0.2456
     12  O3        31.1070   -4.9240  -15.6220 O.2   379  SHH379     -0.2730
     13  N2        29.6830   -3.6430  -16.8310 N.am  379  SHH379     -0.1792
     14  C9        30.4660   -3.0430  -17.7610 C.ar  379  SHH379      0.0734
     15  C10       29.9570   -1.9040  -18.4040 C.ar  379  SHH379      0.0166
     16  C11       30.7120   -1.2440  -19.3730 C.ar  379  SHH379      0.0013
     17  C12       31.9770   -1.7310  -19.7030 C.ar  379  SHH379      0.0001
     18  C13       32.4830   -2.8780  -19.0690 C.ar  379  SHH379      0.0013
     19  C14       31.7290   -3.5420  -18.1010 C.ar  379  SHH379      0.0166
@<TRIPOS>BOND
     1    17    16   ar
     2    17    18   ar
     3    16    15   ar
     4    18    19   ar
     5    15    14   ar
     6    19    14   ar
     7    14    13    1
     8    13    11   am
     9    11    12    2
    10    11    10    1
    11    10     9    1
    12     9     8    1
    13     8     7    1
    14     7     6    1
    15     6     5    1
    16     5     4    1
    17     2     4    2
    18     4     3    1
    19     3     1    2
