@<TRIPOS>MOLECULE
1t6n_FLC_B_1.pdb
 13 12 0 0 0
SMALL
GASTEIGER

@<TRIPOS>ATOM
      1  CAC       49.6130   21.3730   21.9240 C.2   500  FLC500      0.3680
      2  CA        48.7160   21.9460   20.8980 C.3   500  FLC500      0.1560
      3  CB        47.2320   22.4580   21.3420 C.3   500  FLC500      0.2402
      4  CBC       46.7300   23.2730   20.2270 C.2   500  FLC500      0.3927
      5  CG        47.1490   23.2910   22.7770 C.3   500  FLC500      0.1560
      6  CGC       48.2650   24.3140   23.2360 C.2   500  FLC500      0.3680
      7  OA1       49.1820   20.8710   22.9290 O.co2 500  FLC500     -0.2455
      8  OA2       50.7930   21.4430   21.6640 O.co2 500  FLC500     -0.2455
      9  OB1       45.7960   24.0580   20.3800 O.co2 500  FLC500     -0.2429
     10  OB2       47.3240   23.0800   19.1980 O.co2 500  FLC500     -0.2429
     11  OG1       48.0320   25.0490   24.1910 O.co2 500  FLC500     -0.2455
     12  OG2       49.3330   24.3050   22.6480 O.co2 500  FLC500     -0.2455
     13  OHB       46.3470   21.3590   21.4100 O.3   500  FLC500     -0.2129
@<TRIPOS>BOND
     1    10     4   ar
     2     4     9   ar
     3     4     3    1
     4     2     3    1
     5     2     1    1
     6     3    13    1
     7     3     5    1
     8     8     1   ar
     9     1     7   ar
    10    12     6   ar
    11     5     6    1
    12     6    11   ar
