@<TRIPOS>MOLECULE
1t6x_ADP_A_1.pdb
 27 29 0 0 0
SMALL
GASTEIGER

@<TRIPOS>ATOM
      1  PB        40.0440    3.7030   18.3130 P.3   294  ADP294      0.5373
      2  O1B       38.9130    2.8650   17.8490 O.3   294  ADP294     -0.1143
      3  O2B       39.8770    5.2180   17.7990 O.2   294  ADP294     -0.2221
      4  O3B       40.1450    3.6610   19.7980 O.3   294  ADP294     -0.1143
      5  PA        42.6660    3.9490   17.0850 P.3   294  ADP294      0.2231
      6  O1A       42.9720    5.1190   17.9130 O.3   294  ADP294     -0.4370
      7  O2A       43.8270    3.0570   17.0610 O.2   294  ADP294     -0.5169
      8  O3A       41.3940    3.2010   17.6600 O.3   294  ADP294     -0.2261
      9  O5'       42.3660    4.3910   15.5880 O.3   294  ADP294     -0.3111
     10  C5'       41.1850    4.1860   14.8050 C.3   294  ADP294      0.1813
     11  C4'       41.5020    4.8590   13.4380 C.3   294  ADP294      0.1821
     12  O4'       42.2750    3.9380   12.6500 O.3   294  ADP294     -0.3135
     13  C3'       40.2590    5.1890   12.5910 C.3   294  ADP294      0.2184
     14  O3'       40.3130    6.5070   12.0110 O.3   294  ADP294     -0.2174
     15  C2'       40.1760    4.0780   11.5420 C.3   294  ADP294      0.2570
     16  O2'       39.4820    4.4610   10.3470 O.3   294  ADP294     -0.2130
     17  C1'       41.6420    3.6900   11.3710 C.3   294  ADP294      0.3186
     18  N9        41.9080    2.2350   11.0000 N.pl3 294  ADP294     -0.1439
     19  C8        43.0540    1.8320   10.4100 C.3   294  ADP294      0.3377
     20  N7        43.0280    0.5300   10.1970 N.2   294  ADP294     -0.2095
     21  C5        41.8940    0.0550   10.6290 C.2   294  ADP294      0.2526
     22  C6        41.2960   -1.2200   10.6810 C.2   294  ADP294      0.4393
     23  N6        41.9450   -2.2860   10.2000 N.pl3 294  ADP294      0.2180
     24  N1        40.0330   -1.3770   11.2270 N.2   294  ADP294      0.0021
     25  C2        39.3290   -0.3200   11.7310 C.3   294  ADP294      0.5254
     26  N3        39.8960    0.9230   11.6880 N.2   294  ADP294     -0.0055
     27  C4        41.1480    1.1540   11.1600 C.2   294  ADP294      0.3518
@<TRIPOS>BOND
     1    20    19    1
     2    20    21    2
     3    23    22    1
     4    16    15    1
     5    19    18    1
     6    21    22    1
     7    21    27    1
     8    22    24    2
     9    18    27    1
    10    18    17    1
    11    27    26    2
    12    24    25    1
    13    17    15    1
    14    17    12    1
    15    15    13    1
    16    26    25    1
    17    14    13    1
    18    13    11    1
    19    12    11    1
    20    11    10    1
    21    10     9    1
    22     9     5    1
    23     7     5    2
    24     5     8    1
    25     5     6    1
    26     8     1    1
    27     3     1    2
    28     2     1    1
    29     1     4    1
