@<TRIPOS>MOLECULE
1t6y_FMN_A_1.pdb
 31 33 0 0 0
SMALL
GASTEIGER

@<TRIPOS>ATOM
      1  N1        36.8050   -5.0940   26.3450 N.2   296  FMN296     -0.2887
      2  C2        36.2170   -5.5720   27.4600 C.1   296  FMN296      0.3669
      3  O2        36.1390   -5.0380   28.5670 O.2   296  FMN296     -0.1744
      4  N3        35.5640   -6.9030   27.3950 N.2   296  FMN296     -0.2300
      5  C4        35.5310   -7.6770   26.1960 C.1   296  FMN296      0.2513
      6  O4        34.9490   -8.7700   26.3010 O.2   296  FMN296     -0.2057
      7  C4A       36.1410   -7.1080   25.0940 C.2   296  FMN296      0.2703
      8  N5        36.1120   -7.7680   24.0020 N.2   296  FMN296     -0.3882
      9  C5A       36.7070   -7.2470   22.8360 C.2   296  FMN296      0.1277
     10  C6        36.6860   -7.9430   21.6000 C.3   296  FMN296      0.0820
     11  C7        37.3150   -7.3560   20.4280 C.2   296  FMN296     -0.0408
     12  C7M       37.1370   -8.3090   19.2480 C.3   296  FMN296      0.0265
     13  C8        37.9790   -6.0460   20.5180 C.2   296  FMN296     -0.0280
     14  C8M       38.6060   -5.4830   19.3140 C.3   296  FMN296      0.0304
     15  C9        38.0030   -5.3690   21.7210 C.2   296  FMN296      0.0123
     16  C9A       37.3690   -5.9220   22.9420 C.2   296  FMN296      0.0793
     17  N10       37.4420   -5.1770   24.0810 N.pl3 296  FMN296     -0.2545
     18  C10       36.8270   -5.7300   25.1740 C.2   296  FMN296      0.2449
     19  C1'       38.1220   -3.8760   24.2180 C.3   296  FMN296      0.1336
     20  C2'       37.4650   -2.6360   24.7270 C.3   296  FMN296      0.2048
     21  O2'       36.3920   -2.3170   23.8820 O.3   296  FMN296     -0.2185
     22  C3'       38.6140   -1.6640   24.6660 C.3   296  FMN296      0.2165
     23  O3'       39.1610   -1.4790   26.0060 O.3   296  FMN296     -0.2175
     24  C4'       38.3820   -0.2070   24.1770 C.3   296  FMN296      0.2147
     25  O4'       39.5950    0.5150   24.1980 O.3   296  FMN296     -0.2176
     26  C5'       37.2810    0.6450   24.9000 C.3   296  FMN296      0.1892
     27  O5'       37.1680    0.1900   26.2760 O.3   296  FMN296     -0.2674
     28  P         37.4450    1.2620   27.4000 P.3   296  FMN296      0.5327
     29  O1P       37.2370    0.4700   28.7340 O.3   296  FMN296     -0.1145
     30  O2P       38.8690    1.7200   27.2740 O.2   296  FMN296     -0.2224
     31  O3P       36.4010    2.4070   27.2820 O.3   296  FMN296     -0.1145
@<TRIPOS>BOND
     1    12    11    1
     2    14    13    1
     3    11    13    2
     4    11    10    1
     5    13    15    1
     6    10     9    1
     7    15    16    2
     8     9    16    1
     9     9     8    2
    10    16    17    1
    11    21    20    1
    12     8     7    2
    13    17    19    1
    14    17    18    1
    15    24    25    1
    16    24    22    1
    17    24    26    1
    18    19    20    1
    19    22    20    1
    20    22    23    1
    21    26    27    1
    22     7    18    1
    23     7     5    1
    24    18     1    2
    25     5     6    2
    26     5     4    2
    27    27    28    1
    28     1     2    2
    29    30    28    2
    30    31    28    1
    31     4     2    2
    32    28    29    1
    33     2     3    2
