@<TRIPOS>MOLECULE
1t6y_AMP_A_1.pdb
 23 25 0 0 0
SMALL
GASTEIGER

@<TRIPOS>ATOM
      1  P          4.6750    2.2910   11.5780 P.3   295  AMP295      0.5327
      2  O1P        4.7470    3.6280   12.1720 O.3   295  AMP295     -0.1145
      3  O2P        3.6930    1.3900   12.2590 O.3   295  AMP295     -0.1145
      4  O3P        6.0510    1.6510   11.4640 O.2   295  AMP295     -0.2224
      5  O5'        4.1720    2.5610   10.0420 O.3   295  AMP295     -0.2675
      6  C5'        4.0300    1.3610    9.3060 C.3   295  AMP295      0.1860
      7  C4'        2.7760    1.3890    8.4220 C.3   295  AMP295      0.1823
      8  O4'        2.8430    0.0200    7.9490 O.3   295  AMP295     -0.3135
      9  C3'        1.4310    1.5760    9.3290 C.3   295  AMP295      0.2184
     10  O3'        0.4430    2.1050    8.3160 O.3   295  AMP295     -0.2174
     11  C2'        1.1780    0.0940    9.7310 C.3   295  AMP295      0.2570
     12  O2'       -0.1600   -0.2370    9.8740 O.3   295  AMP295     -0.2130
     13  C1'        1.8030   -0.7780    8.5440 C.3   295  AMP295      0.3186
     14  N9         2.4550   -1.9450    9.1480 N.pl3 295  AMP295     -0.1439
     15  C8         3.5760   -1.9680   10.0080 C.3   295  AMP295      0.3377
     16  N7         4.0020   -3.1580   10.4370 N.2   295  AMP295     -0.2095
     17  C5         3.0640   -3.9580    9.7890 C.2   295  AMP295      0.2526
     18  C6         2.9020   -5.3540    9.7850 C.2   295  AMP295      0.4393
     19  N6         3.7790   -6.1180   10.5170 N.pl3 295  AMP295      0.2180
     20  N1         1.8390   -5.8430    9.0130 N.2   295  AMP295      0.0021
     21  C2         1.0040   -5.0490    8.3070 C.3   295  AMP295      0.5254
     22  N3         1.0860   -3.7100    8.2550 N.2   295  AMP295     -0.0055
     23  C4         2.1190   -3.2350    9.0050 C.2   295  AMP295      0.3518
@<TRIPOS>BOND
     1     8     7    1
     2     8    13    1
     3    22    21    1
     4    22    23    2
     5    21    20    1
     6    10     9    1
     7     7     6    1
     8     7     9    1
     9    13    14    1
    10    13    11    1
    11    23    14    1
    12    23    17    1
    13    20    18    2
    14    14    15    1
    15     6     5    1
    16     9    11    1
    17    11    12    1
    18    18    17    1
    19    18    19    1
    20    17    16    2
    21    15    16    1
    22     5     1    1
    23     4     1    2
    24     1     2    1
    25     1     3    1
