@<TRIPOS>MOLECULE
1t6y_ADP_A_1.pdb
 27 29 0 0 0
SMALL
GASTEIGER

@<TRIPOS>ATOM
      1  PB        41.7640    2.4970   19.3480 P.3   294  ADP294      0.5373
      2  O1B       40.8160    1.6700   18.5730 O.2   294  ADP294     -0.2221
      3  O2B       41.3270    4.0450   19.3430 O.3   294  ADP294     -0.1143
      4  O3B       41.8410    2.0030   20.7570 O.3   294  ADP294     -0.1143
      5  PA        44.0540    3.5760   17.9230 P.3   294  ADP294      0.2231
      6  O1A       44.0490    4.7850   18.7420 O.3   294  ADP294     -0.4370
      7  O2A       45.4250    3.1390   17.7070 O.2   294  ADP294     -0.5169
      8  O3A       43.1880    2.4650   18.6780 O.3   294  ADP294     -0.2261
      9  O5'       43.4790    3.8530   16.4620 O.3   294  ADP294     -0.3111
     10  C5'       42.3640    3.3020   15.7310 C.3   294  ADP294      0.1813
     11  C4'       42.4310    4.0540   14.3450 C.3   294  ADP294      0.1821
     12  O4'       43.4560    3.4820   13.5080 O.3   294  ADP294     -0.3135
     13  C3'       41.1660    4.0400   13.4860 C.3   294  ADP294      0.2184
     14  O3'       40.4330    5.2490   13.6680 O.3   294  ADP294     -0.2174
     15  C2'       41.6100    3.8300   12.0270 C.3   294  ADP294      0.2570
     16  O2'       41.5960    5.0240   11.2180 O.3   294  ADP294     -0.2130
     17  C1'       42.9710    3.1990   12.1700 C.3   294  ADP294      0.3186
     18  N9        42.9940    1.7080   11.8450 N.pl3 294  ADP294     -0.1439
     19  C8        43.9660    1.1730   11.0700 C.3   294  ADP294      0.3377
     20  N7        43.7700   -0.1180   10.9130 N.2   294  ADP294     -0.2095
     21  C5        42.6940   -0.4560   11.5620 C.2   294  ADP294      0.2526
     22  C6        41.9910   -1.6540   11.7620 C.2   294  ADP294      0.4393
     23  N6        42.4270   -2.7810   11.1990 N.pl3 294  ADP294      0.2180
     24  N1        40.8380   -1.6750   12.5390 N.2   294  ADP294      0.0021
     25  C2        40.3440   -0.5410   13.1360 C.3   294  ADP294      0.5254
     26  N3        41.0170    0.6410   12.9480 N.2   294  ADP294     -0.0055
     27  C4        42.1730    0.7280   12.1870 C.2   294  ADP294      0.3518
@<TRIPOS>BOND
     1    20    19    1
     2    20    21    2
     3    19    18    1
     4    23    22    1
     5    16    15    1
     6    21    22    1
     7    21    27    1
     8    22    24    2
     9    18    17    1
    10    18    27    1
    11    15    17    1
    12    15    13    1
    13    17    12    1
    14    27    26    2
    15    24    25    1
    16    26    25    1
    17    13    14    1
    18    13    11    1
    19    12    11    1
    20    11    10    1
    21    10     9    1
    22     9     5    1
    23     7     5    2
    24     5     8    1
    25     5     6    1
    26     2     1    2
    27     8     1    1
    28     3     1    1
    29     1     4    1
