@<TRIPOS>MOLECULE
1t6z_RBF_A_1.pdb
 27 29 0 0 0
SMALL
GASTEIGER

@<TRIPOS>ATOM
      1  N1        35.9520   -5.0630   26.0370 N.2   296  RBF296     -0.2890
      2  C2        35.3780   -5.5930   27.1110 C.1   296  RBF296      0.3669
      3  O2        35.3590   -5.0160   28.1830 O.2   296  RBF296     -0.1744
      4  N3        34.7440   -6.8890   27.0430 N.2   296  RBF296     -0.2300
      5  C4        34.6950   -7.6440   25.8750 C.1   296  RBF296      0.2513
      6  O4        34.1700   -8.6750   25.8980 O.2   296  RBF296     -0.2057
      7  C4A       35.3150   -7.0810   24.6700 C.2   296  RBF296      0.2700
      8  N5        35.2970   -7.7740   23.4890 N.2   296  RBF296     -0.3878
      9  C5A       35.8860   -7.2120   22.3930 C.2   296  RBF296      0.1320
     10  C6        35.8410   -7.9760   21.1670 C.2   296  RBF296      0.0250
     11  C7        36.4160   -7.4910   19.9900 C.2   296  RBF296     -0.0238
     12  C7M       36.3420   -8.3220   18.7410 C.3   296  RBF296      0.0308
     13  C8        37.0940   -6.1720   19.9860 C.2   296  RBF296     -0.0280
     14  C8M       37.7370   -5.5930   18.7510 C.3   296  RBF296      0.0304
     15  C9        37.1540   -5.3970   21.1900 C.2   296  RBF296     -0.0041
     16  C9A       36.5630   -5.8830   22.4070 C.3   296  RBF296      0.1497
     17  N10       36.5600   -5.1700   23.7100 N.pl3 296  RBF296     -0.2691
     18  C10       35.9550   -5.7460   24.8110 C.2   296  RBF296      0.2416
     19  C1'       37.2210   -3.7810   23.9660 C.3   296  RBF296      0.1294
     20  C2'       37.0070   -2.4960   23.0920 C.3   296  RBF296      0.2044
     21  O2'       37.7200   -2.7310   21.9040 O.3   296  RBF296     -0.2185
     22  C3'       37.6210   -1.1990   23.7660 C.3   296  RBF296      0.2166
     23  O3'       39.0220   -1.3960   24.0280 O.3   296  RBF296     -0.2175
     24  C4'       36.8900   -0.8200   25.1170 C.3   296  RBF296      0.2175
     25  O4'       35.4580   -0.6020   24.8910 O.3   296  RBF296     -0.2175
     26  C5'       37.5300    0.4620   25.7140 C.3   296  RBF296      0.2175
     27  O5'       36.7670    0.8360   27.1010 O.3   296  RBF296     -0.2175
@<TRIPOS>BOND
     1    12    11    1
     2    14    13    1
     3    13    11    1
     4    13    15    2
     5    11    10    2
     6    10     9    1
     7    15    16    1
     8    21    20    1
     9     9    16    1
    10     9     8    2
    11    16    17    1
    12    20    22    1
    13    20    19    1
    14     8     7    2
    15    17    19    1
    16    17    18    1
    17    22    23    1
    18    22    24    1
    19     7    18    1
    20     7     5    1
    21    18     1    2
    22    25    24    1
    23    24    26    1
    24    26    27    1
    25     5     6    2
    26     5     4    2
    27     1     2    2
    28     4     2    2
    29     2     3    2
