@<TRIPOS>MOLECULE
1t73_DHT_A_1.pdb
 21 24 0 0 0
SMALL
GASTEIGER

@<TRIPOS>ATOM
      1  C1        -0.1220  -27.9230   39.3500 C.3   200  DHT200      0.0078
      2  C2        -0.8850  -26.6600   39.7710 C.3   200  DHT200      0.0645
      3  C3        -2.3470  -26.8140   39.2470 C.2   200  DHT200      0.1506
      4  O3        -2.8420  -25.8820   38.6270 O.2   200  DHT200     -0.2961
      5  C4        -3.0610  -28.1100   39.5230 C.3   200  DHT200      0.0645
      6  C5        -2.2340  -29.3370   39.0460 C.3   200  DHT200      0.0073
      7  C6        -2.9500  -30.6990   39.3400 C.3   200  DHT200      0.0004
      8  C7        -2.0870  -31.8640   38.8230 C.3   200  DHT200      0.0000
      9  C8        -0.6540  -31.8890   39.4590 C.3   200  DHT200      0.0001
     10  C9         0.0510  -30.5170   39.1750 C.3   200  DHT200      0.0000
     11  C10       -0.7750  -29.2820   39.7190 C.3   200  DHT200      0.0008
     12  C11        1.4980  -30.5800   39.7820 C.3   200  DHT200      0.0001
     13  C12        2.3790  -31.7480   39.3430 C.3   200  DHT200      0.0024
     14  C13        1.6720  -33.1200   39.4830 C.3   200  DHT200      0.0282
     15  C14        0.2250  -33.0280   38.8810 C.3   200  DHT200      0.0024
     16  C15       -0.2700  -34.4810   39.0530 C.3   200  DHT200      0.0027
     17  C16        0.9580  -35.2970   38.5650 C.3   200  DHT200      0.0329
     18  C17        2.1540  -34.2990   38.6290 C.3   200  DHT200      0.1519
     19  O17        3.3060  -34.9710   39.1720 O.3   200  DHT200     -0.2232
     20  C18        1.6470  -33.5220   41.0240 C.3   200  DHT200      0.0025
     21  C19       -0.8810  -29.4050   41.2970 C.3   200  DHT200      0.0000
@<TRIPOS>BOND
     1    17    18    1
     2    17    16    1
     3     4     3    2
     4    18    19    1
     5    18    14    1
     6     8     7    1
     7     8     9    1
     8    15    16    1
     9    15     9    1
    10    15    14    1
    11     6     7    1
    12     6     5    1
    13     6    11    1
    14    10     9    1
    15    10    11    1
    16    10    12    1
    17     3     5    1
    18     3     2    1
    19    13    14    1
    20    13    12    1
    21     1    11    1
    22     1     2    1
    23    14    20    1
    24    11    21    1
