@<TRIPOS>MOLECULE
1t74_DHT_A_1.pdb
 21 24 0 0 0
SMALL
GASTEIGER

@<TRIPOS>ATOM
      1  C1        27.4770  -28.0100   40.7110 C.3   200  DHT200      0.0078
      2  C2        26.7230  -26.7630   41.1680 C.3   200  DHT200      0.0645
      3  C3        25.2850  -26.8870   40.5840 C.2   200  DHT200      0.1506
      4  O3        24.8460  -25.9550   39.9260 O.2   200  DHT200     -0.2961
      5  C4        24.5380  -28.1650   40.8340 C.3   200  DHT200      0.0645
      6  C5        25.3470  -29.3930   40.3280 C.3   200  DHT200      0.0073
      7  C6        24.6100  -30.7550   40.5750 C.3   200  DHT200      0.0004
      8  C7        25.4640  -31.9090   40.0200 C.3   200  DHT200      0.0000
      9  C8        26.8920  -31.9700   40.6730 C.3   200  DHT200      0.0001
     10  C9        27.6150  -30.5950   40.4540 C.3   200  DHT200      0.0000
     11  C10       26.7970  -29.3770   41.0240 C.3   200  DHT200      0.0008
     12  C11       29.0560  -30.6870   41.0820 C.3   200  DHT200      0.0001
     13  C12       29.9360  -31.8430   40.6120 C.3   200  DHT200      0.0024
     14  C13       29.2160  -33.2090   40.6900 C.3   200  DHT200      0.0282
     15  C14       27.7690  -33.0860   40.0640 C.3   200  DHT200      0.0024
     16  C15       27.2550  -34.5340   40.1700 C.3   200  DHT200      0.0027
     17  C16       28.4930  -35.3490   39.7150 C.3   200  DHT200      0.0329
     18  C17       29.6900  -34.3480   39.8030 C.3   200  DHT200      0.1519
     19  O17       30.8410  -35.0280   40.3090 O.3   200  DHT200     -0.2232
     20  C18       29.1680  -33.6530   42.2100 C.3   200  DHT200      0.0025
     21  C19       26.6610  -29.5440   42.5960 C.3   200  DHT200      0.0000
@<TRIPOS>BOND
     1    17    18    1
     2    17    16    1
     3    18    19    1
     4    18    14    1
     5     4     3    2
     6     8     7    1
     7     8     9    1
     8    15    16    1
     9    15     9    1
    10    15    14    1
    11     6     7    1
    12     6     5    1
    13     6    11    1
    14    10     9    1
    15    10    11    1
    16    10    12    1
    17     3     5    1
    18     3     2    1
    19    13    14    1
    20    13    12    1
    21    14    20    1
    22     1    11    1
    23     1     2    1
    24    11    21    1
