@<TRIPOS>MOLECULE
1t76_DHT_A_1.pdb
 21 24 0 0 0
SMALL
GASTEIGER

@<TRIPOS>ATOM
      1  C1        -0.0680  -28.0050   39.7100 C.3   200  DHT200      0.0078
      2  C2        -0.8420  -26.7510   40.1620 C.3   200  DHT200      0.0645
      3  C3        -2.2950  -26.8910   39.6210 C.2   200  DHT200      0.1506
      4  O3        -2.7940  -25.9360   39.0380 O.2   200  DHT200     -0.2961
      5  C4        -3.0090  -28.1930   39.8440 C.3   200  DHT200      0.0645
      6  C5        -2.1830  -29.4050   39.3550 C.3   200  DHT200      0.0073
      7  C6        -2.9100  -30.7590   39.6120 C.3   200  DHT200      0.0004
      8  C7        -2.0480  -31.9220   39.0850 C.3   200  DHT200      0.0000
      9  C8        -0.6190  -31.9630   39.7420 C.3   200  DHT200      0.0001
     10  C9         0.0980  -30.5930   39.4850 C.3   200  DHT200      0.0000
     11  C10       -0.7290  -29.3700   40.0440 C.3   200  DHT200      0.0008
     12  C11        1.5340  -30.6680   40.1090 C.3   200  DHT200      0.0001
     13  C12        2.4070  -31.8200   39.6580 C.3   200  DHT200      0.0024
     14  C13        1.6910  -33.1870   39.7910 C.3   200  DHT200      0.0282
     15  C14        0.2520  -33.0910   39.1660 C.3   200  DHT200      0.0024
     16  C15       -0.2540  -34.5410   39.3240 C.3   200  DHT200      0.0027
     17  C16        0.9890  -35.3590   38.8710 C.3   200  DHT200      0.0329
     18  C17        2.1850  -34.3630   38.9530 C.3   200  DHT200      0.1519
     19  O17        3.3200  -35.0300   39.5300 O.3   200  DHT200     -0.2232
     20  C18        1.6310  -33.5740   41.3280 C.3   200  DHT200      0.0025
     21  C19       -0.8520  -29.5210   41.6190 C.3   200  DHT200      0.0000
@<TRIPOS>BOND
     1    17    18    1
     2    17    16    1
     3    18    19    1
     4    18    14    1
     5     4     3    2
     6     8     7    1
     7     8     9    1
     8    15    16    1
     9    15     9    1
    10    15    14    1
    11     6     7    1
    12     6     5    1
    13     6    11    1
    14    10     9    1
    15    10    11    1
    16    10    12    1
    17     3     5    1
    18     3     2    1
    19    13    14    1
    20    13    12    1
    21     1    11    1
    22     1     2    1
    23    14    20    1
    24    11    21    1
