@<TRIPOS>MOLECULE
1t79_DHT_A_1.pdb
 21 24 0 0 0
SMALL
GASTEIGER

@<TRIPOS>ATOM
      1  C1        -0.0670    5.4870   38.1540 C.3   200  DHT200      0.0078
      2  C2        -0.8550    6.7360   38.5770 C.3   200  DHT200      0.0645
      3  C3        -2.2870    6.5760   37.9830 C.2   200  DHT200      0.1506
      4  O3        -2.7550    7.5040   37.3340 O.2   200  DHT200     -0.2961
      5  C4        -3.0020    5.2770   38.2210 C.3   200  DHT200      0.0645
      6  C5        -2.1550    4.0630   37.7410 C.3   200  DHT200      0.0073
      7  C6        -2.8660    2.6910   37.9840 C.3   200  DHT200      0.0004
      8  C7        -1.9840    1.5440   37.4600 C.3   200  DHT200      0.0000
      9  C8        -0.5640    1.5200   38.1450 C.3   200  DHT200      0.0001
     10  C9         0.1350    2.9060   37.9210 C.3   200  DHT200      0.0000
     11  C10       -0.7190    4.1150   38.4650 C.3   200  DHT200      0.0008
     12  C11        1.5650    2.8500   38.5770 C.3   200  DHT200      0.0001
     13  C12        2.4660    1.7050   38.1330 C.3   200  DHT200      0.0024
     14  C13        1.7700    0.3270   38.2260 C.3   200  DHT200      0.0282
     15  C14        0.3430    0.4110   37.5700 C.3   200  DHT200      0.0024
     16  C15       -0.1420   -1.0460   37.6900 C.3   200  DHT200      0.0027
     17  C16        1.1280   -1.8390   37.2610 C.3   200  DHT200      0.0329
     18  C17        2.2990   -0.8170   37.3790 C.3   200  DHT200      0.1519
     19  O17        3.4510   -1.4710   37.9480 O.3   200  DHT200     -0.2232
     20  C18        1.6810   -0.0880   39.7490 C.3   200  DHT200      0.0025
     21  C19       -0.8870    3.9510   40.0350 C.3   200  DHT200      0.0000
@<TRIPOS>BOND
     1    17    18    1
     2    17    16    1
     3     4     3    2
     4    18    19    1
     5    18    14    1
     6     8     7    1
     7     8     9    1
     8    15    16    1
     9    15     9    1
    10    15    14    1
    11     6     7    1
    12     6     5    1
    13     6    11    1
    14    10     9    1
    15    10    11    1
    16    10    12    1
    17     3     5    1
    18     3     2    1
    19    13    14    1
    20    13    12    1
    21     1    11    1
    22     1     2    1
    23    14    20    1
    24    11    21    1
