@<TRIPOS>MOLECULE
1t7d_III_C_1.pdb
 46 48 0 0 0
SMALL
GASTEIGER

@<TRIPOS>ATOM
      1  N         -2.6670   56.9110    4.6460 N.3     1  DSE1       -0.2064
      2  CA        -2.4040   55.8560    5.6390 C.3     1  DSE1        0.1835
      3  C         -3.5330   54.8260    5.7380 C.2     1  DSE1        0.2602
      4  O         -4.1460   54.4540    4.7380 O.2     1  DSE1       -0.2717
      5  CB        -1.0990   55.1350    5.2910 C.3     1  DSE1        0.2087
      6  CN        -3.4100   56.6990    3.3920 C.3     1  DSE1        0.1081
      7  OG        -1.1850   54.5820    3.9750 O.3     1  DSE1       -0.2183
      8  N         -3.7850   54.3970    6.9730 N.am    2  DAL2       -0.1965
      9  CA        -4.7950   53.3700    7.2710 C.3     2  DAL2        0.1728
     10  CB        -5.3270   53.5340    8.6970 C.3     2  DAL2        0.0334
     11  C         -4.0880   52.0220    7.1290 C.2     2  DAL2        0.2617
     12  O         -2.9230   51.8900    7.5030 O.2     2  DAL2       -0.2715
     13  N         -4.8020   51.0410    6.5880 N.am    3  GLY3       -0.1941
     14  CA        -4.2350   49.7040    6.3540 C.3     3  GLY3        0.1999
     15  C         -3.8270   49.0030    7.6530 C.2     3  GLY3        0.2488
     16  O         -4.0050   49.5490    8.7400 O.2     3  GLY3       -0.2729
     17  N         -3.2370   47.8160    7.5230 N.am    4  5PG4       -0.2608
     18  CA        -2.8490   47.0620    8.7250 C.3     4  5PG4        0.2053
     19  C         -1.3300   47.0140    8.9110 C.1     4  5PG4        0.1495
     20  O         -0.5570   47.4040    8.0380 O.2     4  5PG4       -0.2250
     21  CN        -2.9920   47.3320    6.1550 C.3     4  5PG4        0.1162
     22  CB        -3.3800   45.6290    8.6170 C.ar    4  5PG4        0.0118
     23  CC1       -2.4830   44.5690    8.5230 C.ar    4  5PG4        0.0017
     24  CC2       -4.7470   45.3710    8.5950 C.ar    4  5PG4        0.0017
     25  CD1       -2.9220   43.2530    8.4130 C.ar    4  5PG4        0.0418
     26  CD2       -5.1960   44.0580    8.4730 C.ar    4  5PG4        0.0418
     27  CE        -4.2940   43.0020    8.3800 C.ar    4  5PG4        0.1957
     28  OH        -4.7620   41.7300    8.2610 O.3     4  5PG4       -0.2866
     29  N         -0.9630   46.4710   10.0690 N.2     5  ALA5       -0.1896
     30  CA         0.4270   46.2540   10.4960 C.3     5  ALA5        0.2191
     31  C          0.4280   44.9540   11.3030 C.1     5  ALA5        0.1496
     32  O         -0.1200   44.9020   12.4030 O.2     5  ALA5       -0.2251
     33  CB         0.9020   47.4170   11.3710 C.3     5  ALA5        0.0455
     34  N          1.0180   43.9160   10.7180 N.2     6  TYR6       -0.1947
     35  CA         1.0960   42.5810   11.3330 C.3     6  TYR6        0.2211
     36  C          2.2350   42.5030   12.3520 C.2     6  TYR6        0.3878
     37  O          2.2760   41.5770   13.1610 O.co2   6  TYR6       -0.2435
     38  CB         1.3000   41.5090   10.2570 C.3     6  TYR6        0.0632
     39  CG         0.1330   41.3990    9.2710 C.ar    6  TYR6       -0.0194
     40  CD1       -0.9130   42.3150    9.3010 C.ar    6  TYR6       -0.0009
     41  CD2        0.1200   40.3840    8.3160 C.ar    6  TYR6       -0.0009
     42  CE1       -1.9670   42.2420    8.3950 C.ar    6  TYR6        0.0417
     43  CE2       -0.9310   40.2990    7.4080 C.ar    6  TYR6        0.0417
     44  CZ        -1.9730   41.2220    7.4430 C.ar    6  TYR6        0.1957
     45  OH        -2.9820   41.1290    6.5380 O.3     6  TYR6       -0.2866
     46  OXT        3.1170   43.3600   12.3710 O.co2   6  TYR6       -0.2435
@<TRIPOS>BOND
     1     6     1    1
     2     7     5    1
     3     1     2    1
     4     4     3    2
     5     5     2    1
     6     2     3    1
     7     3     8   am
     8    21    17    1
     9    14    13    1
    10    14    15    1
    11    45    44    1
    12    13    11   am
    13     8     9    1
    14    11     9    1
    15    11    12    2
    16     9    10    1
    17    43    44   ar
    18    43    41   ar
    19    44    42   ar
    20    17    15   am
    21    17    18    1
    22    15    16    2
    23    20    19    2
    24    28    27    1
    25    41    39   ar
    26    27    25   ar
    27    27    26   ar
    28    42    25    1
    29    42    40   ar
    30    25    23   ar
    31    26    24   ar
    32    23    22   ar
    33    24    22   ar
    34    22    18    1
    35    18    19    1
    36    19    29    2
    37    39    40   ar
    38    39    38    1
    39    29    30    1
    40    38    35    1
    41    30    31    1
    42    30    33    1
    43    34    31    2
    44    34    35    1
    45    31    32    2
    46    35    36    1
    47    36    46   ar
    48    36    37   ar
