@<TRIPOS>MOLECULE
1t7f_DHT_A_1.pdb
 21 24 0 0 0
SMALL
GASTEIGER

@<TRIPOS>ATOM
      1  C1        -0.1270    5.4310   38.8810 C.3   200  DHT200      0.0078
      2  C2        -0.9390    6.6720   39.2850 C.3   200  DHT200      0.0645
      3  C3        -2.3660    6.4900   38.6930 C.2   200  DHT200      0.1506
      4  O3        -2.8560    7.4070   38.0410 O.2   200  DHT200     -0.2961
      5  C4        -3.0610    5.1860   38.9380 C.3   200  DHT200      0.0645
      6  C5        -2.1940    3.9880   38.4740 C.3   200  DHT200      0.0073
      7  C6        -2.8960    2.6180   38.7250 C.3   200  DHT200      0.0004
      8  C7        -2.0010    1.4840   38.2050 C.3   200  DHT200      0.0000
      9  C8        -0.5980    1.4690   38.8930 C.3   200  DHT200      0.0001
     10  C9         0.0950    2.8570   38.6770 C.3   200  DHT200      0.0000
     11  C10       -0.7710    4.0600   39.2060 C.3   200  DHT200      0.0008
     12  C11        1.5130    2.8100   39.3440 C.3   200  DHT200      0.0001
     13  C12        2.4260    1.6710   38.9150 C.3   200  DHT200      0.0024
     14  C13        1.7320    0.2900   38.9890 C.3   200  DHT200      0.0282
     15  C14        0.3160    0.3720   38.3200 C.3   200  DHT200      0.0024
     16  C15       -0.1760   -1.0820   38.4170 C.3   200  DHT200      0.0027
     17  C16        1.1050   -1.8780   38.0390 C.3   200  DHT200      0.0329
     18  C17        2.2660   -0.8440   38.1390 C.3   200  DHT200      0.1519
     19  O17        3.4330   -1.4760   38.6970 O.3   200  DHT200     -0.2232
     20  C18        1.6300   -0.1360   40.5160 C.3   200  DHT200      0.0025
     21  C19       -0.9310    3.9240   40.7810 C.3   200  DHT200      0.0000
@<TRIPOS>BOND
     1    17    18    1
     2    17    16    1
     3     4     3    2
     4    18    19    1
     5    18    14    1
     6     8     7    1
     7     8     9    1
     8    15    16    1
     9    15     9    1
    10    15    14    1
    11     6     7    1
    12     6     5    1
    13     6    11    1
    14    10     9    1
    15    10    11    1
    16    10    12    1
    17     3     5    1
    18     3     2    1
    19     1    11    1
    20     1     2    1
    21    13    14    1
    22    13    12    1
    23    14    20    1
    24    11    21    1
