@<TRIPOS>MOLECULE
1t7i_017_A_1.pdb
 38 41 0 0 0
SMALL
GASTEIGER

@<TRIPOS>ATOM
      1  N1        14.2640   35.0790   18.2090 N.pl3 200  017200     -0.1281
      2  C2        15.2020   34.5280   17.3990 C.ar  200  017200      0.0892
      3  C3        16.1740   35.3600   16.7760 C.ar  200  017200      0.0194
      4  C4        17.1510   34.7290   15.9190 C.ar  200  017200      0.0213
      5  C5        16.9980   33.3590   15.6170 C.ar  200  017200      0.1223
      6  C6        15.9520   32.6460   16.1700 C.ar  200  017200      0.0213
      7  C7        15.0360   33.2380   17.0030 C.ar  200  017200      0.0194
      8  S8        18.1450   32.5350   14.6390 S.O2  200  017200      0.0634
      9  O9        18.7620   33.4740   13.7280 O.2   200  017200     -0.1528
     10  O10       17.4350   31.4790   13.9960 O.2   200  017200     -0.1528
     11  N11       19.3030   31.8980   15.5720 N.3   200  017200     -0.1529
     12  C12       20.1540   32.8260   16.3550 C.3   200  017200      0.0958
     13  C13       21.6910   32.5190   16.3200 C.3   200  017200      0.0178
     14  C14       22.2960   32.4750   14.9190 C.3   200  017200      0.0015
     15  C15       22.3580   33.5430   17.2620 C.3   200  017200      0.0015
     16  C16       19.1300   30.5820   16.2080 C.3   200  017200      0.1304
     17  C17       20.0050   29.4990   15.5900 C.3   200  017200      0.1898
     18  O18       19.8760   28.3620   16.4650 O.3   200  017200     -0.2197
     19  C19       19.6190   29.1070   14.1500 C.3   200  017200      0.1347
     20  N20       20.6690   28.2550   13.6490 N.am  200  017200     -0.1675
     21  C21       21.5240   28.5860   12.7390 C.2   200  017200      0.4211
     22  O22       21.5940   29.6860   12.1860 O.2   200  017200     -0.2246
     23  O23       22.4390   27.5690   12.4480 O.3   200  017200     -0.4345
     24  C24       23.3170   27.7370   11.3470 C.3   200  017200      0.2048
     25  C25       24.6310   27.1570   11.7990 C.3   200  017200      0.1884
     26  O26       24.4760   25.7470   11.6970 O.3   200  017200     -0.3265
     27  C27       23.5890   25.4730   10.5900 C.3   200  017200      0.2388
     28  O28       22.5860   24.5770   11.0290 O.3   200  017200     -0.3304
     29  C29       21.2800   25.2380   11.0420 C.3   200  017200      0.1451
     30  C30       21.4160   26.4740   10.1520 C.3   200  017200      0.0409
     31  C31       22.9110   26.7920   10.2110 C.3   200  017200      0.1016
     32  C32       18.2760   28.4040   14.0490 C.3   200  017200      0.0508
     33  C33       18.1110   26.6940   12.1780 C.ar  200  017200     -0.0042
     34  C34       17.9580   26.3900   10.8330 C.ar  200  017200     -0.0003
     35  C35       17.6540   27.3720    9.9230 C.ar  200  017200     -0.0000
     36  C36       17.5090   28.6670   10.3020 C.ar  200  017200     -0.0003
     37  C37       17.7330   29.0180   11.6360 C.ar  200  017200     -0.0042
     38  C38       17.9980   28.0180   12.6100 C.ar  200  017200     -0.0204
@<TRIPOS>BOND
     1    35    36   ar
     2    35    34   ar
     3    30    31    1
     4    30    29    1
     5    31    27    1
     6    31    24    1
     7    36    37   ar
     8    27    28    1
     9    27    26    1
    10    34    33   ar
    11    28    29    1
    12    24    25    1
    13    24    23    1
    14    37    38   ar
    15    26    25    1
    16    33    38   ar
    17    22    21    2
    18    23    21    1
    19    38    32    1
    20    21    20   am
    21    20    19    1
    22     9     8    2
    23    10     8    2
    24    32    19    1
    25    19    17    1
    26     8    11    1
    27     8     5    1
    28    14    13    1
    29    11    16    1
    30    11    12    1
    31    17    16    1
    32    17    18    1
    33     5     4   ar
    34     5     6   ar
    35     4     3   ar
    36     6     7   ar
    37    13    12    1
    38    13    15    1
    39     3     2   ar
    40     7     2   ar
    41     2     1    1
