@<TRIPOS>MOLECULE
1t7j_478_A_1.pdb
 35 37 0 0 0
SMALL
GASTEIGER

@<TRIPOS>ATOM
      1  C1         2.0070    2.8160   10.6350 C.3   200  478200      0.1856
      2  C2         0.8200    1.0250   11.7420 C.3   200  478200      0.0784
      3  C3         3.8250    0.0930   12.5250 C.2   200  478200      0.4211
      4  C4         2.1690    1.3590   11.0980 C.3   200  478200      0.2024
      5  C5         5.6950   -0.3110   14.1440 C.3   200  478200      0.1347
      6  C6         5.1670   -0.6860   15.6050 C.3   200  478200      0.1898
      7  C7         7.0620    0.5200   13.9940 C.3   200  478200      0.0508
      8  C8         7.3880    0.7970   12.5500 C.ar  200  478200     -0.0204
      9  C9         6.9640    2.0730   11.9750 C.ar  200  478200     -0.0042
     10  C10        8.0970   -0.1760   11.7170 C.ar  200  478200     -0.0042
     11  C11        7.2260    2.4040   10.5840 C.ar  200  478200     -0.0003
     12  C12        8.3640    0.1660   10.3110 C.ar  200  478200     -0.0003
     13  C13        7.9270    1.4630    9.7350 C.ar  200  478200     -0.0000
     14  C14        5.7570   -1.8560   16.5500 C.3   200  478200      0.1304
     15  C15        4.5660   -4.2700   16.2250 C.3   200  478200      0.0958
     16  C16        3.1960   -3.7610   15.8200 C.3   200  478200      0.0178
     17  C17        8.3160   -4.4280   15.8090 C.ar  200  478200      0.1223
     18  C18        9.5320   -3.6980   16.1420 C.ar  200  478200      0.0213
     19  C19       10.5500   -4.3460   16.9460 C.ar  200  478200      0.0194
     20  C20       10.3240   -5.7010   17.3960 C.ar  200  478200      0.0892
     21  C21        9.1400   -6.4040   17.0650 C.ar  200  478200      0.0194
     22  C22        8.1380   -5.7630   16.2730 C.ar  200  478200      0.0213
     23  C23        2.5440   -2.8560   16.8570 C.3   200  478200      0.0015
     24  C24        3.1160   -3.1640   14.3910 C.3   200  478200      0.0015
     25  C25       -0.0280    2.2940   11.6190 C.3   200  478200      0.1461
     26  N1         4.6550    0.4610   13.4810 N.am  200  478200     -0.1675
     27  N2         5.8650   -3.3370   16.2110 N.3   200  478200     -0.1529
     28  N3        11.2170   -6.3030   18.1240 N.pl3 200  478200     -0.1281
     29  O1         3.1840    1.2650   12.1090 O.3   200  478200     -0.4346
     30  O2         3.6390   -0.9900   12.1130 O.2   200  478200     -0.2246
     31  O3         5.2800    0.4390   16.4090 O.3   200  478200     -0.2197
     32  O4         7.6060   -2.5810   14.2350 O.2   200  478200     -0.1528
     33  O5         6.6400   -4.7840   14.0200 O.2   200  478200     -0.1528
     34  O6         0.8200    3.3650   11.2580 O.3   200  478200     -0.3498
     35  S1         7.0350   -3.7360   14.9110 S.O2  200  478200      0.0634
@<TRIPOS>BOND
     1    13    12   ar
     2    13    11   ar
     3    12    10   ar
     4    11     9   ar
     5     1     4    1
     6     1    34    1
     7     4     2    1
     8     4    29    1
     9    34    25    1
    10    25     2    1
    11    10     8   ar
    12     9     8   ar
    13    29     3    1
    14    30     3    2
    15     3    26   am
    16     8     7    1
    17    26     5    1
    18     7     5    1
    19    33    35    2
    20     5     6    1
    21    32    35    2
    22    24    16    1
    23    35    17    1
    24    35    27    1
    25     6    31    1
    26     6    14    1
    27    17    18   ar
    28    17    22   ar
    29    16    15    1
    30    16    23    1
    31    18    19   ar
    32    27    15    1
    33    27    14    1
    34    22    21   ar
    35    19    20   ar
    36    21    20   ar
    37    20    28    1
