@<TRIPOS>MOLECULE
1t7k_BH0_B_1.pdb
 43 47 0 0 0
SMALL
GASTEIGER

@<TRIPOS>ATOM
      1  C1        14.0530   22.9460    5.6130 C.3   1000  BH01000     0.1133
      2  C2        14.4100   23.5400    7.0120 C.3   1000  BH01000     0.0488
      3  C3        14.9820   22.4790    7.9410 C.ar  1000  BH01000    -0.0204
      4  C4        16.3250   22.0300    7.7880 C.ar  1000  BH01000    -0.0042
      5  C5        16.8590   21.0370    8.6420 C.ar  1000  BH01000    -0.0003
      6  C6        16.0520   20.4770    9.6650 C.ar  1000  BH01000    -0.0000
      7  C7        14.7130   20.9120    9.8310 C.ar  1000  BH01000    -0.0003
      8  C8        14.1810   21.9060    8.9760 C.ar  1000  BH01000    -0.0042
      9  C9        13.6420   24.0280    4.5430 C.3   1000  BH01000     0.1898
     10  O1        14.6520   25.0070    4.4650 O.3   1000  BH01000    -0.2197
     11  C10       12.3060   24.7560    4.8250 C.3   1000  BH01000     0.1519
     12  N1        11.2500   23.7670    4.8770 N.3   1000  BH01000    -0.0762
     13  S1        10.4250   23.2240    3.4310 S.O2  1000  BH01000     0.0782
     14  O2        11.3910   23.2140    2.3700 O.2   1000  BH01000    -0.1514
     15  N2        11.0080   23.0140    6.0520 N.am  1000  BH01000    -0.1825
     16  N3        13.0530   21.7860    5.8240 N.am  1000  BH01000    -0.2576
     17  C11       11.7460   21.9090    6.3130 C.2   1000  BH01000     0.3224
     18  O3        11.2540   20.9860    6.9740 O.2   1000  BH01000    -0.2509
     19  C14       13.4690   20.3570    5.5810 C.3   1000  BH01000     0.1218
     20  C15        9.8580   23.3700    6.9210 C.3   1000  BH01000     0.1411
     21  C12        9.1130   24.3740    3.1110 C.ar  1000  BH01000     0.1244
     22  C17       14.1740   20.1780    3.1310 C.ar  1000  BH01000     0.0007
     23  C18       15.1120   19.7910    2.1450 C.ar  1000  BH01000     0.0418
     24  C19       16.3400   19.1960    2.5230 C.ar  1000  BH01000     0.1957
     25  C20       16.6330   18.9880    3.8970 C.ar  1000  BH01000     0.0418
     26  C21       15.6950   19.3740    4.8800 C.ar  1000  BH01000     0.0007
     27  C22       14.4580   19.9720    4.5090 C.ar  1000  BH01000    -0.0021
     28  C23       10.7350   25.4570    8.1100 C.ar  1000  BH01000     0.0007
     29  C24       10.5680   26.7980    8.5500 C.ar  1000  BH01000     0.0418
     30  C25        9.3660   27.4890    8.2700 C.ar  1000  BH01000     0.1957
     31  C26        8.3350   26.8420    7.5510 C.ar  1000  BH01000     0.0418
     32  C27        8.5050   25.5110    7.1180 C.ar  1000  BH01000     0.0007
     33  C28        9.7040   24.8010    7.3880 C.ar  1000  BH01000    -0.0005
     34  O4        17.2610   18.8190    1.5660 O.3   1000  BH01000    -0.2866
     35  O5         9.1920   28.7940    8.6930 O.3   1000  BH01000    -0.2866
     36  C31        9.3340   25.4980    2.2830 C.ar  1000  BH01000     0.0302
     37  C32        7.8350   24.1490    3.6920 C.ar  1000  BH01000     0.0200
     38  O8         9.7580   22.0160    3.8330 O.2   1000  BH01000    -0.1514
     39  C33        8.2640   26.4020    2.0400 C.ar  1000  BH01000     0.0698
     40  C34        6.7730   25.0570    3.4450 C.ar  1000  BH01000     0.0021
     41  C13        6.9850   26.1910    2.6160 C.ar  1000  BH01000     0.0104
     42  C16        8.4890   27.5450    1.2060 C.1   1000  BH01000     0.1005
     43  N4         8.6670   28.4940    0.5630 N.1   1000  BH01000    -0.1908
@<TRIPOS>BOND
     1    43    42    3
     2    42    39    1
     3    34    24    1
     4    39    36   ar
     5    39    41   ar
     6    23    24   ar
     7    23    22   ar
     8    36    21   ar
     9    14    13    2
    10    24    25   ar
    11    41    40   ar
    12    21    13    1
    13    21    37   ar
    14    22    27   ar
    15    13    38    2
    16    13    12    1
    17    40    37   ar
    18    25    26   ar
    19    10     9    1
    20    27    26   ar
    21    27    19    1
    22     9    11    1
    23     9     1    1
    24    11    12    1
    25    12    15    1
    26    19    16    1
    27     1    16    1
    28     1     2    1
    29    16    17   am
    30    15    17   am
    31    15    20    1
    32    17    18    2
    33    20    33    1
    34     2     3    1
    35    32    33   ar
    36    32    31   ar
    37    33    28   ar
    38    31    30   ar
    39     4     3   ar
    40     4     5   ar
    41     3     8   ar
    42    28    29   ar
    43    30    29   ar
    44    30    35    1
    45     5     6   ar
    46     8     7   ar
    47     6     7   ar
