@<TRIPOS>MOLECULE
1t7m_DHT_A_1.pdb
 21 24 0 0 0
SMALL
GASTEIGER

@<TRIPOS>ATOM
      1  C1        27.0760  -28.1580   41.0310 C.3   200  DHT200      0.0078
      2  C2        26.3350  -26.8890   41.4660 C.3   200  DHT200      0.0645
      3  C3        24.8820  -27.0120   40.9220 C.2   200  DHT200      0.1506
      4  O3        24.4190  -26.0770   40.2930 O.2   200  DHT200     -0.2961
      5  C4        24.1400  -28.2870   41.1830 C.3   200  DHT200      0.0645
      6  C5        24.9420  -29.5250   40.6880 C.3   200  DHT200      0.0073
      7  C6        24.1920  -30.8750   40.9550 C.3   200  DHT200      0.0004
      8  C7        25.0310  -32.0440   40.4140 C.3   200  DHT200      0.0000
      9  C8        26.4530  -32.1110   41.0690 C.3   200  DHT200      0.0001
     10  C9        27.1890  -30.7450   40.8220 C.3   200  DHT200      0.0000
     11  C10       26.3870  -29.5110   41.3770 C.3   200  DHT200      0.0008
     12  C11       28.6180  -30.8400   41.4480 C.3   200  DHT200      0.0001
     13  C12       29.4780  -32.0120   40.9900 C.3   200  DHT200      0.0024
     14  C13       28.7450  -33.3700   41.1030 C.3   200  DHT200      0.0282
     15  C14       27.3090  -33.2480   40.4740 C.3   200  DHT200      0.0024
     16  C15       26.7790  -34.6950   40.6000 C.3   200  DHT200      0.0027
     17  C16       28.0290  -35.5340   40.2030 C.3   200  DHT200      0.0329
     18  C17       29.2160  -34.5320   40.2530 C.3   200  DHT200      0.1519
     19  O17       30.3760  -35.1910   40.7820 O.3   200  DHT200     -0.2232
     20  C18       28.6820  -33.7730   42.6340 C.3   200  DHT200      0.0025
     21  C19       26.2560  -29.6530   42.9500 C.3   200  DHT200      0.0000
@<TRIPOS>BOND
     1    17    18    1
     2    17    16    1
     3    18    19    1
     4    18    14    1
     5     4     3    2
     6     8     7    1
     7     8     9    1
     8    15    16    1
     9    15     9    1
    10    15    14    1
    11     6     7    1
    12     6     5    1
    13     6    11    1
    14    10     9    1
    15    10    11    1
    16    10    12    1
    17     3     5    1
    18     3     2    1
    19    13    14    1
    20    13    12    1
    21     1    11    1
    22     1     2    1
    23    14    20    1
    24    11    21    1
