@<TRIPOS>MOLECULE
1t7o_152_A_1.pdb
 11 10 0 0 0
SMALL
GASTEIGER

@<TRIPOS>ATOM
      1  C1        38.5070   17.3390   -1.4300 C.2   5001  1525001     0.3674
      2  O1A       38.9850   18.3100   -0.8130 O.co2 5001  1525001    -0.2456
      3  O1B       37.6420   17.4730   -2.3200 O.co2 5001  1525001    -0.2456
      4  C2        38.9930   15.9300   -1.0920 C.3   5001  1525001     0.1446
      5  C3        37.9080   14.8650   -1.2880 C.3   5001  1525001     0.1433
      6  O3        38.5300   13.5700   -1.3550 O.3   5001  1525001    -0.2248
      7  C4        36.9450   14.9210   -0.0900 C.3   5001  1525001    -0.0392
      8  N5        35.6550   14.3080   -0.4280 N.4   5001  1525001     0.3874
      9  C5A       35.2060   14.7500   -1.7450 C.3   5001  1525001    -0.0959
     10  C5B       35.7880   12.8560   -0.4250 C.3   5001  1525001    -0.0959
     11  C5C       34.6640   14.7010    0.5700 C.3   5001  1525001    -0.0959
@<TRIPOS>BOND
     1     3     1   ar
     2     9     8    1
     3     1     4    1
     4     1     2   ar
     5     6     5    1
     6     5     4    1
     7     5     7    1
     8     8    10    1
     9     8     7    1
    10     8    11    1
