@<TRIPOS>MOLECULE
1t7p_DG3_P_1.pdb
 30 32 0 0 0
SMALL
GASTEIGER

@<TRIPOS>ATOM
      1  PG        41.8710   23.9950   -6.8910 P.3    23  DG323       0.5373
      2  O1G       43.3480   24.0350   -7.0060 O.3    23  DG323      -0.1143
      3  O2G       41.1170   22.8760   -7.5180 O.2    23  DG323      -0.2221
      4  O3G       41.2670   25.3850   -7.4100 O.3    23  DG323      -0.1143
      5  O3B       41.4820   24.1410   -5.3270 O.3    23  DG323      -0.2258
      6  PB        42.1360   23.5440   -3.9660 P.3    23  DG323       0.2277
      7  O1B       40.9770   23.1780   -3.1280 O.3    23  DG323      -0.4368
      8  O2B       43.1530   22.5130   -4.2880 O.2    23  DG323      -0.5168
      9  O3A       42.8420   24.8110   -3.2460 O.3    23  DG323      -0.2700
     10  PA        44.1590   25.6840   -3.5390 P.3    23  DG323       0.2189
     11  O1A       43.7650   27.0980   -3.7280 O.3    23  DG323      -0.4371
     12  O2A       44.9870   25.0060   -4.5660 O.2    23  DG323      -0.5170
     13  O5'       44.9010   25.5990   -2.1370 O.3    23  DG323      -0.3113
     14  C5'       45.6510   24.4350   -1.7510 C.3    23  DG323       0.1785
     15  C4'       45.1810   23.9510   -0.3970 C.3    23  DG323       0.1471
     16  O4'       45.4210   24.9840    0.5990 O.3    23  DG323      -0.3374
     17  C3'       43.6900   23.6720   -0.3010 C.3    23  DG323       0.0366
     18  C2'       43.4300   23.8210    1.1910 C.3    23  DG323       0.0536
     19  C1'       44.3860   24.9550    1.5660 C.3    23  DG323       0.1954
     20  N9        43.7080   26.2480    1.5910 N.pl3  23  DG323      -0.2375
     21  C8        43.4700   27.0980    0.5400 C.3    23  DG323       0.2245
     22  N7        42.7880   28.1600    0.8820 N.2    23  DG323      -0.2322
     23  C5        42.5760   28.0020    2.2470 C.2    23  DG323       0.2182
     24  C6        41.8890   28.8380    3.1790 C.1    23  DG323       0.2372
     25  O6        41.3120   29.9140    2.9790 O.2    23  DG323      -0.2069
     26  N1        41.9180   28.2980    4.4610 N.2    23  DG323      -0.2485
     27  C2        42.5270   27.1250    4.8060 C.1    23  DG323       0.2531
     28  N2        42.4510   26.7770    6.0920 N.pl3  23  DG323      -0.0226
     29  N3        43.1690   26.3440    3.9540 N.2    23  DG323      -0.3074
     30  C4        43.1500   26.8400    2.7010 C.2    23  DG323       0.2299
@<TRIPOS>BOND
     1     3     1    2
     2     4     1    1
     3     2     1    1
     4     1     5    1
     5     5     6    1
     6    12    10    2
     7     8     6    2
     8     6     9    1
     9     6     7    1
    10    11    10    1
    11    10     9    1
    12    10    13    1
    13    13    14    1
    14    14    15    1
    15    15    17    1
    16    15    16    1
    17    17    18    1
    18    21    22    1
    19    21    20    1
    20    16    19    1
    21    22    23    2
    22    18    19    1
    23    19    20    1
    24    20    30    1
    25    23    30    1
    26    23    24    1
    27    30    29    2
    28    25    24    2
    29    24    26    2
    30    29    27    2
    31    26    27    2
    32    27    28    1
