@<TRIPOS>MOLECULE
1t7q_COA_A_1.pdb
 48 50 0 0 0
SMALL
GASTEIGER

@<TRIPOS>ATOM
      1  N1A       79.8550    1.6930  -11.9280 N.2   1202  COA1202     0.0021
      2  C2A       79.4300    0.5060  -11.4820 C.3   1202  COA1202     0.5254
      3  N3A       78.5450    0.4320  -10.4840 N.2   1202  COA1202    -0.0055
      4  C4A       78.0580    1.5550   -9.9040 C.2   1202  COA1202     0.3518
      5  C5A       78.4760    2.7950  -10.3450 C.2   1202  COA1202     0.2526
      6  C6A       79.4020    2.8480  -11.3850 C.2   1202  COA1202     0.4393
      7  N6A       79.8440    4.0180  -11.8370 N.pl3 1202  COA1202     0.2180
      8  N7A       77.8500    3.7150   -9.6200 N.2   1202  COA1202    -0.2095
      9  C8A       77.0610    3.0800   -8.7440 C.3   1202  COA1202     0.3377
     10  N9A       77.1920    1.7540   -8.9190 N.pl3 1202  COA1202    -0.1439
     11  C1B       76.4970    0.6760   -8.1580 C.3   1202  COA1202     0.3185
     12  C2B       76.7220    0.7610   -6.6470 C.3   1202  COA1202     0.2543
     13  O2B       77.8730    0.0060   -6.2740 O.3   1202  COA1202    -0.2131
     14  C3B       75.4840    0.0950   -6.1090 C.3   1202  COA1202     0.1928
     15  O3B       75.5920   -1.3180   -6.3380 O.3   1202  COA1202    -0.2673
     16  P3B       74.5100   -2.3790   -5.7790 P.3   1202  COA1202     0.5327
     17  O7A       73.9180   -1.6870   -4.4630 O.3   1202  COA1202    -0.1145
     18  O8A       73.4360   -2.5200   -6.7930 O.2   1202  COA1202    -0.2224
     19  O9A       75.2520   -3.5890   -5.3570 O.3   1202  COA1202    -0.1145
     20  C4B       74.4070    0.6650   -7.0190 C.3   1202  COA1202     0.1795
     21  O4B       75.0390    0.7090   -8.3460 O.3   1202  COA1202    -0.3136
     22  C5B       74.1590    2.1210   -6.5820 C.3   1202  COA1202     0.1812
     23  O5B       73.3190    2.7240   -7.5060 O.3   1202  COA1202    -0.3112
     24  P1A       73.2550    4.3080   -7.6940 P.3   1202  COA1202     0.2189
     25  O1A       72.4720    4.5450   -8.9250 O.2   1202  COA1202    -0.5170
     26  O2A       74.5940    4.9150   -7.5940 O.3   1202  COA1202    -0.4371
     27  O3A       72.3280    4.7900   -6.4640 O.3   1202  COA1202    -0.2703
     28  P2A       72.8620    4.9670   -4.9460 P.3   1202  COA1202     0.2188
     29  O4A       74.1610    5.6850   -4.9290 O.2   1202  COA1202    -0.5170
     30  O5A       72.7510    3.6800   -4.2280 O.3   1202  COA1202    -0.4371
     31  O6A       71.7530    5.9510   -4.3470 O.3   1202  COA1202    -0.3138
     32  CBP       70.5070    8.0030   -4.0700 C.3   1202  COA1202     0.0645
     33  CCP       71.6270    7.2950   -4.8230 C.3   1202  COA1202     0.1519
     34  CDP       69.1770    7.2810   -4.3690 C.3   1202  COA1202     0.0056
     35  CEP       70.4140    9.4590   -4.5460 C.3   1202  COA1202     0.0056
     36  CAP       70.8380    7.9430   -2.5550 C.3   1202  COA1202     0.2312
     37  OAP       72.0520    8.6500   -2.3050 O.3   1202  COA1202    -0.2131
     38  C9P       69.7150    8.5400   -1.6990 C.2   1202  COA1202     0.2719
     39  O9P       69.7520    9.7130   -1.3310 O.2   1202  COA1202    -0.2706
     40  N8P       68.7340    7.6880   -1.4160 N.am  1202  COA1202    -0.2028
     41  C7P       67.5670    8.0520   -0.6060 C.3   1202  COA1202     0.1248
     42  C6P       66.4780    8.6640   -1.4920 C.3   1202  COA1202     0.1102
     43  C5P       65.1920    8.8280   -0.6890 C.2   1202  COA1202     0.2432
     44  O5P       65.2020    9.3630    0.4220 O.2   1202  COA1202    -0.2733
     45  N4P       64.0970    8.3580   -1.2900 N.am  1202  COA1202    -0.2044
     46  C3P       62.7580    8.3990   -0.6670 C.3   1202  COA1202     0.1276
     47  C2P       62.2500    9.8340   -0.5160 C.3   1202  COA1202     0.0920
     48  S1P       60.6370    9.8910    0.3440 S.3   1202  COA1202    -0.0802
@<TRIPOS>BOND
     1     1     2    1
     2     1     6    2
     3     7     6    1
     4     2     3    1
     5     6     5    1
     6     3     4    2
     7     5     4    1
     8     5     8    2
     9     4    10    1
    10     8     9    1
    11    25    24    2
    12    10     9    1
    13    10    11    1
    14    21    11    1
    15    21    20    1
    16    11    12    1
    17    24    26    1
    18    24    23    1
    19    24    27    1
    20    23    22    1
    21    20    22    1
    22    20    14    1
    23    18    16    2
    24    12    13    1
    25    12    14    1
    26    27    28    1
    27    15    14    1
    28    15    16    1
    29    16    19    1
    30    16    17    1
    31    28    29    2
    32    28    31    1
    33    28    30    1
    34    33    31    1
    35    33    32    1
    36    35    32    1
    37    34    32    1
    38    32    36    1
    39    36    37    1
    40    36    38    1
    41    38    40   am
    42    38    39    2
    43    42    43    1
    44    42    41    1
    45    40    41    1
    46    45    43   am
    47    45    46    1
    48    43    44    2
    49    46    47    1
    50    47    48    1
