@<TRIPOS>MOLECULE
1t7q_152_A_1.pdb
 11 10 0 0 0
SMALL
GASTEIGER

@<TRIPOS>ATOM
      1  C1        61.5980   14.5200    0.2130 C.2   1201  1521201     0.3674
      2  O1A       61.7700   15.3330    1.1480 O.co2 1201  1521201    -0.2456
      3  O1B       62.2730   14.5390   -0.8410 O.co2 1201  1521201    -0.2456
      4  C2        60.5270   13.4590    0.3800 C.3   1201  1521201     0.1446
      5  C3        59.8830   13.0490   -0.9480 C.3   1201  1521201     0.1433
      6  O3        59.0070   11.9400   -0.7020 O.3   1201  1521201    -0.2248
      7  C4        59.0580   14.2300   -1.4880 C.3   1201  1521201    -0.0392
      8  N5        58.6690   13.9970   -2.8870 N.4   1201  1521201     0.3874
      9  C5A       59.8620   13.8090   -3.7140 C.3   1201  1521201    -0.0959
     10  C5B       57.8180   12.8120   -2.9830 C.3   1201  1521201    -0.0959
     11  C5C       57.9250   15.1570   -3.3730 C.3   1201  1521201    -0.0959
@<TRIPOS>BOND
     1     9     8    1
     2    11     8    1
     3    10     8    1
     4     8     7    1
     5     7     5    1
     6     5     6    1
     7     5     4    1
     8     3     1   ar
     9     1     4    1
    10     1     2   ar
