@<TRIPOS>MOLECULE
1t7r_DHT_A_1.pdb
 21 24 0 0 0
SMALL
GASTEIGER

@<TRIPOS>ATOM
      1  C1         0.0360   27.6540   38.4440 C.3   300  DHT300      0.0078
      2  C2         0.8320   26.4000   38.8370 C.3   300  DHT300      0.0645
      3  C3         2.2660   26.5680   38.2550 C.2   300  DHT300      0.1506
      4  O3         2.7490   25.6370   37.6300 O.2   300  DHT300     -0.2961
      5  C4         2.9760   27.8670   38.4880 C.3   300  DHT300      0.0645
      6  C5         2.1180   29.0760   38.0230 C.3   300  DHT300      0.0073
      7  C6         2.8350   30.4420   38.2670 C.3   300  DHT300      0.0004
      8  C7         1.9420   31.5850   37.7570 C.3   300  DHT300      0.0000
      9  C8         0.5400   31.6110   38.4550 C.3   300  DHT300      0.0001
     10  C9        -0.1630   30.2250   38.2420 C.3   300  DHT300      0.0000
     11  C10        0.6990   29.0190   38.7650 C.3   300  DHT300      0.0008
     12  C11       -1.5760   30.2840   38.9140 C.3   300  DHT300      0.0001
     13  C12       -2.4880   31.4280   38.4770 C.3   300  DHT300      0.0024
     14  C13       -1.7920   32.8070   38.5460 C.3   300  DHT300      0.0282
     15  C14       -0.3720   32.7140   37.8820 C.3   300  DHT300      0.0024
     16  C15        0.1180   34.1700   37.9760 C.3   300  DHT300      0.0027
     17  C16       -1.1500   34.9650   37.5650 C.3   300  DHT300      0.0329
     18  C17       -2.3130   33.9450   37.6820 C.3   300  DHT300      0.1519
     19  O17       -3.4800   34.6080   38.2170 O.3   300  DHT300     -0.2232
     20  C18       -1.7000   33.2350   40.0640 C.3   300  DHT300      0.0025
     21  C19        0.8910   29.1590   40.3360 C.3   300  DHT300      0.0000
@<TRIPOS>BOND
     1    17    18    1
     2    17    16    1
     3     4     3    2
     4    18    19    1
     5    18    14    1
     6     8     7    1
     7     8     9    1
     8    15    16    1
     9    15     9    1
    10    15    14    1
    11     6     7    1
    12     6     5    1
    13     6    11    1
    14    10     9    1
    15    10    11    1
    16    10    12    1
    17     3     5    1
    18     3     2    1
    19     1    11    1
    20     1     2    1
    21    13    14    1
    22    13    12    1
    23    14    20    1
    24    11    21    1
