@<TRIPOS>MOLECULE
1t7t_DHT_A_1.pdb
 21 24 0 0 0
SMALL
GASTEIGER

@<TRIPOS>ATOM
      1  C1         0.0360    5.3730   38.3090 C.3   300  DHT300      0.0078
      2  C2        -0.7540    6.6180   38.7340 C.3   300  DHT300      0.0645
      3  C3        -2.1670    6.4760   38.1030 C.2   300  DHT300      0.1506
      4  O3        -2.6060    7.4010   37.4400 O.2   300  DHT300     -0.2961
      5  C4        -2.9040    5.1900   38.3210 C.3   300  DHT300      0.0645
      6  C5        -2.0610    3.9780   37.8390 C.3   300  DHT300      0.0073
      7  C6        -2.7920    2.6100   38.0500 C.3   300  DHT300      0.0004
      8  C7        -1.9080    1.4650   37.5200 C.3   300  DHT300      0.0000
      9  C8        -0.5120    1.4080   38.2300 C.3   300  DHT300      0.0001
     10  C9         0.2070    2.7920   38.0460 C.3   300  DHT300      0.0000
     11  C10       -0.6450    4.0020   38.5900 C.3   300  DHT300      0.0008
     12  C11        1.6140    2.7070   38.7270 C.3   300  DHT300      0.0001
     13  C12        2.5150    1.5580   38.2830 C.3   300  DHT300      0.0024
     14  C13        1.8020    0.1860   38.3270 C.3   300  DHT300      0.0282
     15  C14        0.3940    0.3030   37.6470 C.3   300  DHT300      0.0024
     16  C15       -0.1090   -1.1480   37.7190 C.3   300  DHT300      0.0027
     17  C16        1.1560   -1.9420   37.2960 C.3   300  DHT300      0.0329
     18  C17        2.3340   -0.9380   37.4610 C.3   300  DHT300      0.1519
     19  O17        3.4660   -1.6160   38.0340 O.3   300  DHT300     -0.2232
     20  C18        1.6850   -0.2710   39.8380 C.3   300  DHT300      0.0025
     21  C19       -0.8500    3.8300   40.1570 C.3   300  DHT300      0.0000
@<TRIPOS>BOND
     1    17    18    1
     2    17    16    1
     3     4     3    2
     4    18    19    1
     5    18    14    1
     6     8     7    1
     7     8     9    1
     8    15    16    1
     9    15     9    1
    10    15    14    1
    11     6     7    1
    12     6     5    1
    13     6    11    1
    14    10     9    1
    15    10    11    1
    16    10    12    1
    17     3     5    1
    18     3     2    1
    19    13    14    1
    20    13    12    1
    21     1    11    1
    22     1     2    1
    23    14    20    1
    24    11    21    1
