@<TRIPOS>MOLECULE
1t7v_P6G_A_1.pdb
 19 18 0 0 0
SMALL
GASTEIGER

@<TRIPOS>ATOM
      1  O1        -3.0040   81.1640   22.2000 O.3   301  P6G301     -0.2176
      2  C2        -2.5080   81.1730   20.8760 C.3   301  P6G301      0.2140
      3  C3        -3.5470   81.7370   19.9370 C.3   301  P6G301      0.1777
      4  O4        -2.9750   82.3050   18.7830 O.3   301  P6G301     -0.3483
      5  C5        -3.8960   83.2230   18.1860 C.3   301  P6G301      0.1742
      6  C6        -4.6970   82.5700   17.0880 C.3   301  P6G301      0.1742
      7  O7        -6.0690   82.9160   17.1640 O.3   301  P6G301     -0.3484
      8  C8        -6.8100   82.3710   16.0790 C.3   301  P6G301      0.1742
      9  C9        -7.6010   81.1300   16.4890 C.3   301  P6G301      0.1742
     10  O10       -8.2310   81.2960   17.7410 O.3   301  P6G301     -0.3484
     11  C11       -9.1690   80.2600   18.0120 C.3   301  P6G301      0.1742
     12  C12       -9.3060   80.0150   19.5080 C.3   301  P6G301      0.1742
     13  O13       -8.3600   79.0550   19.9390 O.3   301  P6G301     -0.3484
     14  C14       -8.3590   78.8850   21.3330 C.3   301  P6G301      0.1742
     15  C15       -6.9980   79.1760   21.9250 C.3   301  P6G301      0.1742
     16  O16       -7.1330   79.8000   23.1980 O.3   301  P6G301     -0.3483
     17  C17       -5.9870   80.5490   23.5530 C.3   301  P6G301      0.1777
     18  C18       -5.1740   79.8640   24.6290 C.3   301  P6G301      0.2140
     19  O19       -3.8390   80.3370   24.6100 O.3   301  P6G301     -0.2176
@<TRIPOS>BOND
     1     8     9    1
     2     8     7    1
     3     9    10    1
     4     6     7    1
     5     6     5    1
     6    10    11    1
     7    11    12    1
     8     5     4    1
     9     4     3    1
    10    12    13    1
    11     3     2    1
    12    13    14    1
    13     2     1    1
    14    14    15    1
    15    15    16    1
    16    16    17    1
    17    17    18    1
    18    19    18    1
