@<TRIPOS>MOLECULE
1t83_BMA_A_1.pdb
 11 11 0 0 0
SMALL
GASTEIGER

@<TRIPOS>ATOM
      1  C1        34.4590   18.4680   25.7960 C.3   450  BMA450      0.1777
      2  C2        33.0390   18.8380   25.3600 C.3   450  BMA450      0.2141
      3  C3        32.6560   18.3260   23.9760 C.3   450  BMA450      0.2173
      4  C4        33.7760   18.5130   22.9710 C.3   450  BMA450      0.2142
      5  C5        35.1320   18.0930   23.5420 C.3   450  BMA450      0.1810
      6  C6        36.2620   18.4160   22.5800 C.3   450  BMA450      0.2141
      7  O2        32.8860   20.2470   25.3790 O.3   450  BMA450     -0.2176
      8  O3        31.5240   19.0840   23.5020 O.3   450  BMA450     -0.2175
      9  O4        33.4850   17.7450   21.8150 O.3   450  BMA450     -0.2176
     10  O5        35.3890   18.8040   24.7620 O.3   450  BMA450     -0.3481
     11  O6        35.9280   17.8360   21.3060 O.3   450  BMA450     -0.2176
@<TRIPOS>BOND
     1    11     6    1
     2     9     4    1
     3     6     5    1
     4     4     5    1
     5     4     3    1
     6     8     3    1
     7     5    10    1
     8     3     2    1
     9    10     1    1
    10     2     7    1
    11     2     1    1
