@<TRIPOS>MOLECULE
1t83_GAL_A_1.pdb
 11 11 0 0 0
SMALL
GASTEIGER

@<TRIPOS>ATOM
      1  C1        41.2590   12.9310   16.1830 C.3   454  GAL454      0.1777
      2  C2        40.7180   11.7250   15.3750 C.3   454  GAL454      0.2141
      3  C3        41.8810   10.8750   14.8110 C.3   454  GAL454      0.2173
      4  C4        42.9340   11.7480   14.1170 C.3   454  GAL454      0.2142
      5  C5        43.3350   12.9170   15.0220 C.3   454  GAL454      0.1810
      6  C6        44.3290   13.8740   14.3890 C.3   454  GAL454      0.2141
      7  O2        39.9050   10.9060   16.2060 O.3   454  GAL454     -0.2176
      8  O3        41.3780    9.9210   13.8790 O.3   454  GAL454     -0.2175
      9  O4        42.4090   12.2430   12.8960 O.3   454  GAL454     -0.2176
     10  O5        42.1670   13.6840   15.3700 O.3   454  GAL454     -0.3481
     11  O6        44.2910   15.1530   15.0170 O.3   454  GAL454     -0.2176
@<TRIPOS>BOND
     1     9     4    1
     2     8     3    1
     3     4     3    1
     4     4     5    1
     5     6    11    1
     6     6     5    1
     7     3     2    1
     8     5    10    1
     9    10     1    1
    10     2     1    1
    11     2     7    1
