@<TRIPOS>MOLECULE
1t84_WSK_A_1.pdb
 40 42 0 0 0
SMALL
GASTEIGER

@<TRIPOS>ATOM
      1  C0        -6.7750    8.0320    2.7800 C.ar  108  WSK108      0.0186
      2  N0        -4.7210    7.7790   -0.9580 N.ar  108  WSK108     -0.3373
      3  O0        -3.0640    9.3170   -3.2650 O.3   108  WSK108     -0.3888
      4  C1        -7.4390    8.6850    1.6380 C.ar  108  WSK108     -0.0458
      5  N1        -4.9990    9.8730   -5.0680 N.3   108  WSK108     -0.3059
      6  C2        -6.8560    8.6690    0.3180 C.ar  108  WSK108     -0.0365
      7  C3        -5.5640    7.9830    0.1360 C.ar  108  WSK108      0.0502
      8  C4        -4.9070    7.3340    1.2710 C.ar  108  WSK108      0.0087
      9  C5        -5.5130    7.3530    2.6140 C.ar  108  WSK108     -0.0380
     10  C6        -3.6890    6.7550    0.7970 C.ar  108  WSK108      0.0087
     11  C7        -3.5790    7.0430   -0.6290 C.ar  108  WSK108      0.0502
     12  C8        -2.3990    6.5860   -1.3860 C.ar  108  WSK108     -0.0365
     13  C9        -1.3840    5.8270   -0.6850 C.ar  108  WSK108     -0.0458
     14  C10       -1.5160    5.5360    0.7590 C.ar  108  WSK108      0.0186
     15  C11       -2.6510    5.9880    1.4930 C.ar  108  WSK108     -0.0380
     16  C12       -5.0140    8.2550   -2.3270 C.3   108  WSK108      0.0510
     17  C13       -4.3530    9.5630   -2.5880 C.3   108  WSK108      0.0857
     18  C14       -5.2030   10.3740   -3.7110 C.3   108  WSK108      0.0260
     19  C15       -6.2460    9.7510   -5.8170 C.3   108  WSK108     -0.0130
     20  C16       -4.0870   10.7370   -5.8100 C.3   108  WSK108     -0.0130
     21 BR1        -0.2000    4.5430    1.6950 Br    108  WSK108     -0.0503
     22 BR2        -7.5890    8.0800    4.4860 Br    108  WSK108     -0.0503
     23  H13       -2.3970    9.3320   -2.6000 H     108  WSK108      0.2099
     24  H1        -8.3920    9.1920    1.7750 H     108  WSK108      0.0629
     25  H2        -7.3600    9.1590   -0.5240 H     108  WSK108      0.0639
     26  H3        -4.9990    6.8710    3.4540 H     108  WSK108      0.0635
     27  H4        -2.3170    6.7620   -2.4620 H     108  WSK108      0.0639
     28  H5        -0.5340    5.4400   -1.2540 H     108  WSK108      0.0629
     29  H6        -2.7410    5.7790    2.5440 H     108  WSK108      0.0635
     30  H8        -6.1180    8.3770   -2.4070 H     108  WSK108      0.0518
     31  H9        -4.6160    7.4930   -3.0360 H     108  WSK108      0.0518
     32  H10       -4.3260   10.1540   -1.6490 H     108  WSK108      0.0624
     33  H11       -4.9240   11.4550   -3.6790 H     108  WSK108      0.0452
     34  H12       -6.2890   10.3160   -3.4660 H     108  WSK108      0.0452
     35  H17       -7.1150    9.9780   -5.1580 H     108  WSK108      0.0391
     36  H18       -6.3770    8.7240   -6.2290 H     108  WSK108      0.0391
     37  H19       -6.3060   10.4640   -6.6650 H     108  WSK108      0.0391
     38  H14       -4.1480   11.7870   -5.4410 H     108  WSK108      0.0391
     39  H15       -4.3660   10.7670   -6.8880 H     108  WSK108      0.0391
     40  H16       -3.0330   10.3880   -5.7210 H     108  WSK108      0.0391
@<TRIPOS>BOND
     1    39    20    1
     2    37    19    1
     3    36    19    1
     4    19    35    1
     5    19     5    1
     6    20    40    1
     7    20    38    1
     8    20     5    1
     9     5    18    1
    10    18    33    1
    11    18    34    1
    12    18    17    1
    13     3    23    1
    14     3    17    1
    15    31    16    1
    16    17    16    1
    17    17    32    1
    18    27    12    1
    19    30    16    1
    20    16     2    1
    21    12    13   ar
    22    12    11   ar
    23    28    13    1
    24     2    11   ar
    25     2     7   ar
    26    13    14   ar
    27    11    10   ar
    28    25     6    1
    29     7     6   ar
    30     7     8   ar
    31     6     4   ar
    32    14    15   ar
    33    14    21    1
    34    10     8   ar
    35    10    15   ar
    36     8     9   ar
    37    15    29    1
    38     4    24    1
    39     4     1   ar
    40     9     1   ar
    41     9    26    1
    42     1    22    1
