@<TRIPOS>MOLECULE
1t85_HEM_A_1.pdb
 43 50 0 0 0
SMALL
GASTEIGER

@<TRIPOS>ATOM
      1 FE         45.5250    3.0890   18.7530 Fe    417  HEM417      0.0000
      2  CHA       43.5990    3.3910   21.6220 C.2   417  HEM417      0.0000
      3  CHB       42.7000    3.5850   16.8490 C.2   417  HEM417      0.0000
      4  CHC       47.4190    2.6990   15.9050 C.2   417  HEM417      0.0000
      5  CHD       48.1620    1.9730   20.6660 C.2   417  HEM417      0.0000
      6  NA        43.5930    3.4590   19.1590 N.ar  417  HEM417      0.0000
      7  C1A       42.9700    3.6210   20.4010 C.ar  417  HEM417      0.0000
      8  C2A       41.5610    3.9730   20.2460 C.ar  417  HEM417      0.0000
      9  C3A       41.3140    3.9640   18.9090 C.ar  417  HEM417      0.0000
     10  C4A       42.5530    3.6470   18.2350 C.ar  417  HEM417      0.0000
     11  CMA       39.9470    4.1810   18.2390 C.3   417  HEM417      0.0000
     12  CAA       40.5560    4.3130   21.3610 C.3   417  HEM417      0.0000
     13  CBA       39.6820    3.1150   21.7120 C.3   417  HEM417      0.0000
     14  CGA       38.6990    3.3980   22.8430 C.2   417  HEM417      0.0000
     15  O1A       38.4100    4.5850   23.1120 O.co2 417  HEM417      0.0000
     16  O2A       38.2000    2.4260   23.4560 O.co2 417  HEM417      0.0000
     17  NB        45.1500    3.1230   16.7990 N.2   417  HEM417      0.0000
     18  C1B       43.9070    3.3400   16.1720 C.2   417  HEM417      0.0000
     19  C2B       44.0490    3.3500   14.7370 C.2   417  HEM417      0.0000
     20  C3B       45.3880    3.1270   14.4640 C.2   417  HEM417      0.0000
     21  C4B       46.0500    2.9860   15.7460 C.2   417  HEM417      0.0000
     22  CMB       42.9120    3.5790   13.7360 C.3   417  HEM417      0.0000
     23  CAB       46.0270    2.9620   13.2370 C.2   417  HEM417      0.0000
     24  CBB       45.6500    3.4040   12.0090 C.2   417  HEM417      0.0000
     25  NC        47.3980    2.5130   18.3680 N.ar  417  HEM417      0.0000
     26  C1C       48.0420    2.4390   17.1270 C.ar  417  HEM417      0.0000
     27  C2C       49.3910    1.9240   17.2660 C.ar  417  HEM417      0.0000
     28  C3C       49.5550    1.5960   18.5900 C.ar  417  HEM417      0.0000
     29  C4C       48.3490    2.0260   19.2720 C.ar  417  HEM417      0.0000
     30  CMC       50.4460    1.8670   16.1570 C.3   417  HEM417      0.0000
     31  CAC       50.6090    0.9120   19.2260 C.2   417  HEM417      0.0000
     32  CBC       51.9220    0.9700   18.8890 C.2   417  HEM417      0.0000
     33  ND        45.8210    2.7700   20.7110 N.2   417  HEM417      0.0000
     34  C1D       46.9890    2.3120   21.3290 C.2   417  HEM417      0.0000
     35  C2D       46.8410    2.2630   22.7660 C.2   417  HEM417      0.0000
     36  C3D       45.5680    2.6660   23.0360 C.2   417  HEM417      0.0000
     37  C4D       44.9370    2.9740   21.7630 C.2   417  HEM417      0.0000
     38  CMD       47.9220    1.8310   23.7730 C.3   417  HEM417      0.0000
     39  CAD       44.8830    2.7760   24.4060 C.3   417  HEM417      0.0000
     40  CBD       44.8450    4.2040   24.9360 C.3   417  HEM417      0.0000
     41  CGD       43.9950    4.3590   26.1910 C.2   417  HEM417      0.0000
     42  O1D       44.1640    5.3780   26.8990 O.co2 417  HEM417      0.0000
     43  O2D       43.1520    3.4770   26.4690 O.co2 417  HEM417      0.0000
@<TRIPOS>BOND
     1    24    23    2
     2    23    20    1
     3    22    19    1
     4    20    19    2
     5    20    21    1
     6    19    18    1
     7    21     4    2
     8    21    17    1
     9     4    26    1
    10    30    27    1
    11    18    17    2
    12    18     3    1
    13    17     1    1
    14     3    10    2
    15    26    27   ar
    16    26    25   ar
    17    27    28   ar
    18    10     9   ar
    19    10     6   ar
    20    11     9    1
    21    25     1    1
    22    25    29   ar
    23    28    31    1
    24    28    29   ar
    25     1     6    1
    26     1    33    1
    27    32    31    2
    28     9     8   ar
    29     6     7   ar
    30    29     5    1
    31     8     7   ar
    32     8    12    1
    33     7     2    2
    34     5    34    2
    35    33    34    1
    36    33    37    2
    37    34    35    1
    38    12    13    1
    39     2    37    1
    40    13    14    1
    41    37    36    1
    42    35    36    2
    43    35    38    1
    44    14    15   ar
    45    14    16   ar
    46    36    39    1
    47    39    40    1
    48    40    41    1
    49    41    43   ar
    50    41    42   ar
