@<TRIPOS>MOLECULE
1t85_CAM_A_1.pdb
 11 12 0 0 0
SMALL
GASTEIGER

@<TRIPOS>ATOM
      1  C1        41.9760   -2.1170   20.4050 C.3   422  CAM422      0.0515
      2  C2        41.5800   -2.1310   21.9260 C.2   422  CAM422      0.1498
      3  O         41.2170   -3.1190   22.5610 O.2   422  CAM422     -0.2961
      4  C3        41.7210   -0.7100   22.4730 C.3   422  CAM422      0.0645
      5  C4        42.2160   -0.0990   21.0750 C.3   422  CAM422      0.0077
      6  C5        43.7550   -0.5600   20.8690 C.3   422  CAM422      0.0009
      7  C6        43.5790   -2.0640   20.3750 C.3   422  CAM422      0.0069
      8  C7        41.4540   -0.7560   19.9390 C.3   422  CAM422      0.0066
      9  C8        39.8600   -0.5440   19.9390 C.3   422  CAM422      0.0004
     10  C9        41.9150   -0.2340   18.5230 C.3   422  CAM422      0.0004
     11  C10       41.4460   -3.2930   19.5610 C.3   422  CAM422      0.0073
@<TRIPOS>BOND
     1    10     8    1
     2    11     1    1
     3     8     9    1
     4     8     1    1
     5     8     5    1
     6     7     1    1
     7     7     6    1
     8     1     2    1
     9     6     5    1
    10     5     4    1
    11     2     4    1
    12     2     3    2
