@<TRIPOS>MOLECULE
1t86_HEM_A_1.pdb
 43 50 0 0 0
SMALL
GASTEIGER

@<TRIPOS>ATOM
      1 FE         22.1700   73.5000   36.4490 Fe    1417  HEM1417     0.0000
      2  CHA       25.2620   72.2380   37.3320 C.2   1417  HEM1417     0.0000
      3  CHB       21.0880   70.2600   35.7880 C.2   1417  HEM1417     0.0000
      4  CHC       19.2330   74.7260   35.2760 C.2   1417  HEM1417     0.0000
      5  CHD       23.5250   76.6650   36.3860 C.2   1417  HEM1417     0.0000
      6  NA        22.9700   71.6700   36.6030 N.ar  1417  HEM1417     0.0000
      7  C1A       24.2530   71.3200   37.0670 C.ar  1417  HEM1417     0.0000
      8  C2A       24.4420   69.8870   37.1040 C.ar  1417  HEM1417     0.0000
      9  C3A       23.2790   69.3420   36.6250 C.ar  1417  HEM1417     0.0000
     10  C4A       22.3790   70.4350   36.3160 C.ar  1417  HEM1417     0.0000
     11  CMA       22.9860   67.8570   36.4250 C.3   1417  HEM1417     0.0000
     12  CAA       25.6920   69.1310   37.5890 C.3   1417  HEM1417     0.0000
     13  CBA       26.5650   68.5750   36.4610 C.3   1417  HEM1417     0.0000
     14  CGA       27.8470   67.9260   36.9680 C.2   1417  HEM1417     0.0000
     15  O1A       27.8610   67.4440   38.1180 O.co2 1417  HEM1417     0.0000
     16  O2A       28.8380   67.8790   36.2100 O.co2 1417  HEM1417     0.0000
     17  NB        20.5290   72.6730   35.6480 N.2   1417  HEM1417     0.0000
     18  C1B       20.2250   71.3200   35.4660 C.2   1417  HEM1417     0.0000
     19  C2B       18.8410   71.1440   35.0690 C.2   1417  HEM1417     0.0000
     20  C3B       18.2970   72.4100   34.9680 C.2   1417  HEM1417     0.0000
     21  C4B       19.3610   73.3340   35.3070 C.2   1417  HEM1417     0.0000
     22  CMB       18.1780   69.7810   34.8550 C.3   1417  HEM1417     0.0000
     23  CAB       16.9980   72.8260   34.6420 C.2   1417  HEM1417     0.0000
     24  CBB       15.9100   72.0490   34.4270 C.2   1417  HEM1417     0.0000
     25  NC        21.5110   75.3040   35.9820 N.ar  1417  HEM1417     0.0000
     26  C1C       20.2350   75.6440   35.5540 C.ar  1417  HEM1417     0.0000
     27  C2C       20.1160   77.0640   35.3320 C.ar  1417  HEM1417     0.0000
     28  C3C       21.3120   77.6110   35.6370 C.ar  1417  HEM1417     0.0000
     29  C4C       22.1790   76.5160   36.0270 C.ar  1417  HEM1417     0.0000
     30  CMC       18.8750   77.8090   34.8600 C.3   1417  HEM1417     0.0000
     31  CAC       21.6340   78.9680   35.6590 C.2   1417  HEM1417     0.0000
     32  CBC       21.7410   79.7450   34.5550 C.2   1417  HEM1417     0.0000
     33  ND        23.9850   74.2740   36.7620 N.2   1417  HEM1417     0.0000
     34  C1D       24.3630   75.6210   36.7240 C.2   1417  HEM1417     0.0000
     35  C2D       25.7270   75.8020   37.1620 C.2   1417  HEM1417     0.0000
     36  C3D       26.2070   74.5630   37.4370 C.2   1417  HEM1417     0.0000
     37  C4D       25.1410   73.6170   37.1770 C.2   1417  HEM1417     0.0000
     38  CMD       26.4580   77.1410   37.3160 C.3   1417  HEM1417     0.0000
     39  CAD       27.5900   74.2160   37.9990 C.3   1417  HEM1417     0.0000
     40  CBD       27.6290   74.1090   39.5180 C.3   1417  HEM1417     0.0000
     41  CGD       28.9930   73.6730   40.0310 C.2   1417  HEM1417     0.0000
     42  O1D       29.2400   73.7890   41.2550 O.co2 1417  HEM1417     0.0000
     43  O2D       29.8110   73.2090   39.2070 O.co2 1417  HEM1417     0.0000
@<TRIPOS>BOND
     1    24    23    2
     2    32    31    2
     3    23    20    1
     4    22    19    1
     5    30    27    1
     6    20    19    2
     7    20    21    1
     8    19    18    1
     9     4    21    2
    10     4    26    1
    11    21    17    1
    12    27    26   ar
    13    27    28   ar
    14    18    17    2
    15    18     3    1
    16    26    25   ar
    17    28    31    1
    18    28    29   ar
    19    17     1    1
    20     3    10    2
    21    25    29   ar
    22    25     1    1
    23    29     5    1
    24    16    14   ar
    25    10     6   ar
    26    10     9   ar
    27     5    34    2
    28    11     9    1
    29     1     6    1
    30     1    33    1
    31    13    14    1
    32    13    12    1
    33     6     7   ar
    34     9     8   ar
    35    34    33    1
    36    34    35    1
    37    33    37    2
    38    14    15   ar
    39     7     8   ar
    40     7     2    2
    41     8    12    1
    42    35    38    1
    43    35    36    2
    44    37     2    1
    45    37    36    1
    46    36    39    1
    47    39    40    1
    48    43    41   ar
    49    40    41    1
    50    41    42   ar
