@<TRIPOS>MOLECULE
1t86_CAM_A_1.pdb
 11 12 0 0 0
SMALL
GASTEIGER

@<TRIPOS>ATOM
      1  C1        25.5800   71.9010   31.4950 C.3   1422  CAM1422     0.0515
      2  C2        27.0770   71.9810   31.9560 C.2   1422  CAM1422     0.1498
      3  O         28.0410   72.1270   31.2150 O.2   1422  CAM1422    -0.2961
      4  C3        27.1190   71.8420   33.4770 C.3   1422  CAM1422     0.0645
      5  C4        25.5160   71.7140   33.6250 C.3   1422  CAM1422     0.0077
      6  C5        24.8790   73.1950   33.4100 C.3   1422  CAM1422     0.0009
      7  C6        24.9400   73.3380   31.8200 C.3   1422  CAM1422     0.0069
      8  C7        24.9750   70.8920   32.4830 C.3   1422  CAM1422     0.0066
      9  C8        25.5080   69.3820   32.3930 C.3   1422  CAM1422     0.0004
     10  C9        23.4060   70.7620   32.5490 C.3   1422  CAM1422     0.0004
     11  C10       25.3610   71.5160   30.0150 C.3   1422  CAM1422     0.0073
@<TRIPOS>BOND
     1    11     1    1
     2     3     2    2
     3     1     7    1
     4     1     2    1
     5     1     8    1
     6     7     6    1
     7     2     4    1
     8     9     8    1
     9     8    10    1
    10     8     5    1
    11     6     5    1
    12     4     5    1
