@<TRIPOS>MOLECULE
1t87_HEM_A_1.pdb
 43 50 0 0 0
SMALL
GASTEIGER

@<TRIPOS>ATOM
      1 FE         23.0620    3.0340   45.7600 Fe    1417  HEM1417     0.0000
      2  CHA       24.5410    3.7230   48.7990 C.2   1417  HEM1417     0.0000
      3  CHB       19.9550    3.5160   47.1890 C.2   1417  HEM1417     0.0000
      4  CHC       21.6070    2.3330   42.7340 C.2   1417  HEM1417     0.0000
      5  CHD       26.1290    2.1690   44.4900 C.2   1417  HEM1417     0.0000
      6  NA        22.3920    3.4990   47.5900 N.2   1417  HEM1417     0.0000
      7  C1A       23.1480    3.7520   48.7420 C.2   1417  HEM1417     0.0000
      8  C2A       22.3040    4.0930   49.8680 C.2   1417  HEM1417     0.0000
      9  C3A       21.0100    4.0330   49.4150 C.2   1417  HEM1417     0.0000
     10  C4A       21.0710    3.6820   48.0150 C.2   1417  HEM1417     0.0000
     11  CMA       19.7250    4.2860   50.2100 C.3   1417  HEM1417     0.0000
     12  CAA       22.8230    4.4880   51.2610 C.3   1417  HEM1417     0.0000
     13  CBA       22.6100    3.3900   52.2990 C.3   1417  HEM1417     0.0000
     14  CGA       23.1480    3.7650   53.6690 C.2   1417  HEM1417     0.0000
     15  O1A       23.1820    4.9710   53.9850 O.co2 1417  HEM1417     0.0000
     16  O2A       23.5230    2.8510   54.4370 O.co2 1417  HEM1417     0.0000
     17  NB        21.1960    2.9300   45.1000 N.ar  1417  HEM1417     0.0000
     18  C1B       20.0140    3.1610   45.8290 C.ar  1417  HEM1417     0.0000
     19  C2B       18.8460    3.1460   44.9710 C.ar  1417  HEM1417     0.0000
     20  C3B       19.3030    2.8790   43.7030 C.ar  1417  HEM1417     0.0000
     21  C4B       20.7540    2.7160   43.8010 C.ar  1417  HEM1417     0.0000
     22  CMB       17.4070    3.4400   45.4230 C.3   1417  HEM1417     0.0000
     23  CAB       18.5820    2.7390   42.4970 C.2   1417  HEM1417     0.0000
     24  CBB       17.2460    2.7720   42.2960 C.2   1417  HEM1417     0.0000
     25  NC        23.7290    2.3350   44.0090 N.2   1417  HEM1417     0.0000
     26  C1C       22.9870    2.1280   42.8420 C.2   1417  HEM1417     0.0000
     27  C2C       23.8400    1.6560   41.7620 C.2   1417  HEM1417     0.0000
     28  C3C       25.0990    1.5620   42.2630 C.2   1417  HEM1417     0.0000
     29  C4C       25.0250    2.0020   43.6520 C.2   1417  HEM1417     0.0000
     30  CMC       23.4020    1.3480   40.3210 C.3   1417  HEM1417     0.0000
     31  CAC       26.2250    1.2140   41.5130 C.2   1417  HEM1417     0.0000
     32  CBC       27.0300    0.1570   41.7750 C.2   1417  HEM1417     0.0000
     33  ND        24.9200    3.0340   46.4540 N.ar  1417  HEM1417     0.0000
     34  C1D       26.0810    2.6620   45.7870 C.ar  1417  HEM1417     0.0000
     35  C2D       27.2500    2.8230   46.6130 C.ar  1417  HEM1417     0.0000
     36  C3D       26.8060    3.2570   47.8250 C.ar  1417  HEM1417     0.0000
     37  C4D       25.3690    3.3960   47.7190 C.ar  1417  HEM1417     0.0000
     38  CMD       28.6860    2.5470   46.1780 C.3   1417  HEM1417     0.0000
     39  CAD       27.5870    3.4230   49.1160 C.3   1417  HEM1417     0.0000
     40  CBD       27.9880    4.8630   49.4070 C.3   1417  HEM1417     0.0000
     41  CGD       28.5410    5.0340   50.8020 C.2   1417  HEM1417     0.0000
     42  O1D       29.1170    6.1070   51.0850 O.co2 1417  HEM1417     0.0000
     43  O2D       28.3850    4.1020   51.6230 O.co2 1417  HEM1417     0.0000
@<TRIPOS>BOND
     1    30    27    1
     2    31    32    2
     3    31    28    1
     4    27    28    2
     5    27    26    1
     6    28    29    1
     7    24    23    2
     8    23    20    1
     9     4    26    2
    10     4    21    1
    11    26    25    1
    12    29    25    2
    13    29     5    1
    14    20    21   ar
    15    20    19   ar
    16    21    17   ar
    17    25     1    1
    18     5    34    2
    19    19    22    1
    20    19    18   ar
    21    17     1    1
    22    17    18   ar
    23     1    33    1
    24     1     6    1
    25    34    33   ar
    26    34    35   ar
    27    18     3    1
    28    38    35    1
    29    33    37   ar
    30    35    36   ar
    31     3    10    2
    32     6    10    1
    33     6     7    2
    34    37    36   ar
    35    37     2    2
    36    36    39    1
    37    10     9    1
    38     7     2    1
    39     7     8    1
    40    39    40    1
    41    40    41    1
    42     9     8    2
    43     9    11    1
    44     8    12    1
    45    41    42   ar
    46    41    43   ar
    47    12    13    1
    48    13    14    1
    49    14    15   ar
    50    14    16   ar
