@<TRIPOS>MOLECULE
1t87_CAM_A_1.pdb
 11 12 0 0 0
SMALL
GASTEIGER

@<TRIPOS>ATOM
      1  C1        22.7510   -1.8790   49.6870 C.3   1422  CAM1422     0.0515
      2  C2        23.9360   -1.7940   50.7050 C.2   1422  CAM1422     0.1498
      3  O         24.4200   -2.7440   51.3150 O.2   1422  CAM1422    -0.2961
      4  C3        24.3780   -0.3330   50.8050 C.3   1422  CAM1422     0.0645
      5  C4        23.2910    0.1900   49.7460 C.3   1422  CAM1422     0.0077
      6  C5        23.8000   -0.2300   48.2580 C.3   1422  CAM1422     0.0009
      7  C6        23.4120   -1.7770   48.2240 C.3   1422  CAM1422     0.0069
      8  C7        21.9950   -0.5710   49.9460 C.3   1422  CAM1422     0.0066
      9  C8        21.2880   -0.4190   51.3860 C.3   1422  CAM1422     0.0004
     10  C9        20.9020   -0.1190   48.9060 C.3   1422  CAM1422     0.0004
     11  C10       21.8640   -3.1360   49.8090 C.3   1422  CAM1422     0.0073
@<TRIPOS>BOND
     1     7     6    1
     2     7     1    1
     3     6     5    1
     4    10     8    1
     5     1    11    1
     6     1     8    1
     7     1     2    1
     8     5     8    1
     9     5     4    1
    10     8     9    1
    11     2     4    1
    12     2     3    2
