@<TRIPOS>MOLECULE
1t88_HEM_A_1.pdb
 43 50 0 0 0
SMALL
GASTEIGER

@<TRIPOS>ATOM
      1 FE         10.4230   -3.0190   45.8330 Fe    1417  HEM1417     0.0000
      2  CHA        8.9780   -3.6670   48.9290 C.2   1417  HEM1417     0.0000
      3  CHB       13.5490   -3.4350   47.2690 C.2   1417  HEM1417     0.0000
      4  CHC       11.9150   -2.0470   42.8700 C.2   1417  HEM1417     0.0000
      5  CHD        7.3780   -2.0190   44.6310 C.2   1417  HEM1417     0.0000
      6  NA        11.0980   -3.4900   47.6700 N.2   1417  HEM1417     0.0000
      7  C1A       10.3630   -3.7660   48.8310 C.2   1417  HEM1417     0.0000
      8  C2A       11.2400   -4.0540   49.9470 C.2   1417  HEM1417     0.0000
      9  C3A       12.5070   -3.9490   49.4920 C.2   1417  HEM1417     0.0000
     10  C4A       12.4320   -3.6270   48.0890 C.2   1417  HEM1417     0.0000
     11  CMA       13.7870   -4.1240   50.3140 C.3   1417  HEM1417     0.0000
     12  CAA       10.7870   -4.4390   51.3640 C.3   1417  HEM1417     0.0000
     13  CBA       10.9480   -3.3400   52.4090 C.3   1417  HEM1417     0.0000
     14  CGA       10.3620   -3.7250   53.7600 C.2   1417  HEM1417     0.0000
     15  O1A       10.3040   -4.9360   54.0700 O.co2 1417  HEM1417     0.0000
     16  O2A        9.9730   -2.8130   54.5180 O.co2 1417  HEM1417     0.0000
     17  NB        12.3110   -2.7630   45.2080 N.ar  1417  HEM1417     0.0000
     18  C1B       13.4950   -3.0170   45.9230 C.ar  1417  HEM1417     0.0000
     19  C2B       14.6540   -2.8850   45.0700 C.ar  1417  HEM1417     0.0000
     20  C3B       14.2030   -2.5520   43.8300 C.ar  1417  HEM1417     0.0000
     21  C4B       12.7610   -2.4470   43.9280 C.ar  1417  HEM1417     0.0000
     22  CMB       16.0970   -3.1410   45.4820 C.3   1417  HEM1417     0.0000
     23  CAB       14.9220   -2.3320   42.6420 C.2   1417  HEM1417     0.0000
     24  CBB       16.1800   -2.7130   42.3260 C.2   1417  HEM1417     0.0000
     25  NC         9.7850   -2.1660   44.1420 N.2   1417  HEM1417     0.0000
     26  C1C       10.5350   -1.8760   42.9860 C.2   1417  HEM1417     0.0000
     27  C2C        9.6960   -1.3330   41.9280 C.2   1417  HEM1417     0.0000
     28  C3C        8.4310   -1.2640   42.4410 C.2   1417  HEM1417     0.0000
     29  C4C        8.4910   -1.8000   43.8000 C.2   1417  HEM1417     0.0000
     30  CMC       10.1500   -1.0250   40.5000 C.3   1417  HEM1417     0.0000
     31  CAC        7.3030   -0.8740   41.7190 C.2   1417  HEM1417     0.0000
     32  CBC        6.5650    0.2190   42.0340 C.2   1417  HEM1417     0.0000
     33  ND         8.5770   -2.9550   46.5840 N.ar  1417  HEM1417     0.0000
     34  C1D        7.4190   -2.5340   45.9310 C.ar  1417  HEM1417     0.0000
     35  C2D        6.2540   -2.6310   46.7920 C.ar  1417  HEM1417     0.0000
     36  C3D        6.6920   -3.1110   47.9800 C.ar  1417  HEM1417     0.0000
     37  C4D        8.1390   -3.2980   47.8590 C.ar  1417  HEM1417     0.0000
     38  CMD        4.8250   -2.1790   46.4640 C.3   1417  HEM1417     0.0000
     39  CAD        5.8510   -3.3280   49.2270 C.3   1417  HEM1417     0.0000
     40  CBD        5.6450   -4.7760   49.6320 C.3   1417  HEM1417     0.0000
     41  CGD        4.9640   -4.9050   50.9800 C.2   1417  HEM1417     0.0000
     42  O1D        5.1740   -4.0190   51.8330 O.co2 1417  HEM1417     0.0000
     43  O2D        4.2380   -5.8970   51.1980 O.co2 1417  HEM1417     0.0000
@<TRIPOS>BOND
     1    30    27    1
     2    31    32    2
     3    31    28    1
     4    27    28    2
     5    27    26    1
     6    24    23    2
     7    28    29    1
     8    23    20    1
     9     4    26    2
    10     4    21    1
    11    26    25    1
    12    29    25    2
    13    29     5    1
    14    20    21   ar
    15    20    19   ar
    16    21    17   ar
    17    25     1    1
    18     5    34    2
    19    19    22    1
    20    19    18   ar
    21    17     1    1
    22    17    18   ar
    23     1    33    1
    24     1     6    1
    25    18     3    1
    26    34    33   ar
    27    34    35   ar
    28    38    35    1
    29    33    37   ar
    30    35    36   ar
    31     3    10    2
    32     6    10    1
    33     6     7    2
    34    37    36   ar
    35    37     2    2
    36    36    39    1
    37    10     9    1
    38     7     2    1
    39     7     8    1
    40    39    40    1
    41     9     8    2
    42     9    11    1
    43    40    41    1
    44     8    12    1
    45    41    43   ar
    46    41    42   ar
    47    12    13    1
    48    13    14    1
    49    14    15   ar
    50    14    16   ar
