@<TRIPOS>MOLECULE
1t88_CAM_A_1.pdb
 11 12 0 0 0
SMALL
GASTEIGER

@<TRIPOS>ATOM
      1  C1        10.6620    1.9190   49.4580 C.3   1422  CAM1422     0.0515
      2  C2         9.4880    1.6810   50.4490 C.2   1422  CAM1422     0.1498
      3  O          8.9620    2.5460   51.1390 O.2   1422  CAM1422    -0.2961
      4  C3         9.1120    0.1970   50.4070 C.3   1422  CAM1422     0.0645
      5  C4        10.2300   -0.1680   49.3090 C.3   1422  CAM1422     0.0077
      6  C5         9.7060    0.3630   47.8660 C.3   1422  CAM1422     0.0009
      7  C6        10.0070    1.9250   47.9840 C.3   1422  CAM1422     0.0069
      8  C7        11.4850    0.6340   49.5930 C.3   1422  CAM1422     0.0066
      9  C8        12.1910    0.3790   51.0150 C.3   1422  CAM1422     0.0004
     10  C9        12.6080    0.3450   48.5240 C.3   1422  CAM1422     0.0004
     11  C10       11.4820    3.1980   49.7120 C.3   1422  CAM1422     0.0073
@<TRIPOS>BOND
     1     6     7    1
     2     6     5    1
     3     7     1    1
     4    10     8    1
     5     5     8    1
     6     5     4    1
     7     1     8    1
     8     1    11    1
     9     1     2    1
    10     8     9    1
    11     4     2    1
    12     2     3    2
