@<TRIPOS>MOLECULE
1t89_BMA_A_1.pdb
 11 11 0 0 0
SMALL
GASTEIGER

@<TRIPOS>ATOM
      1  C1        47.4940   41.8100    6.6830 C.3   450  BMA450      0.1777
      2  C2        48.0700   40.5190    6.1230 C.3   450  BMA450      0.2141
      3  C3        47.0820   39.3600    6.3620 C.3   450  BMA450      0.2173
      4  C4        46.8190   39.2680    7.8580 C.3   450  BMA450      0.2142
      5  C5        46.3310   40.5980    8.3810 C.3   450  BMA450      0.1810
      6  C6        46.0950   40.5630    9.8810 C.3   450  BMA450      0.2141
      7  O2        49.2870   40.2560    6.8080 O.3   450  BMA450     -0.2176
      8  O3        47.6600   38.1080    5.9100 O.3   450  BMA450     -0.2175
      9  O4        45.8510   38.2750    8.1230 O.3   450  BMA450     -0.2176
     10  O5        47.3010   41.6360    8.0900 O.3   450  BMA450     -0.3481
     11  O6        47.2630   41.0210   10.5790 O.3   450  BMA450     -0.2176
@<TRIPOS>BOND
     1     8     3    1
     2     2     3    1
     3     2     1    1
     4     2     7    1
     5     3     4    1
     6     1    10    1
     7     4     9    1
     8     4     5    1
     9    10     5    1
    10     5     6    1
    11     6    11    1
