@<TRIPOS>MOLECULE
1t89_GAL_A_1.pdb
 11 11 0 0 0
SMALL
GASTEIGER

@<TRIPOS>ATOM
      1  C1        41.4650   42.0630   17.8170 C.3   454  GAL454      0.1777
      2  C2        40.1530   41.2920   18.0080 C.3   454  GAL454      0.2141
      3  C3        39.3850   41.8520   19.2210 C.3   454  GAL454      0.2173
      4  C4        40.2850   42.0000   20.4640 C.3   454  GAL454      0.2142
      5  C5        41.6620   42.6120   20.1300 C.3   454  GAL454      0.1810
      6  C6        42.6420   42.5100   21.2910 C.3   454  GAL454      0.2141
      7  O2        39.3500   41.4020   16.8370 O.3   454  GAL454     -0.2176
      8  O3        38.2960   40.9890   19.5360 O.3   454  GAL454     -0.2175
      9  O4        40.4550   40.7430   21.0980 O.3   454  GAL454     -0.2176
     10  O5        42.2610   41.9340   19.0000 O.3   454  GAL454     -0.3481
     11  O6        43.9940   42.5540   20.8480 O.3   454  GAL454     -0.2176
@<TRIPOS>BOND
     1     7     2    1
     2     1     2    1
     3     1    10    1
     4     2     3    1
     5    10     5    1
     6     3     8    1
     7     3     4    1
     8     5     4    1
     9     5     6    1
    10     4     9    1
    11    11     6    1
