@<TRIPOS>MOLECULE
1t8e_DCT_A_1.pdb
 27 28 0 0 0
SMALL
GASTEIGER

@<TRIPOS>ATOM
      1  N1        42.8490   26.1280    1.4210 N.am  1023  DCT1023    -0.1803
      2  C2        42.4610   26.5880    2.6960 C.1   1023  DCT1023     0.2756
      3  N3        41.8250   27.7780    2.8220 N.2   1023  DCT1023    -0.3024
      4  C4        41.5680   28.5160    1.7410 C.2   1023  DCT1023     0.2346
      5  C5        41.9590   28.0900    0.4240 C.2   1023  DCT1023     0.0687
      6  C6        42.5850   26.8910    0.3090 C.2   1023  DCT1023     0.0835
      7  O2        42.7210   25.8910    3.6820 O.2   1023  DCT1023    -0.1925
      8  N4        40.9170   29.6810    1.9200 N.pl3 1023  DCT1023    -0.0921
      9  C1'       43.5440   24.8170    1.3510 C.3   1023  DCT1023     0.2063
     10  C2'       42.6650   23.5970    1.0570 C.3   1023  DCT1023     0.0545
     11  C3'       42.9150   23.3880   -0.4430 C.3   1023  DCT1023     0.0366
     12  C4'       44.3860   23.7670   -0.5610 C.3   1023  DCT1023     0.1472
     13  O4'       44.5590   24.8690    0.3730 O.3   1023  DCT1023    -0.3366
     14  C5'       44.8190   24.2280   -1.9190 C.3   1023  DCT1023     0.1785
     15  O5'       44.0320   25.3330   -2.3450 O.3   1023  DCT1023    -0.3113
     16  PA        43.3600   25.3010   -3.7850 P.3   1023  DCT1023     0.2189
     17  O1A       42.4820   26.4670   -3.9470 O.3   1023  DCT1023    -0.4371
     18  O2A       44.4190   25.0080   -4.7960 O.2   1023  DCT1023    -0.5170
     19  O3A       42.5050   23.9960   -3.4410 O.3   1023  DCT1023    -0.2700
     20  PB        41.4760   23.1800   -4.3360 P.3   1023  DCT1023     0.2277
     21  O1B       40.2070   23.0870   -3.5840 O.3   1023  DCT1023    -0.4368
     22  O2B       42.1570   21.9440   -4.7890 O.2   1023  DCT1023    -0.5168
     23  O3B       41.2380   24.1580   -5.5730 O.3   1023  DCT1023    -0.2258
     24  PG        41.0880   23.7020   -7.0920 P.3   1023  DCT1023     0.5373
     25  O1G       42.4460   23.6330   -7.6720 O.2   1023  DCT1023    -0.2221
     26  O2G       40.2000   22.5220   -7.1600 O.3   1023  DCT1023    -0.1143
     27  O3G       40.3670   24.9630   -7.5170 O.3   1023  DCT1023    -0.1143
@<TRIPOS>BOND
     1    25    24    2
     2    27    24    1
     3    26    24    1
     4    24    23    1
     5    23    20    1
     6    18    16    2
     7    22    20    2
     8    20    21    1
     9    20    19    1
    10    17    16    1
    11    16    19    1
    12    16    15    1
    13    15    14    1
    14    14    12    1
    15    12    11    1
    16    12    13    1
    17    11    10    1
    18     6     5    2
    19     6     1    1
    20    13     9    1
    21     5     4    1
    22    10     9    1
    23     9     1    1
    24     1     2   am
    25     4     8    1
    26     4     3    2
    27     2     3    2
    28     2     7    2
