@<TRIPOS>MOLECULE
1t8i_EHD_D_1.pdb
 26 30 0 0 0
SMALL
GASTEIGER

@<TRIPOS>ATOM
      1  O18       25.0540   -1.0640   27.9310 O.2   990  EHD990     -0.2672
      2  C14       23.7050   -1.1420   27.9650 C.ar  990  EHD990      0.2604
      3  C15       22.9450   -0.0210   28.0310 C.ar  990  EHD990      0.0763
      4  C19       23.6780    1.2820   28.0760 C.3   990  EHD990      0.2396
      5  O22       22.9360    2.2610   27.2870 O.3   990  EHD990     -0.4414
      6  C20       21.5280    2.3220   27.2790 C.2   990  EHD990      0.3490
      7  O23       20.9320    3.2230   26.5380 O.2   990  EHD990     -0.2470
      8  C16       21.4900   -0.0040   28.0540 C.ar  990  EHD990      0.0209
      9  C17       20.9250   -1.3070   27.9900 C.ar  990  EHD990      0.0184
     10  C21       20.7330    1.3360   28.1050 C.3   990  EHD990      0.2334
     11  O24       19.5350    1.2470   27.5060 O.3   990  EHD990     -0.2097
     12  C25       20.5790    1.8610   29.5520 C.3   990  EHD990      0.0458
     13  C31       19.0930    1.9670   30.0520 C.3   990  EHD990      0.0036
     14  N12       23.0750   -2.3740   27.9070 N.ar  990  EHD990     -0.2891
     15  C11       23.7700   -3.6460   27.8220 C.3   990  EHD990      0.1381
     16  C8        22.6200   -4.5980   27.7570 C.2   990  EHD990      0.0280
     17  C7        22.5180   -5.9280   27.6530 C.2   990  EHD990     -0.0148
     18  C6        21.2670   -6.5580   27.6090 C.3   990  EHD990      0.0960
     19  C5        20.0800   -5.7290   27.6720 C.2   990  EHD990      0.1167
     20  N10       20.1290   -4.2830   27.7860 N.2   990  EHD990     -0.4044
     21  C9        21.3820   -3.7900   27.8240 C.2   990  EHD990      0.1443
     22  C13       21.7390   -2.4630   27.9150 C.ar  990  EHD990      0.0918
     23  C1        21.1480   -7.9490   27.5070 C.2   990  EHD990     -0.0150
     24  C2        19.8960   -8.5310   27.4670 C.2   990  EHD990     -0.0038
     25  C3        18.7310   -7.7150   27.5260 C.2   990  EHD990      0.0020
     26  C4        18.8250   -6.2790   27.6360 C.2   990  EHD990      0.0282
@<TRIPOS>BOND
     1     7     6    2
     2     6     5    1
     3     6    10    1
     4     5     4    1
     5    24    23    2
     6    24    25    1
     7    11    10    1
     8    23    18    1
     9    25    26    2
    10    18    17    1
    11    18    19    1
    12    26    19    1
    13    17    16    2
    14    19    20    2
    15    16    15    1
    16    16    21    1
    17    20    21    2
    18    15    14    1
    19    21    22    1
    20    14    22   ar
    21    14     2   ar
    22    22     9   ar
    23     1     2    2
    24     2     3   ar
    25     9     8   ar
    26     3     8   ar
    27     3     4    1
    28     8    10    1
    29    10    12    1
    30    12    13    1
