@<TRIPOS>MOLECULE
1t8s_FMP_A_1.pdb
 23 25 0 0 0
SMALL
GASTEIGER

@<TRIPOS>ATOM
      1  P        178.8010  149.2730   97.0500 P.3   501  FMP501      0.5327
      2  O1P      179.8080  149.0060   95.9810 O.2   501  FMP501     -0.2224
      3  O2P      179.0520  150.5010   97.8550 O.3   501  FMP501     -0.1145
      4  O3P      177.3700  149.0980   96.6170 O.3   501  FMP501     -0.1145
      5  O5'      178.9760  148.0930   98.0640 O.3   501  FMP501     -0.2675
      6  C5'      178.8880  146.6890   97.8290 C.3   501  FMP501      0.1858
      7  C4'      178.1800  145.9240   98.9520 C.3   501  FMP501      0.1786
      8  O4'      176.7790  145.9910   98.6440 O.3   501  FMP501     -0.3447
      9  C3'      178.6460  144.4430   98.9690 C.3   501  FMP501      0.2143
     10  O3'      179.0450  144.0470  100.3020 O.3   501  FMP501     -0.2176
     11  C2'      177.4570  143.6220   98.5320 C.3   501  FMP501      0.2173
     12  O2'      177.1700  142.5220   99.3930 O.3   501  FMP501     -0.2173
     13  C1'      176.3640  144.6560   98.3810 C.3   501  FMP501      0.1910
     14  C9       175.5360  144.9630   97.1750 C.2   501  FMP501      0.1291
     15  N8       174.5050  145.7670   97.2140 N.2   501  FMP501     -0.1480
     16  N7       173.9090  145.9340   96.0320 N.2   501  FMP501     -0.1387
     17  C6       174.5330  144.8910   93.7550 C.2   501  FMP501      0.4334
     18  N6       173.5780  145.4750   93.0280 N.pl3 501  FMP501      0.2178
     19  C5       174.6340  145.1520   95.1570 C.2   501  FMP501      0.2111
     20  C4       175.6540  144.5280   95.8380 C.2   501  FMP501      0.1251
     21  N3       176.5900  143.6590   95.2800 N.2   501  FMP501     -0.2155
     22  C2       176.3920  143.4870   93.9570 C.3   501  FMP501      0.3922
     23  N1       175.4470  144.0350   93.1750 N.2   501  FMP501     -0.0278
@<TRIPOS>BOND
     1    18    17    1
     2    23    17    2
     3    23    22    1
     4    17    19    1
     5    22    21    1
     6    19    20    1
     7    19    16    2
     8    21    20    2
     9    20    14    1
    10     2     1    2
    11    16    15    1
    12     4     1    1
    13     1     3    1
    14     1     5    1
    15    14    15    2
    16    14    13    1
    17     6     5    1
    18     6     7    1
    19    13    11    1
    20    13     8    1
    21    11     9    1
    22    11    12    1
    23     8     7    1
    24     7     9    1
    25     9    10    1
