@<TRIPOS>MOLECULE
1t8t_A3P_A_1.pdb
 27 29 0 0 0
SMALL
GASTEIGER

@<TRIPOS>ATOM
      1  P1        33.2820   29.2160   31.5520 P.3   1302  A3P1302     0.5327
      2  O1P       31.8540   29.4350   31.1130 O.3   1302  A3P1302    -0.1145
      3  O2P       33.5250   27.8170   32.0890 O.3   1302  A3P1302    -0.1145
      4  O3P       34.3040   29.6420   30.5040 O.2   1302  A3P1302    -0.2224
      5  P2        37.1230   33.8070   35.5090 P.3   1302  A3P1302     0.5327
      6  O4P       37.2140   33.9870   37.0180 O.3   1302  A3P1302    -0.1145
      7  O5P       37.0260   35.1180   34.7450 O.2   1302  A3P1302    -0.2224
      8  O6P       38.2040   32.8960   34.9550 O.3   1302  A3P1302    -0.1145
      9  O5'       35.7030   33.0560   35.2730 O.3   1302  A3P1302    -0.2675
     10  C5'       35.3000   32.6350   33.9590 C.3   1302  A3P1302     0.1859
     11  C4'       33.8450   32.2580   33.9750 C.3   1302  A3P1302     0.1796
     12  O4'       33.0420   33.4460   34.1050 O.3   1302  A3P1302    -0.3136
     13  C3'       33.2990   31.5900   32.7190 C.3   1302  A3P1302     0.1928
     14  O3'       33.5280   30.1800   32.8210 O.3   1302  A3P1302    -0.2673
     15  C2'       31.8040   31.9750   32.7220 C.3   1302  A3P1302     0.2543
     16  O2'       30.9560   30.9090   33.1090 O.3   1302  A3P1302    -0.2131
     17  C1'       31.7280   33.1040   33.7640 C.3   1302  A3P1302     0.3185
     18  N9        30.9980   34.3250   33.3930 N.pl3 1302  A3P1302    -0.1439
     19  C8        30.1870   35.0370   34.2420 C.3   1302  A3P1302     0.3377
     20  N7        29.6150   36.0750   33.6850 N.2   1302  A3P1302    -0.2095
     21  C5        30.0870   36.0570   32.3780 C.2   1302  A3P1302     0.2526
     22  C6        29.7870   36.8580   31.2600 C.2   1302  A3P1302     0.4393
     23  N6        28.9510   37.9030   31.3060 N.pl3 1302  A3P1302     0.2180
     24  N1        30.3740   36.5400   30.0800 N.2   1302  A3P1302     0.0021
     25  C2        31.1910   35.4770   30.0410 C.3   1302  A3P1302     0.5254
     26  N3        31.5380   34.6410   31.0240 N.2   1302  A3P1302    -0.0055
     27  C4        30.9470   34.9870   32.1830 C.2   1302  A3P1302     0.3518
@<TRIPOS>BOND
     1    25    24    1
     2    25    26    1
     3    24    22    2
     4     4     1    2
     5    26    27    2
     6     2     1    1
     7    22    23    1
     8    22    21    1
     9     1     3    1
    10     1    14    1
    11    27    21    1
    12    27    18    1
    13    21    20    2
    14    13    15    1
    15    13    14    1
    16    13    11    1
    17    15    16    1
    18    15    17    1
    19    18    17    1
    20    18    19    1
    21    20    19    1
    22    17    12    1
    23    10    11    1
    24    10     9    1
    25    11    12    1
    26     7     5    2
    27     8     5    1
    28     9     5    1
    29     5     6    1
