@<TRIPOS>MOLECULE
1t8u_A3P_B_1.pdb
 27 29 0 0 0
SMALL
GASTEIGER

@<TRIPOS>ATOM
      1  P1        33.4590   29.2570   31.2040 P.3   602  A3P602      0.5327
      2  O1P       32.0280   29.4460   30.7480 O.3   602  A3P602     -0.1145
      3  O2P       33.7100   27.8630   31.7570 O.3   602  A3P602     -0.1145
      4  O3P       34.4790   29.6640   30.1520 O.2   602  A3P602     -0.2224
      5  P2        37.2580   33.7930   35.1830 P.3   602  A3P602      0.5327
      6  O4P       37.3300   33.9070   36.6950 O.3   602  A3P602     -0.1145
      7  O5P       37.1880   35.1410   34.4910 O.2   602  A3P602     -0.2224
      8  O6P       38.3290   32.8750   34.6050 O.3   602  A3P602     -0.1145
      9  O5'       35.8340   33.0610   34.9040 O.3   602  A3P602     -0.2675
     10  C5'       35.4240   32.7060   33.5750 C.3   602  A3P602      0.1859
     11  C4'       33.9720   32.3090   33.5910 C.3   602  A3P602      0.1796
     12  O4'       33.1500   33.4780   33.7310 O.3   602  A3P602     -0.3136
     13  C3'       33.4320   31.6350   32.3410 C.3   602  A3P602      0.1928
     14  O3'       33.6690   30.2350   32.4680 O.3   602  A3P602     -0.2673
     15  C2'       31.9310   32.0000   32.3420 C.3   602  A3P602      0.2543
     16  O2'       31.1100   30.9160   32.7250 O.3   602  A3P602     -0.2131
     17  C1'       31.8360   33.1140   33.3960 C.3   602  A3P602      0.3185
     18  N9        31.0950   34.3220   33.0190 N.pl3 602  A3P602     -0.1439
     19  C8        30.2600   35.0310   33.8470 C.3   602  A3P602      0.3377
     20  N7        29.6980   36.0670   33.2750 N.2   602  A3P602     -0.2095
     21  C5        30.1990   36.0460   31.9800 C.2   602  A3P602      0.2526
     22  C6        29.9570   36.8700   30.8630 C.2   602  A3P602      0.4393
     23  N6        29.1140   37.9080   30.8810 N.pl3 602  A3P602      0.2180
     24  N1        30.6090   36.5800   29.7140 N.2   602  A3P602      0.0021
     25  C2        31.4310   35.5200   29.6970 C.3   602  A3P602      0.5254
     26  N3        31.7190   34.6560   30.6760 N.2   602  A3P602     -0.0055
     27  C4        31.0660   34.9810   31.8070 C.2   602  A3P602      0.3518
@<TRIPOS>BOND
     1    25    24    1
     2    25    26    1
     3    24    22    2
     4     4     1    2
     5    26    27    2
     6     2     1    1
     7    22    23    1
     8    22    21    1
     9     1     3    1
    10     1    14    1
    11    27    21    1
    12    27    18    1
    13    21    20    2
    14    13    15    1
    15    13    14    1
    16    13    11    1
    17    15    16    1
    18    15    17    1
    19    18    17    1
    20    18    19    1
    21    20    19    1
    22    17    12    1
    23    10    11    1
    24    10     9    1
    25    11    12    1
    26     7     5    2
    27     8     5    1
    28     9     5    1
    29     5     6    1
