@<TRIPOS>MOLECULE
1t8u_UAP_B_1.pdb
 15 15 0 0 0
SMALL
GASTEIGER

@<TRIPOS>ATOM
      1  C1        32.2690   74.8760   18.8240 C.3     1  UAP1        0.1772
      2  C2        33.5780   75.2130   19.5150 C.3     1  UAP1        0.2028
      3  C3        34.3640   73.9360   19.7990 C.3     1  UAP1        0.1868
      4  C4        33.4640   72.7270   20.3320 C.3     1  UAP1        0.0768
      5  C5        32.0810   72.9430   20.2460 C.3     1  UAP1        0.2204
      6  C6        31.0840   71.9480   20.7300 C.2     1  UAP1        0.3914
      7  O2        34.4060   76.0490   18.6440 O.3     1  UAP1       -0.2385
      8  O3        35.3780   74.2200   20.7500 O.3     1  UAP1       -0.2203
      9  O5        31.4450   74.1430   19.7210 O.3     1  UAP1       -0.3422
     10  O61       30.1410   72.3540   21.4420 O.co2   1  UAP1       -0.2430
     11  O62       31.2350   70.7550   20.4000 O.co2   1  UAP1       -0.2430
     12  S         34.6510   77.5960   18.9750 S.3     1  UAP1       -0.0001
     13  O1S       33.6940   78.3640   18.1650 O.2     1  UAP1       -0.3452
     14  O2S       36.0410   77.8950   18.6010 O.2     1  UAP1       -0.3452
     15  O3S       34.4170   77.7720   20.4170 O.3     1  UAP1       -0.2682
@<TRIPOS>BOND
     1    13    12    2
     2    14    12    2
     3     7    12    1
     4     7     2    1
     5     1     2    1
     6     1     9    1
     7    12    15    1
     8     2     3    1
     9     9     5    1
    10     3     4    1
    11     3     8    1
    12     5     4    1
    13     5     6    1
    14    11     6   ar
    15     6    10   ar
