@<TRIPOS>MOLECULE
1t8u_SGN_B_1.pdb
 19 19 0 0 0
SMALL
GASTEIGER

@<TRIPOS>ATOM
      1  C1        28.9430   77.3350   15.5160 C.3     2  SGN2        0.1640
      2  C2        28.3000   76.6190   16.7170 C.3     2  SGN2        0.1563
      3  C3        29.2790   76.4450   17.8840 C.3     2  SGN2        0.2047
      4  C4        30.6430   75.9100   17.4150 C.3     2  SGN2        0.2131
      5  C5        31.1410   76.7190   16.2240 C.3     2  SGN2        0.1800
      6  C6        32.4320   76.2210   15.6360 C.3     2  SGN2        0.2045
      7  N         27.1580   77.3780   17.1770 N.3     2  SGN2       -0.1156
      8  O3        28.7140   75.5630   18.8510 O.3     2  SGN2       -0.2187
      9  O4        31.5950   76.0390   18.4860 O.3     2  SGN2       -0.2176
     10  O5        30.1620   76.7020   15.1700 O.3     2  SGN2       -0.3493
     11  O6        33.0870   77.3860   15.0890 O.3     2  SGN2       -0.2384
     12  S1        25.7740   77.3000   16.2790 S.3     2  SGN2       -0.1289
     13  O1S       24.8090   78.0830   17.0280 O.3     2  SGN2       -0.2919
     14  O2S       25.4230   75.8500   16.2250 O.3     2  SGN2       -0.2919
     15  O3S       26.0320   77.8650   14.9170 O.3     2  SGN2       -0.2919
     16  S2        34.4250   77.1220   14.2600 S.3     2  SGN2       -0.0001
     17  O4S       35.0890   78.4240   14.0670 O.2     2  SGN2       -0.3452
     18  O5S       34.0090   76.5140   12.9610 O.2     2  SGN2       -0.3452
     19  O6S       35.2410   76.2120   15.0530 O.3     2  SGN2       -0.2682
@<TRIPOS>BOND
     1    18    16    2
     2    17    16    2
     3    16    19    1
     4    16    11    1
     5    15    12    1
     6    11     6    1
     7    10     1    1
     8    10     5    1
     9     1     2    1
    10     6     5    1
    11     5     4    1
    12    14    12    1
    13    12    13    1
    14    12     7    1
    15     2     7    1
    16     2     3    1
    17     4     3    1
    18     4     9    1
    19     3     8    1
