@<TRIPOS>MOLECULE
1t8u_IDS_B_1.pdb
 16 16 0 0 0
SMALL
GASTEIGER

@<TRIPOS>ATOM
      1  C1        28.3710   81.9480   13.7550 C.3     3  IDS3        0.1774
      2  C2        28.8990   80.8580   12.8190 C.3     3  IDS3        0.2054
      3  C3        28.8740   79.4920   13.4990 C.3     3  IDS3        0.2169
      4  C4        29.7500   79.4900   14.7680 C.3     3  IDS3        0.2227
      5  C5        29.9560   80.9280   15.2610 C.3     3  IDS3        0.2512
      6  C6        30.4230   81.0520   16.7050 C.2     3  IDS3        0.3940
      7  O2        28.0650   80.7890   11.6260 O.3     3  IDS3       -0.2384
      8  O3        29.3380   78.5020   12.5910 O.3     3  IDS3       -0.2175
      9  O4        29.1150   78.6970   15.8020 O.3     3  IDS3       -0.2171
     10  O5        28.7200   81.6700   15.1290 O.3     3  IDS3       -0.3403
     11  O61       31.4400   80.4070   17.0430 O.co2   3  IDS3       -0.2429
     12  O62       29.7790   81.8020   17.4770 O.co2   3  IDS3       -0.2429
     13  S         28.7170   81.0460   10.1920 S.3     3  IDS3       -0.0001
     14  O1S       27.6480   80.7690    9.1730 O.2     3  IDS3       -0.3452
     15  O2S       29.8620   80.1200   10.0640 O.2     3  IDS3       -0.3452
     16  O3S       29.1420   82.4340   10.1650 O.3     3  IDS3       -0.2682
@<TRIPOS>BOND
     1    14    13    2
     2    15    13    2
     3    16    13    1
     4    13     7    1
     5     7     2    1
     6     8     3    1
     7     2     3    1
     8     2     1    1
     9     3     4    1
    10     1    10    1
    11     4     5    1
    12     4     9    1
    13    10     5    1
    14     5     6    1
    15     6    11   ar
    16     6    12   ar
