@<TRIPOS>MOLECULE
1t8x_A5P_A_1.pdb
 14 13 0 0 0
SMALL
GASTEIGER

@<TRIPOS>ATOM
      1  C1        36.0050   51.2710   18.4520 C.2   1269  A5P1269     0.2427
      2  O1        35.6880   50.1080   18.3430 O.2   1269  A5P1269    -0.2854
      3  C2        35.4210   52.3150   17.5740 C.3   1269  A5P1269     0.2486
      4  O2        34.0790   52.4660   18.0580 O.3   1269  A5P1269    -0.2118
      5  C3        36.0530   53.6560   17.8490 C.3   1269  A5P1269     0.2224
      6  O3        35.1860   54.6850   17.2910 O.3   1269  A5P1269    -0.2171
      7  C4        37.4890   53.6910   17.3160 C.3   1269  A5P1269     0.2151
      8  O4        38.3490   53.9180   18.4610 O.3   1269  A5P1269    -0.2176
      9  C5        37.7500   54.5430   16.0680 C.3   1269  A5P1269     0.1892
     10  O5        39.0480   55.0610   16.2030 O.3   1269  A5P1269    -0.2674
     11  P         39.7150   56.1340   15.4740 P.3   1269  A5P1269     0.5327
     12  O1P       39.0550   57.4330   15.7920 O.3   1269  A5P1269    -0.1145
     13  O2P       41.1140   56.0930   15.9640 O.3   1269  A5P1269    -0.1145
     14  O3P       39.6630   55.8730   14.0120 O.2   1269  A5P1269    -0.2224
@<TRIPOS>BOND
     1    14    11    2
     2    11    12    1
     3    11    13    1
     4    11    10    1
     5     9    10    1
     6     9     7    1
     7     6     5    1
     8     7     5    1
     9     7     8    1
    10     3     5    1
    11     3     4    1
    12     3     1    1
    13     2     1    2
