@<TRIPOS>MOLECULE
1t8z_12P_E_1.pdb
 37 36 0 0 0
SMALL
GASTEIGER

@<TRIPOS>ATOM
      1  O37       -0.3010   -0.4020    0.4370 O.3   1001  12P1001    -0.2176
      2  C36       -0.3530    0.6680   -0.4740 C.3   1001  12P1001     0.2140
      3  C35       -0.4350    0.0470   -1.8600 C.3   1001  12P1001     0.1777
      4  O34        0.6790   -0.7980   -2.1420 O.3   1001  12P1001    -0.3483
      5  C33        0.6130   -1.4670   -3.4200 C.3   1001  12P1001     0.1742
      6  C32        0.9080   -0.5410   -4.6100 C.3   1001  12P1001     0.1742
      7  O31        1.6600   -1.2450   -5.6080 O.3   1001  12P1001    -0.3484
      8  C30        1.0980   -1.1200   -6.9170 C.3   1001  12P1001     0.1742
      9  C29        2.2310   -1.0590   -7.9500 C.3   1001  12P1001     0.1742
     10  O28        2.1450   -2.1620   -8.8740 O.3   1001  12P1001    -0.3484
     11  C27        3.2460   -2.1450   -9.7860 C.3   1001  12P1001     0.1742
     12  C26        2.7020   -1.9960  -11.1920 C.3   1001  12P1001     0.1742
     13  O25        3.6020   -2.6150  -12.1160 O.3   1001  12P1001    -0.3484
     14  C24        3.5070   -2.2350  -13.4750 C.3   1001  12P1001     0.1742
     15  C23        3.6930   -3.4270  -14.4170 C.3   1001  12P1001     0.1742
     16  O22        4.5240   -2.9440  -15.4640 O.3   1001  12P1001    -0.3484
     17  C21        5.4570   -3.8940  -16.0270 C.3   1001  12P1001     0.1742
     18  C20        4.9680   -4.4090  -17.4020 C.3   1001  12P1001     0.1742
     19  O19        5.6220   -3.8670  -18.5500 O.3   1001  12P1001    -0.3484
     20  C18        5.2610   -4.5840  -19.7370 C.3   1001  12P1001     0.1742
     21  C17        6.4440   -4.8110  -20.6580 C.3   1001  12P1001     0.1742
     22  O16        6.1280   -4.4340  -22.0030 O.3   1001  12P1001    -0.3484
     23  C15        6.6700   -5.2800  -23.0490 C.3   1001  12P1001     0.1742
     24  C14        7.1820   -4.5190  -24.2720 C.3   1001  12P1001     0.1742
     25  O13        7.1390   -5.4230  -25.3860 O.3   1001  12P1001    -0.3484
     26  C12        7.7970   -4.9400  -26.5790 C.3   1001  12P1001     0.1742
     27  C11        8.0920   -6.0850  -27.5030 C.3   1001  12P1001     0.1742
     28  O10        8.2950   -5.6700  -28.8330 O.3   1001  12P1001    -0.3484
     29  C9         8.3200   -6.8330  -29.6640 C.3   1001  12P1001     0.1742
     30  C8         8.2820   -6.5020  -31.1660 C.3   1001  12P1001     0.1742
     31  O7         7.8440   -7.6040  -31.9790 O.3   1001  12P1001    -0.3484
     32  C6         6.4380   -7.6580  -32.2980 C.3   1001  12P1001     0.1742
     33  C5         5.7290   -8.7390  -31.4820 C.3   1001  12P1001     0.1742
     34  O4         5.2120   -9.7480  -32.3460 O.3   1001  12P1001    -0.3483
     35  C3         5.2300  -11.0840  -31.8270 C.3   1001  12P1001     0.1777
     36  C2         5.7940  -12.0260  -32.9000 C.3   1001  12P1001     0.2140
     37  O1         5.3240  -13.3630  -32.7860 O.3   1001  12P1001    -0.2176
@<TRIPOS>BOND
     1    36    37    1
     2    36    35    1
     3    34    35    1
     4    34    33    1
     5    32    31    1
     6    32    33    1
     7    31    30    1
     8    30    29    1
     9    29    28    1
    10    28    27    1
    11    27    26    1
    12    26    25    1
    13    25    24    1
    14    24    23    1
    15    23    22    1
    16    22    21    1
    17    21    20    1
    18    20    19    1
    19    19    18    1
    20    18    17    1
    21    17    16    1
    22    16    15    1
    23    15    14    1
    24    14    13    1
    25    13    12    1
    26    12    11    1
    27    11    10    1
    28    10     9    1
    29     9     8    1
    30     8     7    1
    31     7     6    1
    32     6     5    1
    33     5     4    1
    34     4     3    1
    35     3     2    1
    36     2     1    1
