@<TRIPOS>MOLECULE
1t90_NAD_A_1.pdb
 44 48 0 0 0
SMALL
GASTEIGER

@<TRIPOS>ATOM
      1  PA       104.4090  -31.9190   24.4460 P.3   1490  NAD1490     0.2189
      2  O1A      104.0030  -31.3800   23.1150 O.2   1490  NAD1490    -0.5170
      3  O2A      105.0880  -33.2350   24.6790 O.3   1490  NAD1490    -0.4371
      4  O5B      103.1510  -31.9390   25.4490 O.3   1490  NAD1490    -0.3112
      5  C5B      102.3890  -30.6860   25.6530 C.3   1490  NAD1490     0.1813
      6  C4B      100.9030  -31.0680   25.8110 C.3   1490  NAD1490     0.1821
      7  O4B      100.6260  -31.8950   24.6150 O.3   1490  NAD1490    -0.3135
      8  C3B      100.7410  -31.9680   27.0830 C.3   1490  NAD1490     0.2184
      9  O3B       99.5630  -31.4820   27.8100 O.3   1490  NAD1490    -0.2174
     10  C2B      100.4990  -33.3490   26.4830 C.3   1490  NAD1490     0.2570
     11  O2B       99.6390  -34.1710   27.2020 O.3   1490  NAD1490    -0.2130
     12  C1B      100.0340  -33.1350   25.0240 C.3   1490  NAD1490     0.3186
     13  N9A      100.6040  -34.1130   24.1260 N.pl3 1490  NAD1490    -0.1439
     14  C8A      101.8950  -34.6250   23.9550 C.3   1490  NAD1490     0.3377
     15  N7A      101.9780  -35.5250   22.9860 N.2   1490  NAD1490    -0.2095
     16  C5A      100.7430  -35.6610   22.4590 C.2   1490  NAD1490     0.2526
     17  C6A      100.1940  -36.4870   21.3740 C.2   1490  NAD1490     0.4393
     18  N6A      100.9330  -37.3200   20.6720 N.pl3 1490  NAD1490     0.2180
     19  N1A       98.8330  -36.3220   21.1460 N.2   1490  NAD1490     0.0021
     20  C2A       98.0200  -35.4920   21.8190 C.3   1490  NAD1490     0.5254
     21  N3A       98.4890  -34.6810   22.8580 N.2   1490  NAD1490    -0.0055
     22  C4A       99.8600  -34.7960   23.1470 C.2   1490  NAD1490     0.3518
     23  O3       105.3600  -30.8560   25.1710 O.3   1490  NAD1490    -0.2703
     24  PN       106.1420  -30.8200   26.6240 P.3   1490  NAD1490     0.2189
     25  O1N      107.2950  -31.7510   26.5890 O.2   1490  NAD1490    -0.5170
     26  O2N      105.1110  -31.1150   27.6660 O.3   1490  NAD1490    -0.4371
     27  O5D      106.6880  -29.2890   26.6950 O.3   1490  NAD1490    -0.3112
     28  C5D      107.9770  -28.9240   26.1080 C.3   1490  NAD1490     0.1813
     29  C4D      107.7260  -28.3370   24.7690 C.3   1490  NAD1490     0.1799
     30  O4D      106.7610  -27.2030   24.8920 O.3   1490  NAD1490    -0.3327
     31  C3D      108.9960  -27.7140   24.0830 C.3   1490  NAD1490     0.2158
     32  O3D      109.0550  -28.0650   22.6810 O.3   1490  NAD1490    -0.2175
     33  C2D      108.8110  -26.1960   24.2760 C.3   1490  NAD1490     0.2309
     34  O2D      109.5390  -25.4220   23.3590 O.3   1490  NAD1490    -0.2158
     35  C1D      107.2530  -26.0500   24.1660 C.3   1490  NAD1490     0.2263
     36  N1N      106.7140  -24.7810   24.7740 N.pl3 1490  NAD1490    -0.2787
     37  C2N      106.3670  -23.6310   23.9590 C.3   1490  NAD1490     0.1244
     38  C3N      105.9610  -22.5010   24.5600 C.2   1490  NAD1490     0.0544
     39  C7N      105.6060  -21.2880   23.7200 C.2   1490  NAD1490     0.2818
     40  O7N      104.7420  -20.4860   24.1620 O.2   1490  NAD1490    -0.2670
     41  N7N      106.2220  -21.1060   22.5350 N.am  1490  NAD1490    -0.0839
     42  C4N      105.8520  -22.3970   26.0800 C.2   1490  NAD1490     0.0033
     43  C5N      106.1580  -23.6350   26.8680 C.2   1490  NAD1490     0.0157
     44  C6N      106.6140  -24.7990   26.2070 C.2   1490  NAD1490     0.0633
@<TRIPOS>BOND
     1    18    17    1
     2    19    17    2
     3    19    20    1
     4    17    16    1
     5    20    21    1
     6    16    15    2
     7    16    22    1
     8    41    39   am
     9    32    31    1
    10    21    22    2
    11    15    14    1
    12     2     1    2
    13    22    13    1
    14    34    33    1
    15    39    40    2
    16    39    38    1
    17    14    13    1
    18    37    38    1
    19    37    36    1
    20    31    33    1
    21    31    29    1
    22    13    12    1
    23    35    33    1
    24    35    36    1
    25    35    30    1
    26     1     3    1
    27     1    23    1
    28     1     4    1
    29    38    42    2
    30     7    12    1
    31     7     6    1
    32    29    30    1
    33    29    28    1
    34    36    44    1
    35    12    10    1
    36    23    24    1
    37     4     5    1
    38     5     6    1
    39     6     8    1
    40    42    43    1
    41    28    27    1
    42    44    43    2
    43    10     8    1
    44    10    11    1
    45    25    24    2
    46    24    27    1
    47    24    26    1
    48     8     9    1
