@<TRIPOS>MOLECULE
1t91_GTP_A_1.pdb
 32 34 0 0 0
SMALL
GASTEIGER

@<TRIPOS>ATOM
      1  PG        51.3530   45.4760   71.1570 P.3   1401  GTP1401     0.5373
      2  O1G       51.3690   46.8650   71.5890 O.3   1401  GTP1401    -0.1143
      3  O2G       51.3970   45.2910   69.6760 O.2   1401  GTP1401    -0.2221
      4  O3G       50.1030   44.7950   71.7820 O.3   1401  GTP1401    -0.1143
      5  O3B       52.6980   44.6140   71.8170 O.3   1401  GTP1401    -0.2258
      6  PB        54.2520   45.2090   71.4970 P.3   1401  GTP1401     0.2277
      7  O1B       54.7910   44.6670   70.2160 O.2   1401  GTP1401    -0.5168
      8  O2B       54.3640   46.6720   71.7710 O.3   1401  GTP1401    -0.4368
      9  O3A       55.0750   44.4770   72.6500 O.3   1401  GTP1401    -0.2700
     10  PA        55.6570   45.0830   74.0360 P.3   1401  GTP1401     0.2189
     11  O1A       56.8040   46.1240   73.8010 O.2   1401  GTP1401    -0.5170
     12  O2A       54.5060   45.6410   74.8720 O.3   1401  GTP1401    -0.4371
     13  O5'       56.3460   43.7080   74.6850 O.3   1401  GTP1401    -0.3112
     14  C5'       55.6410   42.5340   74.6730 C.3   1401  GTP1401     0.1813
     15  C4'       56.3270   41.5110   75.6580 C.3   1401  GTP1401     0.1799
     16  O4'       57.4690   41.1820   75.0510 O.3   1401  GTP1401    -0.3326
     17  C3'       56.3320   42.0070   76.8550 C.3   1401  GTP1401     0.2158
     18  O3'       56.1670   40.8210   77.7230 O.3   1401  GTP1401    -0.2175
     19  C2'       57.7610   42.4950   76.8370 C.3   1401  GTP1401     0.2310
     20  O2'       58.3850   42.5590   78.2120 O.3   1401  GTP1401    -0.2158
     21  C1'       58.2540   41.4400   76.2250 C.3   1401  GTP1401     0.2293
     22  N9        59.6930   41.9470   75.5290 N.pl3 1401  GTP1401    -0.2354
     23  C8        59.8460   43.1220   74.8190 C.3   1401  GTP1401     0.2246
     24  N7        61.0770   43.2660   74.3880 N.2   1401  GTP1401    -0.2322
     25  C5        61.7550   42.1460   74.8290 C.2   1401  GTP1401     0.2182
     26  C6        63.1140   41.7580   74.6630 C.1   1401  GTP1401     0.2372
     27  O6        64.0080   42.3710   74.0610 O.2   1401  GTP1401    -0.2069
     28  N1        63.4110   40.5410   75.2660 N.2   1401  GTP1401    -0.2485
     29  C2        62.4850   39.7900   75.9570 C.1   1401  GTP1401     0.2531
     30  N2        62.9170   38.6370   76.4870 N.pl3 1401  GTP1401    -0.0226
     31  N3        61.2110   40.1340   76.1250 N.2   1401  GTP1401    -0.3074
     32  C4        60.9180   41.3190   75.5370 C.2   1401  GTP1401     0.2300
@<TRIPOS>BOND
     1     3     1    2
     2     7     6    2
     3     1     2    1
     4     1     4    1
     5     1     5    1
     6     6     8    1
     7     6     5    1
     8     6     9    1
     9     9    10    1
    10    11    10    2
    11    10    13    1
    12    10    12    1
    13    27    26    2
    14    24    23    1
    15    24    25    2
    16    26    25    1
    17    26    28    2
    18    14    13    1
    19    14    15    1
    20    23    22    1
    21    25    32    1
    22    16    15    1
    23    16    21    1
    24    28    29    2
    25    22    32    1
    26    22    21    1
    27    32    31    2
    28    15    17    1
    29    29    31    2
    30    29    30    1
    31    21    19    1
    32    19    17    1
    33    19    20    1
    34    17    18    1
