@<TRIPOS>MOLECULE
1t93_HEM_A_1.pdb
 43 50 0 0 0
SMALL
GASTEIGER

@<TRIPOS>ATOM
      1  CHA       51.8390   66.2180   57.7780 C.2   430  HEM430      0.0000
      2  CHB       56.4900   67.4040   58.3810 C.2   430  HEM430      0.0000
      3  CHC       57.2240   67.0580   53.6380 C.2   430  HEM430      0.0000
      4  CHD       52.5870   65.8900   53.0090 C.2   430  HEM430      0.0000
      5  C1A       53.0380   66.5520   58.3760 C.2   430  HEM430      0.0000
      6  C2A       53.2680   66.8050   59.8030 C.2   430  HEM430      0.0000
      7  C3A       54.5490   67.1220   59.9520 C.2   430  HEM430      0.0000
      8  C4A       55.1820   67.0970   58.6560 C.2   430  HEM430      0.0000
      9  CMA       55.2730   67.4960   61.2560 C.3   430  HEM430      0.0000
     10  CAA       52.2070   66.7540   60.9260 C.3   430  HEM430      0.0000
     11  CBA       51.6240   65.4220   61.3770 C.3   430  HEM430      0.0000
     12  CGA       50.4040   65.6850   62.2720 C.2   430  HEM430      0.0000
     13  O1A       50.5990   65.4980   63.5110 O.co2 430  HEM430      0.0000
     14  O2A       49.3360   66.0680   61.7670 O.co2 430  HEM430      0.0000
     15  C1B       57.0980   67.4270   57.1610 C.ar  430  HEM430      0.0000
     16  C2B       58.4910   67.8030   56.9370 C.ar  430  HEM430      0.0000
     17  C3B       58.6990   67.7170   55.5800 C.ar  430  HEM430      0.0000
     18  C4B       57.4520   67.2780   54.9860 C.ar  430  HEM430      0.0000
     19  CMB       59.4720   68.2190   58.0520 C.3   430  HEM430      0.0000
     20  CAB       59.9610   68.0080   54.7180 C.3   430  HEM430      0.0000
     21  CBB       61.3370   67.6900   55.3290 C.3   430  HEM430      0.0000
     22  C1C       56.0260   66.6810   53.0530 C.2   430  HEM430      0.0000
     23  C2C       55.8540   66.4780   51.6180 C.2   430  HEM430      0.0000
     24  C3C       54.5690   66.1510   51.4290 C.2   430  HEM430      0.0000
     25  C4C       53.9250   66.1410   52.7380 C.2   430  HEM430      0.0000
     26  CMC       56.9990   66.6400   50.5840 C.3   430  HEM430      0.0000
     27  CAC       53.8320   65.8310   50.1190 C.3   430  HEM430      0.0000
     28  CBC       54.0390   64.4040   49.6090 C.3   430  HEM430      0.0000
     29  C1D       51.9560   65.8830   54.2340 C.ar  430  HEM430      0.0000
     30  C2D       50.5380   65.6330   54.4810 C.ar  430  HEM430      0.0000
     31  C3D       50.3360   65.7120   55.8190 C.ar  430  HEM430      0.0000
     32  C4D       51.6180   66.0260   56.4110 C.ar  430  HEM430      0.0000
     33  CMD       49.4890   65.3390   53.3890 C.3   430  HEM430      0.0000
     34  CAD       48.9960   65.5180   56.5710 C.3   430  HEM430      0.0000
     35  CBD       48.8270   63.9990   56.9360 C.3   430  HEM430      0.0000
     36  CGD       47.5510   63.6730   57.6830 C.2   430  HEM430      0.0000
     37  O1D       47.0050   64.5240   58.4060 O.co2 430  HEM430      0.0000
     38  O2D       47.1340   62.5020   57.5150 O.co2 430  HEM430      0.0000
     39  NA        54.2290   66.7330   57.7000 N.2   430  HEM430      0.0000
     40  NB        56.4810   67.1110   55.9480 N.ar  430  HEM430      0.0000
     41  NC        54.8420   66.4490   53.7120 N.2   430  HEM430      0.0000
     42  ND        52.6120   66.1270   55.4340 N.ar  430  HEM430      0.0000
     43 FE         54.5450   66.5410   55.6950 Fe    430  HEM430      0.0000
@<TRIPOS>BOND
     1    28    27    1
     2    27    24    1
     3    26    23    1
     4    24    23    2
     5    24    25    1
     6    23    22    1
     7    25     4    1
     8    25    41    2
     9     4    29    2
    10    22     3    2
    11    22    41    1
    12    33    30    1
    13     3    18    1
    14    41    43    1
    15    29    30   ar
    16    29    42   ar
    17    30    31   ar
    18    20    21    1
    19    20    17    1
    20    18    17   ar
    21    18    40   ar
    22    42    43    1
    23    42    32   ar
    24    17    16   ar
    25    43    40    1
    26    43    39    1
    27    31    32   ar
    28    31    34    1
    29    40    15   ar
    30    32     1    2
    31    34    35    1
    32    35    36    1
    33    16    15   ar
    34    16    19    1
    35    15     2    1
    36    38    36   ar
    37    36    37   ar
    38    39     5    2
    39    39     8    1
    40     1     5    1
    41     5     6    1
    42     2     8    2
    43     8     7    1
    44     6     7    2
    45     6    10    1
    46     7     9    1
    47    10    11    1
    48    11    12    1
    49    14    12   ar
    50    12    13   ar
