@<TRIPOS>MOLECULE
1t93_FLV_A_1.pdb
 15 16 0 0 0
SMALL
GASTEIGER

@<TRIPOS>ATOM
      1  OAB       49.5360   69.5380   61.9230 O.2   431  FLV431     -0.2831
      2  CAM       50.6960   69.9170   61.7680 C.2   431  FLV431      0.2346
      3  CAN       51.2710   69.9460   60.5000 C.ar  431  FLV431      0.0516
      4  CAH       50.5370   69.5140   59.3980 C.ar  431  FLV431      0.0456
      5  CAI       51.1230   69.4990   58.1360 C.ar  431  FLV431      0.1990
      6  OAC       50.4270   69.0150   57.0710 O.3   431  FLV431     -0.2865
      7  CAF       52.4370   69.9230   57.9740 C.ar  431  FLV431      0.0841
      8  CAK       53.1730   70.3550   59.0750 C.ar  431  FLV431      0.2020
      9  OAE       54.4660   70.7400   58.9030 O.3   431  FLV431     -0.2864
     10  CAO       52.5910   70.3650   60.3400 C.ar  431  FLV431      0.0813
     11  CAL       53.3330   70.7570   61.4530 C.2   431  FLV431      0.2021
     12  OAA       54.4970   71.1340   61.3240 O.2   431  FLV431     -0.2864
     13  CAG       52.7580   70.7270   62.7200 C.2   431  FLV431      0.0875
     14  CAJ       51.4400   70.3070   62.8790 C.2   431  FLV431      0.2374
     15  OAD       50.8780   70.2570   64.1160 O.2   431  FLV431     -0.2830
@<TRIPOS>BOND
     1     6     5    1
     2     7     5   ar
     3     7     8   ar
     4     5     4   ar
     5     9     8    1
     6     8    10   ar
     7     4     3   ar
     8    10     3   ar
     9    10    11    1
    10     3     2    1
    11    12    11    2
    12    11    13    1
    13     2     1    2
    14     2    14    1
    15    13    14    2
    16    14    15    1
