@<TRIPOS>MOLECULE
1t96_PEP_A_1.pdb
 10 9 0 0 0
SMALL
GASTEIGER

@<TRIPOS>ATOM
      1  C1        32.7720   51.8260   22.5250 C.2   1268  PEP1268     0.4216
      2  O1        33.4850   52.4230   23.3810 O.co2 1268  PEP1268    -0.2371
      3  O2'       31.5110   51.8480   22.6790 O.co2 1268  PEP1268    -0.2371
      4  C2        33.3720   51.0940   21.3470 C.2   1268  PEP1268     0.2283
      5  C3        34.6790   50.9570   21.1400 C.2   1268  PEP1268     0.0477
      6  O2        32.3540   50.5700   20.5480 O.2   1268  PEP1268    -0.3930
      7  P         32.4080   49.5780   19.2690 P.3   1268  PEP1268     0.5889
      8  O1P       33.1200   48.2900   19.6450 O.3   1268  PEP1268    -0.1039
      9  O2P       33.1650   50.3570   18.1870 O.2   1268  PEP1268    -0.2114
     10  O3P       30.9450   49.4520   18.9010 O.3   1268  PEP1268    -0.1039
@<TRIPOS>BOND
     1     9     7    2
     2    10     7    1
     3     7     8    1
     4     7     6    1
     5     6     4    1
     6     5     4    2
     7     4     1    1
     8     1     3   ar
     9     1     2   ar
