@<TRIPOS>MOLECULE
1t9a_P23_A_1.pdb
 12 11 0 0 0
SMALL
GASTEIGER

@<TRIPOS>ATOM
      1  C5         1.0060  100.3470   58.1560 C.3   1698  P231698     0.0027
      2  C6         2.4330  100.2300   57.6950 C.3   1698  P231698     0.0325
      3  C7         3.3560   99.1430   57.4040 C.3   1698  P231698     0.1491
      4  O7         4.5090   98.3640   57.9530 O.3   1698  P231698    -0.3138
      5  PA         5.2290   98.3860   59.1080 P.3   1698  P231698     0.2230
      6  O1A        6.2830   97.3890   59.1220 O.2   1698  P231698    -0.5169
      7  O2A        5.8100   99.6490   59.2810 O.3   1698  P231698    -0.4370
      8  O3A        4.2300   98.0980   60.3150 O.3   1698  P231698    -0.2261
      9  PB         3.2820   96.9190   60.7610 P.3   1698  P231698     0.5373
     10  O1B        1.8970   97.3020   60.4940 O.3   1698  P231698    -0.1143
     11  O2B        3.6510   96.7710   62.1220 O.3   1698  P231698    -0.1143
     12  O3B        3.8230   95.7990   59.9330 O.2   1698  P231698    -0.2221
@<TRIPOS>BOND
     1     3     2    1
     2     3     4    1
     3     2     1    1
     4     4     5    1
     5     5     6    2
     6     5     7    1
     7     5     8    1
     8    12     9    2
     9     8     9    1
    10    10     9    1
    11     9    11    1
