@<TRIPOS>MOLECULE
1t9a_1TB_A_1.pdb
 27 28 0 0 0
SMALL
GASTEIGER

@<TRIPOS>ATOM
      1  C4       -12.7700  107.6730   56.1260 C.ar  695  1TB695      0.0014
      2  C5       -11.6210  108.4460   55.7970 C.ar  695  1TB695      0.0003
      3  C6       -10.5810  107.8720   55.0300 C.ar  695  1TB695      0.0078
      4  C1       -10.6840  106.5170   54.5850 C.ar  695  1TB695      0.0945
      5  C2       -11.8710  105.7140   54.9240 C.ar  695  1TB695      0.1334
      6  C3       -12.8920  106.3290   55.6970 C.ar  695  1TB695      0.0205
      7  C11       -9.4960  105.9750   53.7480 C.2   695  1TB695      0.3426
      8  O12       -8.3290  105.6690   54.4750 O.3   695  1TB695     -0.4413
      9  C13       -7.0810  105.8430   53.8810 C.3   695  1TB695      0.2560
     10  O11       -9.5960  105.8070   52.5170 O.2   695  1TB695     -0.2448
     11  S7       -12.0970  103.9810   54.4050 S.O2  695  1TB695      0.0968
     12  N8       -10.8620  103.2080   54.2220 N.am  695  1TB695     -0.0405
     13  C9        -9.8910  102.9250   55.2030 C.2   695  1TB695      0.3577
     14  O7A      -12.9250  103.3000   55.4260 O.2   695  1TB695     -0.1482
     15  O7B      -12.7770  103.9910   53.1170 O.2   695  1TB695     -0.1482
     16  O9       -10.0300  103.3460   56.3640 O.2   695  1TB695     -0.2480
     17  N10       -8.7710  102.1830   54.8380 N.am  695  1TB695     -0.1622
     18  C2'       -7.6980  101.8170   55.6520 C.1   695  1TB695      0.2322
     19  N1'       -6.5860  101.0460   55.1420 N.2   695  1TB695     -0.2640
     20  C6'       -5.5040  100.6880   55.9910 C.1   695  1TB695      0.1422
     21  N5'       -5.5710  101.1160   57.3260 N.2   695  1TB695     -0.2473
     22  C4'       -6.6420  101.8710   57.8740 C.1   695  1TB695      0.3308
     23  N3'       -7.7240  102.2230   57.0010 N.2   695  1TB695     -0.2287
     24  C10       -8.6300  101.7110   53.4740 C.3   695  1TB695      0.1357
     25  O4'       -6.6640  102.2630   59.2180 O.2   695  1TB695     -0.3945
     26  C5'       -5.9290  102.1970   60.4270 C.3   695  1TB695      0.2709
     27  C7'       -4.3280   99.8800   55.4470 C.3   695  1TB695      0.1449
@<TRIPOS>BOND
     1    10     7    2
     2    15    11    2
     3    24    17    1
     4     7     8    1
     5     7     4    1
     6     9     8    1
     7    12    11    1
     8    12    13   am
     9    11     5    1
    10    11    14    2
    11     4     5   ar
    12     4     3   ar
    13    17    13   am
    14    17    18    1
    15     5     6   ar
    16     3     2   ar
    17    19    18    2
    18    19    20    2
    19    13    16    2
    20    27    20    1
    21    18    23    2
    22     6     1   ar
    23     2     1   ar
    24    20    21    2
    25    23    22    2
    26    21    22    2
    27    22    25    1
    28    25    26    1
