@<TRIPOS>MOLECULE
1t9a_YF4_B_1.pdb
 13 13 0 0 0
SMALL
GASTEIGER

@<TRIPOS>ATOM
      1  N1'        3.6150  105.5480   52.5800 N.2   1700  YF41700    -0.1861
      2  C2'        3.7930  106.4150   53.7420 C.1   1700  YF41700     0.0663
      3  CM2        4.9080  107.3900   53.8040 C.3   1700  YF41700     0.1291
      4  N3'        2.9380  106.3540   54.8070 N.2   1700  YF41700    -0.3368
      5  C4'        1.8360  105.4280   54.7960 C.2   1700  YF41700     0.2289
      6  N4'        1.0830  105.4950   55.9260 N.pl3 1700  YF41700    -0.0925
      7  C5'        1.5100  104.4500   53.6400 C.2   1700  YF41700     0.0616
      8  C6'        2.5010  104.5800   52.5150 C.2   1700  YF41700     0.1112
      9  C7'        0.3430  103.4930   53.6490 C.3   1700  YF41700     0.1048
     10  CM4       -1.4040  102.6020   57.3100 C.3   1700  YF41700     0.0188
     11  C4        -0.8180  103.0280   55.9520 C.3   1700  YF41700     0.0725
     12  N3         0.1620  102.6350   54.8160 N.3   1700  YF41700    -0.2676
     13  C2         0.9420  101.4350   54.8020 C.3   1700  YF41700     0.0899
@<TRIPOS>BOND
     1     8     1    1
     2     8     7    2
     3     1     2    2
     4     7     9    1
     5     7     5    1
     6     9    12    1
     7     2     3    1
     8     2     4    2
     9     5     4    2
    10     5     6    1
    11    13    12    1
    12    12    11    1
    13    11    10    1
