@<TRIPOS>MOLECULE
1t9b_P22_A_1.pdb
 11 10 0 0 0
SMALL
GASTEIGER

@<TRIPOS>ATOM
      1  C6        26.3370   36.0990  132.4090 C.3   1702  P221702     0.0351
      2  C7        26.6150   37.1420  131.3280 C.3   1702  P221702     0.1492
      3  O7        27.2900   38.1480  130.8480 O.3   1702  P221702    -0.3138
      4  PA        27.6700   39.3800  131.4560 P.3   1702  P221702     0.2230
      5  O1A       28.4090   40.1820  130.5530 O.2   1702  P221702    -0.5169
      6  O2A       26.4680   40.1030  131.9130 O.3   1702  P221702    -0.4370
      7  O3A       28.5390   39.0370  132.7850 O.3   1702  P221702    -0.2261
      8  PB        29.9320   38.2820  133.0130 P.3   1702  P221702     0.5373
      9  O1B       29.5190   36.8960  133.3910 O.3   1702  P221702    -0.1143
     10  O2B       30.5540   39.1610  134.0410 O.3   1702  P221702    -0.1143
     11  O3B       30.7050   38.3360  131.7560 O.2   1702  P221702    -0.2221
@<TRIPOS>BOND
     1     5     4    2
     2     3     2    1
     3     3     4    1
     4     2     1    1
     5     4     6    1
     6     4     7    1
     7    11     8    2
     8     7     8    1
     9     8     9    1
    10     8    10    1
