@<TRIPOS>MOLECULE
1t9b_1CS_A_1.pdb
 23 24 0 0 0
SMALL
GASTEIGER

@<TRIPOS>ATOM
      1  C5'       25.8790   30.1660  137.7790 C.3   695  1CS695      0.2709
      2  O4'       25.3140   28.8750  137.6340 O.2   695  1CS695     -0.3945
      3  C4'       25.2060   28.2670  136.3270 C.1   695  1CS695      0.3308
      4  N5'       25.6770   28.9940  135.1990 N.2   695  1CS695     -0.2473
      5  C6'       25.5660   28.3690  133.9060 C.1   695  1CS695      0.1423
      6  C7'       26.0370   29.1020  132.7740 C.3   695  1CS695      0.1449
      7  N1'       25.0040   27.0730  133.7460 N.2   695  1CS695     -0.2628
      8  C2'       24.5420   26.3820  134.9240 C.1   695  1CS695      0.2503
      9  N10       24.0020   25.1520  134.8100 N.am  695  1CS695     -0.0679
     10  C9        23.5310   24.4130  135.8380 C.2   695  1CS695      0.3753
     11  O9        23.4920   24.6940  137.0510 O.2   695  1CS695     -0.2463
     12  N8        23.0560   23.2540  135.3240 N.am  695  1CS695     -0.0392
     13  S7        22.3540   22.0450  136.2270 S.O2  695  1CS695      0.0975
     14  O7A       23.1170   21.0510  136.9430 O.2   695  1CS695     -0.1482
     15  O7B       21.6960   21.6790  134.9860 O.2   695  1CS695     -0.1482
     16  C2        20.9380   22.7280  137.0080 C.ar  695  1CS695      0.1377
     17  C3        20.7650   22.1350  138.3120 C.ar  695  1CS695      0.0211
     18  C4        19.6400   22.5470  139.1710 C.ar  695  1CS695      0.0014
     19  C5        18.6960   23.5720  138.6860 C.ar  695  1CS695      0.0009
     20  C6        18.8820   24.1420  137.4030 C.ar  695  1CS695      0.0128
     21  C1        19.9790   23.7430  136.5530 C.ar  695  1CS695      0.0766
     22  N3'       24.6630   27.0110  136.1820 N.2   695  1CS695     -0.2273
     23 CL11       20.1170   24.4860  135.0260 Cl    695  1CS695     -0.0808
@<TRIPOS>BOND
     1     6     5    1
     2     7     5    2
     3     7     8    2
     4     5     4    2
     5     9     8    1
     6     9    10   am
     7     8    22    2
     8    15    13    2
     9    23    21    1
    10     4     3    2
    11    12    10   am
    12    12    13    1
    13    10    11    2
    14    22     3    2
    15    13    14    2
    16    13    16    1
    17     3     2    1
    18    21    16   ar
    19    21    20   ar
    20    16    17   ar
    21    20    19   ar
    22     2     1    1
    23    17    18   ar
    24    19    18   ar
