@<TRIPOS>MOLECULE
1t9b_NSP_A_1.pdb
 10 10 0 0 0
SMALL
GASTEIGER

@<TRIPOS>ATOM
      1  N          0.1400   52.2650  124.2840 N.3   704  NSP704     -0.1260
      2  CA         0.5660   51.0920  124.9790 C.3   704  NSP704      0.1412
      3  CP         1.5640   50.1380  125.0170 C.2   704  NSP704      0.0646
      4  CQ1        2.4290   49.9990  126.1330 C.2   704  NSP704      0.1113
      5  CQ2        1.8030   49.2180  123.9340 C.2   704  NSP704      0.2290
      6  NR1        3.4070   49.0350  126.1190 N.2   704  NSP704     -0.1861
      7  NQ2        1.0170   49.2720  122.8050 N.pl3 704  NSP704     -0.0925
      8  NR2        2.7980   48.2740  123.9770 N.2   704  NSP704     -0.3368
      9  CS         3.6110   48.1730  125.0750 C.1   704  NSP704      0.0663
     10  CS1        4.6210   47.2220  125.1330 C.3   704  NSP704      0.1291
@<TRIPOS>BOND
     1     7     5    1
     2     5     8    2
     3     5     3    1
     4     8     9    2
     5     1     2    1
     6     2     3    1
     7     3     4    2
     8     9    10    1
     9     9     6    2
    10     6     4    1
