@<TRIPOS>MOLECULE
1t9b_P25_B_1.pdb
 14 13 0 0 0
SMALL
GASTEIGER

@<TRIPOS>ATOM
      1  C4         0.0080   52.5270  121.3210 C.3   698  P25698      0.0258
      2  CM4       -1.4280   52.2860  120.7410 C.3   698  P25698      0.0050
      3  C5         0.7950   53.7990  120.9650 C.2   698  P25698     -0.0282
      4  C6         2.2020   54.1690  121.4540 C.2   698  P25698      0.0015
      5  C7         3.0590   55.2810  120.9840 C.3   698  P25698      0.1750
      6  O7         4.1760   56.1640  120.8620 O.3   698  P25698     -0.3089
      7  PA         5.0260   56.1330  119.6790 P.3   698  P25698      0.2233
      8  O1A        6.0260   57.1050  119.8360 O.3   698  P25698     -0.4370
      9  O2A        5.7070   54.9000  119.5070 O.2   698  P25698     -0.5169
     10  O3A        4.1790   56.4950  118.4080 O.3   698  P25698     -0.2261
     11  PB         3.2390   57.6940  118.0020 P.3   698  P25698      0.5373
     12  O1B        1.9260   57.3240  118.3820 O.3   698  P25698     -0.1143
     13  O2B        3.4820   57.8210  116.5800 O.2   698  P25698     -0.2221
     14  O3B        3.8470   58.8460  118.7750 O.3   698  P25698     -0.1143
@<TRIPOS>BOND
     1    13    11    2
     2    11    12    1
     3    11    10    1
     4    11    14    1
     5    10     7    1
     6     9     7    2
     7     7     8    1
     8     7     6    1
     9     2     1    1
    10     6     5    1
    11     3     1    1
    12     3     4    2
    13     5     4    1
