@<TRIPOS>MOLECULE
1t9c_P22_A_1.pdb
 11 10 0 0 0
SMALL
GASTEIGER

@<TRIPOS>ATOM
      1  C6         1.9690  100.3570   57.7450 C.3   1702  P221702     0.0351
      2  C7         2.9810   99.2060   57.4690 C.3   1702  P221702     0.1492
      3  O7         4.2440   98.3530   57.9140 O.3   1702  P221702    -0.3138
      4  PA         5.1790   98.2940   59.0290 P.3   1702  P221702     0.2230
      5  O1A        6.1920   97.2690   58.9020 O.2   1702  P221702    -0.5169
      6  O2A        5.8440   99.5200   59.1810 O.3   1702  P221702    -0.4370
      7  O3A        4.3060   97.9660   60.2890 O.3   1702  P221702    -0.2261
      8  PB         3.3540   96.7870   60.7350 P.3   1702  P221702     0.5373
      9  O1B        2.0070   97.1730   60.3900 O.3   1702  P221702    -0.1143
     10  O2B        3.6500   96.6700   62.1530 O.3   1702  P221702    -0.1143
     11  O3B        3.9100   95.6340   59.9750 O.2   1702  P221702    -0.2221
@<TRIPOS>BOND
     1     2     1    1
     2     2     3    1
     3     3     4    1
     4     5     4    2
     5     4     6    1
     6     4     7    1
     7    11     8    2
     8     7     8    1
     9     9     8    1
    10     8    10    1
