@<TRIPOS>MOLECULE
1t9c_P23_B_1.pdb
 12 11 0 0 0
SMALL
GASTEIGER

@<TRIPOS>ATOM
      1  C5        24.8530  119.6480   46.3990 C.3   700  P23700      0.0341
      2  C6        25.5390  118.4220   46.9440 C.2   700  P23700      0.0146
      3  C7        26.8160  117.7540   47.3630 C.2   700  P23700      0.1741
      4  O7        27.2940  116.4760   47.8990 O.2   700  P23700     -0.4369
      5  PA        27.7150  115.2040   47.3140 P.3   700  P23700      0.2779
      6  O1A       28.4930  114.4820   48.2720 O.3   700  P23700     -0.4271
      7  O2A       26.6140  114.3990   46.9480 O.2   700  P23700     -0.5080
      8  O3A       28.6360  115.4570   46.0430 O.3   700  P23700     -0.2160
      9  PB        29.9820  116.2460   45.7580 P.3   700  P23700      0.5380
     10  O1B       29.6120  117.5920   45.3870 O.3   700  P23700     -0.1143
     11  O2B       30.5710  115.3950   44.7360 O.2   700  P23700     -0.2221
     12  O3B       30.6850  116.1630   47.0460 O.3   700  P23700     -0.1143
@<TRIPOS>BOND
     1    11     9    2
     2    10     9    1
     3     9     8    1
     4     9    12    1
     5     8     5    1
     6     1     2    1
     7     2     3    2
     8     7     5    2
     9     5     4    1
    10     5     6    1
    11     3     4    1
