@<TRIPOS>MOLECULE
1t9c_1SM_A_1.pdb
 25 26 0 0 0
SMALL
GASTEIGER

@<TRIPOS>ATOM
      1  C4       -12.8660  107.3380   55.9010 C.ar  695  1SM695      0.0014
      2  C5       -11.7980  108.2500   55.7610 C.ar  695  1SM695      0.0003
      3  C6       -10.6300  107.8490   55.0720 C.ar  695  1SM695      0.0078
      4  C1       -10.4770  106.5530   54.5040 C.ar  695  1SM695      0.0945
      5  C2       -11.5810  105.6400   54.6600 C.ar  695  1SM695      0.1334
      6  C3       -12.7600  106.0380   55.3530 C.ar  695  1SM695      0.0205
      7  S7       -11.8840  103.9790   54.1660 S.O2  695  1SM695      0.0969
      8  N8       -10.3910  103.1350   54.1050 N.am  695  1SM695     -0.0392
      9  C9        -9.6230  102.9350   55.1820 C.2   695  1SM695      0.3753
     10  N10       -8.5020  102.2530   55.0390 N.am  695  1SM695     -0.0691
     11  C2'       -7.4640  101.8190   55.7180 C.1   695  1SM695      0.2273
     12  N1'       -6.4120  101.0390   55.1420 N.2   695  1SM695     -0.3351
     13  C6'       -5.3270  100.6170   55.9870 C.2   695  1SM695      0.1074
     14  C5'       -5.2460  100.9540   57.4230 C.3   695  1SM695      0.1107
     15  C4'       -6.3700  101.7610   57.9350 C.2   695  1SM695      0.1074
     16  N3'       -7.4550  102.1810   57.0980 N.2   695  1SM695     -0.3351
     17  O7A      -12.8370  103.1690   55.3320 O.2   695  1SM695     -0.1482
     18  O7B      -12.2900  103.9090   52.5130 O.2   695  1SM695     -0.1482
     19  O9        -9.9680  103.3860   56.2970 O.2   695  1SM695     -0.2463
     20  C11       -9.2820  106.0810   53.7790 C.2   695  1SM695      0.3426
     21  O12       -8.0920  105.7920   54.5440 O.3   695  1SM695     -0.4413
     22  C13       -6.9230  105.3350   53.8420 C.3   695  1SM695      0.2560
     23  O11       -9.3340  105.9480   52.5430 O.2   695  1SM695     -0.2448
     24  C8'       -6.3600  102.1370   59.3510 C.3   695  1SM695      0.0630
     25  C7'       -4.2590   99.8180   55.3860 C.3   695  1SM695      0.0630
@<TRIPOS>BOND
     1    18     7    2
     2    23    20    2
     3    20     4    1
     4    20    21    1
     5    22    21    1
     6     8     7    1
     7     8     9   am
     8     7     5    1
     9     7    17    2
    10     4     5   ar
    11     4     3   ar
    12     5     6   ar
    13    10     9   am
    14    10    11    1
    15     3     2   ar
    16    12    11    2
    17    12    13    2
    18     9    19    2
    19     6     1   ar
    20    25    13    1
    21    11    16    2
    22     2     1   ar
    23    13    14    1
    24    16    15    2
    25    14    15    1
    26    15    24    1
