@<TRIPOS>MOLECULE
1t9d_P22_C_1.pdb
 11 10 0 0 0
SMALL
GASTEIGER

@<TRIPOS>ATOM
      1  C6       123.2920   66.9130  133.9970 C.3   3702  P223702     0.0351
      2  C7       124.1230   66.4150  132.8030 C.3   3702  P223702     0.1492
      3  O7       124.5340   64.9180  132.7270 O.3   3702  P223702    -0.3138
      4  PA       125.3270   63.7380  133.2050 P.3   3702  P223702     0.2230
      5  O1A      125.4670   62.6620  132.2230 O.2   3702  P223702    -0.5169
      6  O2A      126.6370   64.1300  133.5730 O.3   3702  P223702    -0.4370
      7  O3A      124.5630   63.1690  134.4600 O.3   3702  P223702    -0.2261
      8  PB       123.1210   62.5700  134.7610 P.3   3702  P223702     0.5373
      9  O1B      122.2500   63.6600  135.1950 O.3   3702  P223702    -0.1143
     10  O2B      123.4590   61.5620  135.7400 O.3   3702  P223702    -0.1143
     11  O3B      122.7720   61.9770  133.4540 O.2   3702  P223702    -0.2221
@<TRIPOS>BOND
     1     5     4    2
     2     3     2    1
     3     3     4    1
     4     2     1    1
     5     4     6    1
     6     4     7    1
     7    11     8    2
     8     7     8    1
     9     8     9    1
    10     8    10    1
