@<TRIPOS>MOLECULE
1t9d_1MM_A_1.pdb
 26 27 0 0 0
SMALL
GASTEIGER

@<TRIPOS>ATOM
      1  C4       139.9070   71.2610   57.2480 C.ar  695  1MM695      0.0014
      2  C5       139.8600   72.6680   57.0830 C.ar  695  1MM695      0.0003
      3  C6       140.8700   73.3530   56.3400 C.ar  695  1MM695      0.0078
      4  C1       141.9690   72.6300   55.7370 C.ar  695  1MM695      0.0945
      5  C2       142.0190   71.1890   55.9060 C.ar  695  1MM695      0.1334
      6  C3       140.9900   70.4610   56.6650 C.ar  695  1MM695      0.0205
      7  S7       143.1580   69.8790   55.3700 S.O2  695  1MM695      0.0969
      8  N8       144.7020   70.5490   55.3890 N.am  695  1MM695     -0.0392
      9  C9       145.2610   71.0420   56.4930 C.2   695  1MM695      0.3753
     10  N10      146.4500   71.4660   56.1740 N.am  695  1MM695     -0.0679
     11  C2'      147.3540   72.0330   56.9470 C.1   695  1MM695      0.2503
     12  N1'      148.6330   72.4200   56.4240 N.2   695  1MM695     -0.2628
     13  C6'      149.6440   73.0370   57.2520 C.1   695  1MM695      0.1423
     14  N5'      149.3400   73.2620   58.6400 N.2   695  1MM695     -0.2473
     15  C4'      148.0330   72.8690   59.1650 C.1   695  1MM695      0.3308
     16  N3'      147.0670   72.2640   58.3190 N.2   695  1MM695     -0.2273
     17  O7A      143.2120   68.8110   56.3460 O.2   695  1MM695     -0.1482
     18  O7B      143.0290   69.5470   53.9860 O.2   695  1MM695     -0.1482
     19  O9       144.6480   71.0470   57.6040 O.2   695  1MM695     -0.2463
     20  C11      143.1110   73.2640   54.9150 C.2   695  1MM695      0.3426
     21  O12      143.8750   74.0490   55.8450 O.3   695  1MM695     -0.4413
     22  C13      145.0030   74.7480   55.3350 C.3   695  1MM695      0.2560
     23  O11      143.2620   73.0650   53.6820 O.2   695  1MM695     -0.2448
     24  O4'      147.7180   73.0780   60.5000 O.2   695  1MM695     -0.3945
     25  C5'      148.3040   73.6110   61.6800 C.3   695  1MM695      0.2709
     26  C7'      150.9950   73.4420   56.6900 C.3   695  1MM695      0.1449
@<TRIPOS>BOND
     1    23    20    2
     2    18     7    2
     3    20     4    1
     4    20    21    1
     5    22    21    1
     6     7     8    1
     7     7     5    1
     8     7    17    2
     9     8     9   am
    10     4     5   ar
    11     4     3   ar
    12     5     6   ar
    13    10     9   am
    14    10    11    1
    15     3     2   ar
    16    12    11    2
    17    12    13    2
    18     9    19    2
    19     6     1   ar
    20    26    13    1
    21    11    16    2
    22     2     1   ar
    23    13    14    2
    24    16    15    2
    25    14    15    2
    26    15    24    1
    27    24    25    1
