@<TRIPOS>MOLECULE
1t9d_P25_A_1.pdb
 14 13 0 0 0
SMALL
GASTEIGER

@<TRIPOS>ATOM
      1  C4       151.8050   77.7770   58.4140 C.3   1698  P251698     0.0048
      2  CM4      150.8410   77.3170   59.4980 C.3   1698  P251698     0.0004
      3  C5       152.9910   78.7650   58.3590 C.3   1698  P251698     0.0293
      4  C6       154.3420   79.0590   59.0750 C.2   1698  P251698     0.0142
      5  C7       155.8020   79.3210   58.7300 C.2   1698  P251698     0.1740
      6  O7       157.1530   79.6230   59.4700 O.2   1698  P251698    -0.4369
      7  PA       157.8180   80.3850   60.4900 P.3   1698  P251698     0.2779
      8  O1A      159.2490   80.5990   60.2900 O.2   1698  P251698    -0.5080
      9  O2A      157.2230   81.6830   60.6180 O.3   1698  P251698    -0.4271
     10  O3A      157.5650   79.5520   61.8050 O.3   1698  P251698    -0.2160
     11  PB       157.9630   78.0840   62.2760 P.3   1698  P251698     0.5380
     12  O1B      156.8890   77.1860   61.8870 O.3   1698  P251698    -0.1143
     13  O2B      158.1780   78.2800   63.6930 O.3   1698  P251698    -0.1143
     14  O3B      159.2510   77.9120   61.5250 O.2   1698  P251698    -0.2221
@<TRIPOS>BOND
     1     3     1    1
     2     3     4    1
     3     1     2    1
     4     5     4    2
     5     5     6    1
     6     6     7    1
     7     8     7    2
     8     7     9    1
     9     7    10    1
    10    14    11    2
    11    10    11    1
    12    12    11    1
    13    11    13    1
