@<TRIPOS>MOLECULE
1t9g_AMP_S_1.pdb
 23 25 0 0 0
SMALL
GASTEIGER

@<TRIPOS>ATOM
      1  P         -5.6030   58.5240   -2.0410 P.3   600  AMP600      0.5327
      2  O1P       -5.8650   58.5460   -3.5240 O.2   600  AMP600     -0.2224
      3  O2P       -6.5530   57.5760   -1.3710 O.3   600  AMP600     -0.1145
      4  O3P       -4.1740   58.2660   -1.6280 O.3   600  AMP600     -0.1145
      5  O5'       -5.9700   60.0100   -1.4600 O.3   600  AMP600     -0.2675
      6  C5'       -4.8550   60.9020   -1.3250 C.3   600  AMP600      0.1860
      7  C4'       -5.2030   62.3370   -0.9520 C.3   600  AMP600      0.1823
      8  O4'       -6.6040   62.5490   -1.0000 O.3   600  AMP600     -0.3135
      9  C3'       -4.7450   62.7050    0.4610 C.3   600  AMP600      0.2184
     10  O3'       -3.4130   63.2710    0.4970 O.3   600  AMP600     -0.2174
     11  C2'       -5.8070   63.6620    0.9590 C.3   600  AMP600      0.2570
     12  O2'       -5.3230   65.0020    0.8060 O.3   600  AMP600     -0.2130
     13  C1'       -7.0350   63.3080    0.1110 C.3   600  AMP600      0.3186
     14  N9        -7.8250   62.3180    0.8860 N.pl3 600  AMP600     -0.1439
     15  C8        -7.8550   60.9640    0.7100 C.3   600  AMP600      0.3377
     16  N7        -8.6710   60.3500    1.6320 N.2   600  AMP600     -0.2095
     17  C5        -9.1860   61.3130    2.4130 C.2   600  AMP600      0.2526
     18  C6       -10.1170   61.3650    3.5790 C.2   600  AMP600      0.4393
     19  N6       -10.6920   60.2470    4.1030 N.pl3 600  AMP600      0.2180
     20  N1       -10.3730   62.5990    4.1040 N.2   600  AMP600      0.0021
     21  C2        -9.8270   63.7380    3.5850 C.3   600  AMP600      0.5254
     22  N3        -8.9800   63.7740    2.5270 N.2   600  AMP600     -0.0055
     23  C4        -8.6290   62.6090    1.9200 C.2   600  AMP600      0.3518
@<TRIPOS>BOND
     1     2     1    2
     2     1     4    1
     3     1     5    1
     4     1     3    1
     5     5     6    1
     6     6     7    1
     7     8     7    1
     8     8    13    1
     9     7     9    1
    10    13    14    1
    11    13    11    1
    12     9    10    1
    13     9    11    1
    14    15    14    1
    15    15    16    1
    16    12    11    1
    17    14    23    1
    18    16    17    2
    19    23    17    1
    20    23    22    2
    21    17    18    1
    22    22    21    1
    23    18    19    1
    24    18    20    2
    25    21    20    1
