@<TRIPOS>MOLECULE
1t9m_FMN_A_1.pdb
 31 33 0 0 0
SMALL
GASTEIGER

@<TRIPOS>ATOM
      1  N1        26.3240   60.6330   75.9590 N.2   250  FMN250     -0.2887
      2  C2        27.2430   61.6630   75.8550 C.1   250  FMN250      0.3669
      3  O2        27.7710   61.8630   74.7880 O.2   250  FMN250     -0.1744
      4  N3        27.4890   62.5300   76.8800 N.2   250  FMN250     -0.2300
      5  C4        26.9140   62.2870   78.1110 C.1   250  FMN250      0.2513
      6  O4        27.0100   63.1240   78.9890 O.2   250  FMN250     -0.2057
      7  C4A       26.0130   61.2550   78.2680 C.2   250  FMN250      0.2706
      8  N5        25.4400   61.0280   79.5030 N.2   250  FMN250     -0.3841
      9  C5A       24.5000   60.0290   79.6240 C.2   250  FMN250      0.1452
     10  C6        23.8850   59.8250   80.8960 C.2   250  FMN250      0.0252
     11  C7        22.9360   58.8110   81.0290 C.2   250  FMN250     -0.0375
     12  C7M       22.0130   58.9080   82.2800 C.3   250  FMN250      0.0268
     13  C8        22.6040   57.9690   79.9290 C.3   250  FMN250      0.0417
     14  C8M       21.3410   57.0640   79.9320 C.3   250  FMN250      0.0091
     15  C9        23.2500   58.1670   78.6920 C.2   250  FMN250     -0.0049
     16  C9A       24.1910   59.2060   78.5590 C.2   250  FMN250      0.0795
     17  N10       24.8530   59.3720   77.3380 N.pl3 250  FMN250     -0.2545
     18  C10       25.7040   60.4360   77.1910 C.2   250  FMN250      0.2449
     19  C1'       24.4930   58.5730   76.1530 C.3   250  FMN250      0.1336
     20  C2'       23.4910   59.3190   75.2930 C.3   250  FMN250      0.2048
     21  O2'       22.1460   59.1620   75.7410 O.3   250  FMN250     -0.2185
     22  C3'       23.5130   58.7890   73.7950 C.3   250  FMN250      0.2165
     23  O3'       23.3070   57.4060   73.6960 O.3   250  FMN250     -0.2175
     24  C4'       24.7670   59.1590   73.0230 C.3   250  FMN250      0.2147
     25  O4'       25.2860   60.4310   73.3830 O.3   250  FMN250     -0.2176
     26  C5'       24.4870   59.1990   71.5230 C.3   250  FMN250      0.1892
     27  O5'       23.4620   60.1450   71.2970 O.3   250  FMN250     -0.2674
     28  P         23.1830   60.5880   69.7610 P.3   250  FMN250      0.5327
     29  O1P       21.7510   61.0270   69.7550 O.3   250  FMN250     -0.1145
     30  O2P       24.1350   61.7330   69.3560 O.3   250  FMN250     -0.1145
     31  O3P       23.2140   59.3240   68.9200 O.2   250  FMN250     -0.2224
@<TRIPOS>BOND
     1    31    28    2
     2    30    28    1
     3    29    28    1
     4    28    27    1
     5    27    26    1
     6    26    24    1
     7    24    25    1
     8    24    22    1
     9    23    22    1
    10    22    20    1
    11     3     2    2
    12    20    21    1
    13    20    19    1
    14     2     1    2
    15     2     4    2
    16     1    18    2
    17    19    17    1
    18     4     5    2
    19    18    17    1
    20    18     7    1
    21    17    16    1
    22     5     7    1
    23     5     6    2
    24     7     8    2
    25    16    15    2
    26    16     9    1
    27    15    13    1
    28     8     9    2
    29     9    10    1
    30    13    14    1
    31    13    11    1
    32    10    11    2
    33    11    12    1
