@<TRIPOS>MOLECULE
1t9s_5GP_A_1.pdb
 24 26 0 0 0
SMALL
GASTEIGER

@<TRIPOS>ATOM
      1  P         36.0150   45.2310   -0.4670 P.3   859  5GP859      0.5327
      2  O1P       34.8530   45.4680   -1.3740 O.2   859  5GP859     -0.2224
      3  O2P       36.0320   43.8070    0.0540 O.3   859  5GP859     -0.1145
      4  O3P       37.2620   45.5100   -1.2180 O.3   859  5GP859     -0.1145
      5  O5'       35.9550   46.2950    0.7320 O.3   859  5GP859     -0.2675
      6  C5'       36.9860   46.3680    1.7040 C.3   859  5GP859      0.1859
      7  C4'       37.8450   47.6270    1.5280 C.3   859  5GP859      0.1801
      8  O4'       38.7620   47.7180    2.6040 O.3   859  5GP859     -0.3326
      9  C3'       38.7070   47.6440    0.2640 C.3   859  5GP859      0.2158
     10  O3'       38.0430   48.1280   -0.8900 O.3   859  5GP859     -0.2175
     11  C2'       39.8550   48.5370    0.6740 C.3   859  5GP859      0.2310
     12  O2'       39.5100   49.9120    0.6190 O.3   859  5GP859     -0.2158
     13  C1'       40.0490   48.0750    2.1090 C.3   859  5GP859      0.2293
     14  N9        40.9320   46.8970    2.0540 N.pl3 859  5GP859     -0.2354
     15  C8        40.7590   45.5560    2.3490 C.3   859  5GP859      0.2246
     16  N7        41.9960   44.9110    2.3580 N.2   859  5GP859     -0.2322
     17  C5        42.8940   45.8980    2.1760 C.2   859  5GP859      0.2182
     18  C6        44.2850   45.8880    2.1840 C.1   859  5GP859      0.2372
     19  O6        44.8960   44.8170    2.3750 O.2   859  5GP859     -0.2069
     20  N1        44.9850   47.0630    1.9580 N.2   859  5GP859     -0.2485
     21  C2        44.3110   48.2560    1.7690 C.1   859  5GP859      0.2531
     22  N2        45.0070   49.3770    1.5600 N.pl3 859  5GP859     -0.0226
     23  N3        42.9270   48.2770    1.7720 N.2   859  5GP859     -0.3074
     24  C4        42.2500   47.0800    1.9830 C.2   859  5GP859      0.2300
@<TRIPOS>BOND
     1     2     1    2
     2     4     1    1
     3    10     9    1
     4     1     3    1
     5     1     5    1
     6     9    11    1
     7     9     7    1
     8    12    11    1
     9    11    13    1
    10     5     6    1
    11     7     6    1
    12     7     8    1
    13    22    21    1
    14    21    23    2
    15    21    20    2
    16    23    24    2
    17    20    18    2
    18    24    14    1
    19    24    17    1
    20    14    13    1
    21    14    15    1
    22    13     8    1
    23    17    18    1
    24    17    16    2
    25    18    19    2
    26    15    16    1
