@<TRIPOS>MOLECULE
1t9u_CPF_A_1.pdb
 24 27 0 0 0
SMALL
GASTEIGER

@<TRIPOS>ATOM
      1  O2        -0.6560   12.8230  120.9160 O.co2 5001  CPF5001    -0.2404
      2  C3         0.2700   12.9800  121.7210 C.2   5001  CPF5001     0.3923
      3  O1         1.3490   13.5760  121.4230 O.co2 5001  CPF5001    -0.2404
      4  C2         0.0850   12.4570  123.1250 C.ar  5001  CPF5001     0.1357
      5  C1        -1.1020   11.8260  123.3770 C.ar  5001  CPF5001     0.0857
      6  N1        -1.4590   11.3160  124.5650 N.ar  5001  CPF5001    -0.3276
      7  C10       -0.6000   11.4520  125.6540 C.ar  5001  CPF5001     0.0643
      8  C9        -0.9670   10.9390  126.9090 C.ar  5001  CPF5001     0.0341
      9  C8        -0.1370   11.0600  128.0170 C.ar  5001  CPF5001     0.0772
     10  N2        -0.5100   10.6080  129.2810 N.pl3 5001  CPF5001    -0.3028
     11  C17       -1.8860   10.1180  129.4310 C.3   5001  CPF5001     0.1097
     12  C16       -2.2690   10.0530  130.8940 C.3   5001  CPF5001     0.1101
     13  N3        -1.2910    9.2140  131.6380 N.3   5001  CPF5001    -0.2144
     14  C15        0.0840    9.7320  131.4900 C.3   5001  CPF5001     0.1101
     15  C14        0.4480    9.7800  130.0270 C.3   5001  CPF5001     0.1097
     16  C7         1.0890   11.7530  127.8050 C.ar  5001  CPF5001     0.1535
     17  F1         1.9060   11.9740  128.8620 F     5001  CPF5001    -0.2029
     18  C6         1.4670   12.2450  126.5960 C.ar  5001  CPF5001     0.0355
     19  C5         0.6280   12.1050  125.4740 C.ar  5001  CPF5001     0.0573
     20  C4         1.0270   12.6190  124.1730 C.ar  5001  CPF5001     0.2049
     21  O3         2.1660   13.1760  124.0700 O.2   5001  CPF5001    -0.2862
     22  C11       -2.7520   10.6810  124.7600 C.3   5001  CPF5001     0.0856
     23  C12       -2.8070    9.1900  124.8230 C.3   5001  CPF5001     0.0245
     24  C13       -3.3760    9.9140  123.6410 C.3   5001  CPF5001     0.0245
@<TRIPOS>BOND
     1     1     2   ar
     2     3     2   ar
     3     2     4    1
     4     4     5   ar
     5     4    20   ar
     6     5     6   ar
     7    24    22    1
     8    24    23    1
     9    21    20    2
    10    20    19   ar
    11     6    22    1
    12     6     7   ar
    13    22    23    1
    14    19     7   ar
    15    19    18   ar
    16     7     8   ar
    17    18    16   ar
    18     8     9   ar
    19    16     9   ar
    20    16    17    1
    21     9    10    1
    22    10    11    1
    23    10    15    1
    24    11    12    1
    25    15    14    1
    26    12    13    1
    27    14    13    1
