@<TRIPOS>MOLECULE
1t9v_RHQ_A_1.pdb
 33 36 0 0 0
SMALL
GASTEIGER

@<TRIPOS>ATOM
      1  C1         9.9290   41.9240  110.1430 C.ar  2002  RHQ2002     0.1405
      2  C2         9.8690   40.7610  111.1160 C.ar  2002  RHQ2002     0.0336
      3  C3        10.4060   40.9650  112.5110 C.ar  2002  RHQ2002     0.0000
      4  C4        10.9930   42.3220  112.8730 C.ar  2002  RHQ2002    -0.0068
      5  C5        11.0530   43.3840  111.8850 C.ar  2002  RHQ2002     0.0643
      6  C6        10.5250   43.2820  110.5070 C.ar  2002  RHQ2002     0.0527
      7  O1         9.4610   41.9050  108.7510 O.3   2002  RHQ2002    -0.4702
      8  C7         8.9140   40.5610  108.3270 C.3   2002  RHQ2002     0.2115
      9  C8         8.8360   39.3130  109.2780 C.2   2002  RHQ2002     0.0214
     10  C9         9.2850   39.2570  110.7500 C.2   2002  RHQ2002     0.0028
     11  C10        8.4730   40.5060  106.9810 C.2   2002  RHQ2002     0.0369
     12  C11        7.9290   39.2350  106.3450 C.2   2002  RHQ2002     0.0608
     13  C12        7.8140   37.9570  107.2290 C.2   2002  RHQ2002    -0.0074
     14  C13        8.2490   37.9880  108.6100 C.2   2002  RHQ2002    -0.0035
     15  N1         7.6330   39.4070  104.9760 N.pl3 2002  RHQ2002    -0.2381
     16  C14        9.5450   37.9350  111.7220 C.ar  2002  RHQ2002     0.0061
     17  C15       10.6650   37.0300  111.3710 C.ar  2002  RHQ2002     0.0002
     18  C16       11.0270   35.7390  112.2130 C.ar  2002  RHQ2002     0.0000
     19  C17       10.2210   35.3570  113.4480 C.ar  2002  RHQ2002     0.0002
     20  C18        9.1190   36.2320  113.8160 C.ar  2002  RHQ2002     0.0064
     21  C19        8.8060   37.4210  113.0220 C.ar  2002  RHQ2002     0.0756
     22  C20        7.2770   36.5720  106.7070 C.3   2002  RHQ2002     0.0324
     23  C21       11.6320   42.6260  114.3280 C.3   2002  RHQ2002     0.0324
     24  C22        6.5750   38.6870  104.0830 C.3   2002  RHQ2002     0.1122
     25  C23        7.2590   37.4410  103.3720 C.3   2002  RHQ2002     0.0251
     26  N2        11.5990   44.7450  111.9300 N.pl3 2002  RHQ2002    -0.2378
     27  C24       12.3040   45.5840  112.9120 C.3   2002  RHQ2002     0.1122
     28  C25       11.5370   46.9860  112.9060 C.3   2002  RHQ2002     0.0251
     29  C26        7.7020   38.0990  113.6080 C.2   2002  RHQ2002     0.3412
     30  O27        7.8540   39.4110  113.7870 O.2   2002  RHQ2002    -0.2449
     31  O2         6.5060   37.2650  113.9500 O.3   2002  RHQ2002    -0.4454
     32  C28        5.2270   37.7220  114.5520 C.3   2002  RHQ2002     0.2089
     33  C29        5.0760   39.2520  114.4730 C.3   2002  RHQ2002     0.0513
@<TRIPOS>BOND
     1    25    24    1
     2    24    15    1
     3    15    12    1
     4    12    11    2
     5    12    13    1
     6    22    13    1
     7    11     8    1
     8    13    14    2
     9     8     7    1
    10     8     9    1
    11    14     9    1
    12     7     1    1
    13     9    10    2
    14     1     6   ar
    15     1     2   ar
    16     6     5   ar
    17    10     2    1
    18    10    16    1
    19     2     3   ar
    20    17    16   ar
    21    17    18   ar
    22    16    21   ar
    23     5    26    1
    24     5     4   ar
    25    26    27    1
    26    18    19   ar
    27     3     4   ar
    28     4    23    1
    29    28    27    1
    30    21    29    1
    31    21    20   ar
    32    19    20   ar
    33    29    30    2
    34    29    31    1
    35    31    32    1
    36    33    32    1
