@<TRIPOS>MOLECULE
1t9w_NFN_A_1.pdb
 29 32 0 0 0
SMALL
GASTEIGER

@<TRIPOS>ATOM
      1  O1        -1.6670   11.2160  129.8060 O.3   6001  NFN6001    -0.4753
      2  C4         2.0250   11.4620  129.5260 C.ar  6001  NFN6001     0.0031
      3  C3         0.7400   11.3910  130.0680 C.ar  6001  NFN6001     0.0370
      4  C10        2.2470   11.4310  128.1500 C.ar  6001  NFN6001     0.0003
      5  C2        -0.4040   11.2840  129.2650 C.ar  6001  NFN6001     0.1429
      6  C9         1.0800   11.3170  127.1770 C.ar  6001  NFN6001     0.0074
      7  C1        -0.2850   11.2470  127.7800 C.ar  6001  NFN6001     0.0889
      8  C5         3.5520   11.5050  127.6330 C.ar  6001  NFN6001     0.0000
      9  C6         3.4960   11.4540  126.2630 C.ar  6001  NFN6001     0.0000
     10  C7         2.5900   11.3570  125.2370 C.ar  6001  NFN6001     0.0000
     11  C8         1.2840   11.2820  125.7620 C.ar  6001  NFN6001     0.0002
     12  O3        -3.3030   10.4200  123.4380 O.2   6001  NFN6001    -0.2729
     13  C14       -2.3660   11.1600  123.6800 C.2   6001  NFN6001     0.2491
     14  N2        -1.4900   11.8350  122.9160 N.am  6001  NFN6001    -0.2594
     15  C16       -0.9220   12.0320  121.6010 C.3   6001  NFN6001     0.1888
     16  C21       -2.0350   12.3660  120.6490 C.2   6001  NFN6001     0.3833
     17  O4        -2.7460   13.3720  120.8680 O.co2 6001  NFN6001    -0.2438
     18  O5        -2.2370   11.6010  119.6790 O.co2 6001  NFN6001    -0.2438
     19  C15        0.2210   13.1090  121.8150 C.3   6001  NFN6001     0.0681
     20  C19        1.5710   12.4510  121.5110 C.3   6001  NFN6001     0.0131
     21  C20        0.0830   14.4120  121.0270 C.3   6001  NFN6001     0.0131
     22  S1         0.3580   13.5970  123.5330 S.3   6001  NFN6001    -0.1184
     23  C13       -1.1220   12.7780  123.8780 C.3   6001  NFN6001     0.1529
     24  C12       -2.0630   12.0860  124.8550 C.3   6001  NFN6001     0.1998
     25  N1        -2.0350   12.1760  126.2960 N.am  6001  NFN6001    -0.1913
     26  C11       -1.5470   11.1280  126.9640 C.2   6001  NFN6001     0.2682
     27  O2        -2.1150   10.0480  126.9280 O.2   6001  NFN6001    -0.2682
     28  C17       -1.9200   11.0550  131.2020 C.3   6001  NFN6001     0.2055
     29  C18       -3.4140   10.9860  131.4460 C.3   6001  NFN6001     0.0512
@<TRIPOS>BOND
     1    18    16   ar
     2    16    17   ar
     3    16    15    1
     4    21    19    1
     5    20    19    1
     6    15    19    1
     7    15    14    1
     8    19    22    1
     9    14    13   am
    10    14    23    1
    11    12    13    2
    12    22    23    1
    13    13    24    1
    14    23    24    1
    15    24    25    1
    16    10    11   ar
    17    10     9   ar
    18    11     6   ar
    19     9     8   ar
    20    25    26   am
    21    27    26    2
    22    26     7    1
    23     6     7   ar
    24     6     4   ar
    25     8     4   ar
    26     7     5   ar
    27     4     2   ar
    28     5     1    1
    29     5     3   ar
    30     2     3   ar
    31     1    28    1
    32    28    29    1
