@<TRIPOS>MOLECULE
1t9x_ET_A_1.pdb
 24 27 0 0 0
SMALL
GASTEIGER

@<TRIPOS>ATOM
      1  C1         6.8710   39.9490  101.9330 C.3   3002  ET3002      0.0550
      2  C2         5.9990   40.9790  101.5660 C.2   3002  ET3002     -0.0033
      3  C3         5.3740   41.8140  102.5530 C.2   3002  ET3002      0.0864
      4  C4         5.6710   41.5890  103.9470 C.2   3002  ET3002      0.0322
      5  N5         6.8730   40.2400  105.7810 N.pl3 3002  ET3002     -0.2871
      6  C6         7.8480   39.0630  106.2260 C.2   3002  ET3002      0.0515
      7  C7         9.2990   37.2350  105.5790 C.ar  3002  ET3002      0.0193
      8  C8         9.9410   36.3850  104.6530 C.ar  3002  ET3002      0.0891
      9  C9         9.6740   36.6420  103.2860 C.ar  3002  ET3002      0.0180
     10  C10        8.7940   37.6570  102.8460 C.ar  3002  ET3002      0.0012
     11  C11        8.3810   38.3270  105.1910 C.ar  3002  ET3002      0.0147
     12  C12        8.1210   38.5590  103.7550 C.ar  3002  ET3002     -0.0012
     13  C13        7.1840   39.6490  103.3580 C.2   3002  ET3002     -0.0040
     14  C14        6.5970   40.4890  104.3820 C.2   3002  ET3002      0.0492
     15  C15        8.1250   38.7760  107.7430 C.ar  3002  ET3002      0.0136
     16  C16        9.1910   39.4920  108.4800 C.ar  3002  ET3002      0.0012
     17  C17        9.4990   39.2290  109.8470 C.ar  3002  ET3002      0.0000
     18  C18        8.8000   38.2570  110.5900 C.ar  3002  ET3002      0.0000
     19  C19        7.7650   37.5180  109.9480 C.ar  3002  ET3002      0.0000
     20  C20        7.4380   37.7680  108.5800 C.ar  3002  ET3002      0.0012
     21  C21        6.3190   41.0440  106.9120 C.3   3002  ET3002      0.0956
     22  C22        7.2960   42.1560  107.3690 C.3   3002  ET3002      0.0236
     23  N23        4.5360   42.8320  102.1280 N.pl3 3002  ET3002     -0.1283
     24  N24       10.8150   35.3320  105.0520 N.pl3 3002  ET3002     -0.1281
@<TRIPOS>BOND
     1     2     1    1
     2     2     3    2
     3     1    13    1
     4    23     3    1
     5     3     4    1
     6    10     9   ar
     7    10    12   ar
     8     9     8   ar
     9    13    12    2
    10    13    14    1
    11    12    11   ar
    12     4    14    2
    13    14     5    1
    14     8    24    1
    15     8     7   ar
    16    11     7   ar
    17    11     6    2
    18     5     6    1
    19     5    21    1
    20     6    15    1
    21    21    22    1
    22    15    16   ar
    23    15    20   ar
    24    16    17   ar
    25    20    19   ar
    26    17    18   ar
    27    19    18   ar
