@<TRIPOS>MOLECULE
1t9y_MC2_A_1.pdb
 33 35 0 0 0
SMALL
GASTEIGER

@<TRIPOS>ATOM
      1  O2         2.7690    2.0980  128.5990 O.2   7001  MC27001    -0.2711
      2  C11        2.9500    2.9500  129.4550 C.2   7001  MC27001     0.2654
      3  N6         4.0820    3.6410  129.5860 N.am  7001  MC27001    -0.1778
      4  C19        4.8780    3.8950  128.5050 C.ar  7001  MC27001     0.0734
      5  C21        4.8350    3.1950  127.2840 C.ar  7001  MC27001     0.0166
      6  C20        5.6640    3.5670  126.2270 C.ar  7001  MC27001     0.0013
      7  C25        5.6600    2.8820  125.0160 C.ar  7001  MC27001     0.0000
      8  C24        6.5090    3.2900  123.9820 C.ar  7001  MC27001     0.0000
      9  C23        7.3700    4.3800  124.1410 C.ar  7001  MC27001     0.0000
     10  C18        6.5770    4.7200  126.3900 C.ar  7001  MC27001     0.0001
     11  C22        7.4080    5.0950  125.3380 C.ar  7001  MC27001     0.0000
     12  C17        5.7330    4.9960  128.6320 C.ar  7001  MC27001     0.0166
     13  C16        6.5760    5.3970  127.5990 C.ar  7001  MC27001     0.0013
     14  C10        1.7310    3.4100  130.2090 C.3   7001  MC27001     0.1732
     15  C12        1.1060    4.4350  129.2460 C.3   7001  MC27001     0.0348
     16  C13        1.9190    5.7330  129.1720 C.3   7001  MC27001     0.0492
     17  C14        1.0450    6.9790  129.2410 C.3   7001  MC27001     0.2205
     18  N3         1.8380    8.1720  129.4860 N.pl3 7001  MC27001    -0.0865
     19  C15        1.3110    9.3920  129.6240 C.cat 7001  MC27001     0.5346
     20  N5        -0.0080    9.6080  129.5370 N.pl3 7001  MC27001     0.1354
     21  N4         2.0880   10.3630  129.8460 N.pl3 7001  MC27001     0.1354
     22  N2         1.8910    4.0220  131.5270 N.am  7001  MC27001    -0.1965
     23  C2         0.8160    4.4070  132.2300 C.2   7001  MC27001     0.2595
     24  O1        -0.3270    4.1890  131.8530 O.2   7001  MC27001    -0.2718
     25  C1         1.0480    5.1770  133.5030 C.3   7001  MC27001     0.1736
     26  N1         1.7730    6.3920  133.1810 N.3   7001  MC27001    -0.1227
     27  C3        -0.2840    5.5510  134.1660 C.3   7001  MC27001     0.0547
     28  C4        -0.2050    5.5500  135.6780 C.ar  7001  MC27001    -0.0202
     29  C5        -0.5060    6.7090  136.3940 C.ar  7001  MC27001    -0.0042
     30  C7        -0.4420    6.7050  137.7860 C.ar  7001  MC27001    -0.0003
     31  C9        -0.0840    5.5420  138.4650 C.ar  7001  MC27001    -0.0000
     32  C8         0.2110    4.3820  137.7500 C.ar  7001  MC27001    -0.0003
     33  C6         0.1450    4.3850  136.3590 C.ar  7001  MC27001    -0.0042
@<TRIPOS>BOND
     1     8     9   ar
     2     8     7   ar
     3     9    11   ar
     4     7     6   ar
     5    11    10   ar
     6     6    10   ar
     7     6     5   ar
     8    10    13   ar
     9     5     4   ar
    10    13    12   ar
    11     4    12   ar
    12     4     3    1
    13     1     2    2
    14    16    17    1
    15    16    15    1
    16    17    18    1
    17    15    14    1
    18     2     3   am
    19     2    14    1
    20    18    19    2
    21    20    19    1
    22    19    21    1
    23    14    22    1
    24    22    23   am
    25    24    23    2
    26    23    25    1
    27    26    25    1
    28    25    27    1
    29    27    28    1
    30    28    33   ar
    31    28    29   ar
    32    33    32   ar
    33    29    30   ar
    34    32    31   ar
    35    30    31   ar
