@<TRIPOS>MOLECULE
1ta2_176_A_1.pdb
 34 37 0 0 0
SMALL
GASTEIGER

@<TRIPOS>ATOM
      1  CD1       20.2020  -15.8250   24.1330 C.ar  401  176401     -0.0039
      2  CE1       21.4950  -15.3760   24.3010 C.ar  401  176401     -0.0003
      3  CZ1       21.8120  -14.5240   25.3310 C.ar  401  176401     -0.0000
      4  CE2       20.8240  -14.1130   26.1900 C.ar  401  176401     -0.0003
      5  CD2       19.5340  -14.5620   26.0220 C.ar  401  176401     -0.0039
      6  CG1       19.2120  -15.4260   24.9960 C.ar  401  176401     -0.0165
      7  CB0       17.7760  -15.9630   24.8830 C.3   401  176401      0.0710
      8  CA0       17.1550  -16.1010   23.4550 C.3   401  176401      0.1758
      9  C0        16.8700  -14.7370   22.8670 C.2   401  176401      0.2441
     10  O0        15.9140  -14.0630   23.2910 O.2   401  176401     -0.2733
     11  N0        15.8660  -16.7580   23.5030 N.3   401  176401     -0.1224
     12  CG2       17.6640  -17.2060   25.7530 C.ar  401  176401     -0.0165
     13  CD3       17.8350  -18.4740   25.2130 C.ar  401  176401     -0.0039
     14  CE3       17.7410  -19.5790   26.0350 C.ar  401  176401     -0.0003
     15  CZ2       17.4820  -19.4190   27.3820 C.ar  401  176401     -0.0000
     16  CE4       17.3150  -18.1500   27.9110 C.ar  401  176401     -0.0003
     17  CD4       17.4020  -17.0370   27.1040 C.ar  401  176401     -0.0039
     18  N         17.6840  -14.2690   21.9030 N.am  401  176401     -0.2718
     19  CA        17.4520  -13.0160   21.1990 C.3   401  176401      0.1535
     20  C         16.0260  -12.8260   20.6590 C.2   401  176401      0.2598
     21  O         15.6730  -13.4810   19.6730 O.2   401  176401     -0.2715
     22  CB        18.5290  -13.0280   20.1110 C.3   401  176401      0.0310
     23  CG        19.6380  -13.8030   20.7460 C.3   401  176401      0.0237
     24  CD        18.8430  -14.9480   21.3240 C.3   401  176401      0.0939
     25  N'        15.2430  -11.8970   21.2410 N.am  401  176401     -0.1991
     26  CA'       13.8920  -11.6010   20.8080 C.3   401  176401      0.1424
     27  CB'       12.9150  -11.5570   21.9770 C.ar  401  176401      0.0109
     28  CG'       12.0460  -12.5690   22.2790 C.ar  401  176401      0.0554
     29  CD'       11.1370  -12.5980   23.3220 C.ar  401  176401      0.0120
     30  CE'       11.0810  -11.5020   24.1630 C.ar  401  176401      0.0122
     31  CDB       11.9440  -10.4620   23.8820 C.ar  401  176401      0.0575
     32  CGB       12.8300  -10.4940   22.8240 C.ar  401  176401      0.0097
     33 CL1        12.0890  -13.8950   21.2070 Cl    401  176401     -0.0825
     34 CL2        11.9280   -9.0600   24.8550 Cl    401  176401     -0.0823
@<TRIPOS>BOND
     1    21    20    2
     2    22    23    1
     3    22    19    1
     4    20    19    1
     5    20    25   am
     6    23    24    1
     7    26    25    1
     8    26    27    1
     9    19    18    1
    10    33    28    1
    11    24    18    1
    12    18     9   am
    13    27    28   ar
    14    27    32   ar
    15    28    29   ar
    16    32    31   ar
    17     9    10    2
    18     9     8    1
    19    29    30   ar
    20     8    11    1
    21     8     7    1
    22    31    30   ar
    23    31    34    1
    24     1     2   ar
    25     1     6   ar
    26     2     3   ar
    27     7     6    1
    28     7    12    1
    29     6     5   ar
    30    13    12   ar
    31    13    14   ar
    32     3     4   ar
    33    12    17   ar
    34     5     4   ar
    35    14    15   ar
    36    17    16   ar
    37    15    16   ar
