@<TRIPOS>MOLECULE
1ta6_177_A_1.pdb
 33 35 0 0 0
SMALL
GASTEIGER

@<TRIPOS>ATOM
      1  N0        16.5390  -16.7740   23.3160 N.3   401  177401     -0.1231
      2  CA0       17.6790  -15.8310   23.1550 C.3   401  177401      0.1678
      3  CB0       18.3540  -15.5110   24.5110 C.3   401  177401      0.0265
      4  CG1       19.6950  -14.8060   24.2940 C.3   401  177401      0.0019
      5  CD1       20.3820  -14.4750   25.5970 C.3   401  177401      0.0001
      6  CE0       20.5600  -15.7250   26.4480 C.3   401  177401      0.0000
      7  CD2       19.2390  -16.4650   26.6590 C.3   401  177401      0.0001
      8  CG2       18.6080  -16.7810   25.3240 C.3   401  177401      0.0019
      9  C0        17.1190  -14.5420   22.5670 C.2   401  177401      0.2434
     10  O0        16.0610  -14.0490   23.0210 O.2   401  177401     -0.2733
     11  N         17.7960  -13.9860   21.5400 N.am  401  177401     -0.2718
     12  CA        17.3940  -12.7490   20.8620 C.3   401  177401      0.1535
     13  C         15.8980  -12.7300   20.5530 C.2   401  177401      0.2598
     14  O         15.3430  -13.7480   20.1180 O.2   401  177401     -0.2715
     15  CB        18.2040  -12.8090   19.5720 C.3   401  177401      0.0310
     16  CG        19.4760  -13.4040   20.0290 C.3   401  177401      0.0237
     17  CD        18.9950  -14.5580   20.8960 C.3   401  177401      0.0939
     18  N'        15.2450  -11.6060   20.8350 N.am  401  177401     -0.1991
     19  CA'       13.8170  -11.4050   20.6020 C.3   401  177401      0.1445
     20  CB'       13.0030  -11.4100   21.8720 C.ar  401  177401      0.0343
     21  CG'       12.1660  -12.4880   22.1520 C.ar  401  177401      0.1370
     22  CD'       11.2890  -12.4260   23.2580 C.ar  401  177401      0.0375
     23  CE'       11.2650  -11.3160   24.0760 C.ar  401  177401      0.0145
     24  CDB       12.1010  -10.2150   23.8200 C.ar  401  177401      0.0576
     25  CGB       12.9630  -10.2770   22.7080 C.ar  401  177401      0.0118
     26 CL         12.0610   -8.8120   24.7990 Cl    401  177401     -0.0823
     27  OL        12.4020  -13.6620   21.4670 O.3   401  177401     -0.4658
     28  CF        12.9340  -14.7070   22.2930 C.3   401  177401      0.2911
     29  CH        12.7020  -16.0660   21.6720 C.2   401  177401      0.2859
     30  OH        12.6950  -17.0820   22.3680 O.2   401  177401     -0.2693
     31  N2        12.5300  -16.0900   20.3550 N.am  401  177401     -0.2023
     32  CM        12.2590  -17.3040   19.5830 C.3   401  177401      0.1153
     33  CN        10.8600  -17.8440   19.8860 C.3   401  177401      0.0253
@<TRIPOS>BOND
     1    15    16    1
     2    15    12    1
     3    32    33    1
     4    32    31    1
     5    16    17    1
     6    14    13    2
     7    31    29   am
     8    13    18   am
     9    13    12    1
    10    19    18    1
    11    19    20    1
    12    12    11    1
    13    17    11    1
    14    27    21    1
    15    27    28    1
    16    11     9   am
    17    29    28    1
    18    29    30    2
    19    20    21   ar
    20    20    25   ar
    21    21    22   ar
    22     9    10    2
    23     9     2    1
    24    25    24   ar
    25     2     1    1
    26     2     3    1
    27    22    23   ar
    28    24    23   ar
    29    24    26    1
    30     4     3    1
    31     4     5    1
    32     3     8    1
    33     8     7    1
    34     5     6    1
    35     6     7    1
