@<TRIPOS>MOLECULE
1ta8_NMN_A_1.pdb
 22 23 0 0 0
SMALL
GASTEIGER

@<TRIPOS>ATOM
      1  O3P       11.0780   33.2420   24.7040 O.3   401  NMN401     -0.1145
      2  P          9.7030   33.9530   24.9850 P.3   401  NMN401      0.5327
      3  O1P        9.5350   35.0970   24.0790 O.2   401  NMN401     -0.2224
      4  O2P        9.6920   34.2610   26.4340 O.3   401  NMN401     -0.1145
      5  O5R        8.6240   32.8490   24.5880 O.3   401  NMN401     -0.2675
      6  C5R        8.8130   31.4380   24.9870 C.3   401  NMN401      0.1859
      7  C4R        7.4540   30.7770   25.1900 C.3   401  NMN401      0.1801
      8  O4R        6.7550   31.3860   26.3070 O.3   401  NMN401     -0.3327
      9  C3R        6.4480   30.8650   23.9840 C.3   401  NMN401      0.2158
     10  O3R        5.7700   29.6100   23.7940 O.3   401  NMN401     -0.2175
     11  C2R        5.5110   31.9690   24.4000 C.3   401  NMN401      0.2309
     12  O2R        4.2290   31.8990   23.7900 O.3   401  NMN401     -0.2158
     13  C1R        5.4220   31.7960   25.8620 C.3   401  NMN401      0.2263
     14  N1         5.0750   33.0400   26.5890 N.pl3 401  NMN401     -0.2787
     15  C2         3.7360   33.3280   26.9360 C.3   401  NMN401      0.1244
     16  C3         3.4650   34.5160   27.5920 C.2   401  NMN401      0.0544
     17  C7         2.0140   34.8270   27.9590 C.2   401  NMN401      0.2818
     18  O7         1.8220   35.8760   28.5120 O.2   401  NMN401     -0.2670
     19  N7         1.0460   33.9900   27.6710 N.am  401  NMN401     -0.0839
     20  C4         4.5280   35.4690   27.9270 C.2   401  NMN401      0.0033
     21  C5         5.8640   35.1380   27.5580 C.2   401  NMN401      0.0157
     22  C6         6.1650   33.9260   26.8840 C.2   401  NMN401      0.0633
@<TRIPOS>BOND
     1    12    11    1
     2    10     9    1
     3     9    11    1
     4     9     7    1
     5     3     2    2
     6    11    13    1
     7     5     2    1
     8     5     6    1
     9     1     2    1
    10     2     4    1
    11     6     7    1
    12     7     8    1
    13    13     8    1
    14    13    14    1
    15    14    22    1
    16    14    15    1
    17    22    21    2
    18    15    16    1
    19    21    20    1
    20    16    20    2
    21    16    17    1
    22    19    17   am
    23    17    18    2
