@<TRIPOS>MOLECULE
1tad_GDP_A_1.pdb
 28 30 0 0 0
SMALL
GASTEIGER

@<TRIPOS>ATOM
      1  PB        10.2070   85.4920   37.3140 P.3   351  GDP351      0.5373
      2  O1B       11.4740   86.2240   37.2390 O.2   351  GDP351     -0.2221
      3  O2B       10.2140   84.0810   37.7170 O.3   351  GDP351     -0.1143
      4  O3B        9.2360   86.2990   38.2150 O.3   351  GDP351     -0.1143
      5  O3A        9.4670   85.5620   35.8850 O.3   351  GDP351     -0.2261
      6  PA         8.8770   84.3580   34.9920 P.3   351  GDP351      0.2231
      7  O1A        9.9390   83.3460   34.7330 O.2   351  GDP351     -0.5169
      8  O2A        7.5860   83.9430   35.5340 O.3   351  GDP351     -0.4370
      9  O5'        8.6540   85.2120   33.6290 O.3   351  GDP351     -0.3111
     10  C5'        7.5350   86.1070   33.5190 C.3   351  GDP351      0.1813
     11  C4'        6.8510   85.9270   32.1600 C.3   351  GDP351      0.1799
     12  O4'        7.8090   86.2370   31.1530 O.3   351  GDP351     -0.3326
     13  C3'        6.3880   84.4970   31.8840 C.3   351  GDP351      0.2158
     14  O3'        5.0840   84.5390   31.3550 O.3   351  GDP351     -0.2175
     15  C2'        7.4020   83.9310   30.8810 C.3   351  GDP351      0.2310
     16  O2'        6.9130   82.9380   29.9550 O.3   351  GDP351     -0.2158
     17  C1'        7.8700   85.1890   30.1850 C.3   351  GDP351      0.2293
     18  N9         9.2580   85.0750   29.7200 N.pl3 351  GDP351     -0.2354
     19  C8        10.3980   84.8100   30.4210 C.3   351  GDP351      0.2246
     20  N7        11.5010   84.9090   29.7580 N.2   351  GDP351     -0.2322
     21  C5        11.0630   85.2720   28.4840 C.2   351  GDP351      0.2182
     22  C6        11.8210   85.5380   27.2970 C.1   351  GDP351      0.2372
     23  O6        13.0390   85.4940   27.1410 O.2   351  GDP351     -0.2069
     24  N1        10.9890   85.8850   26.2280 N.2   351  GDP351     -0.2485
     25  C2         9.6100   85.9560   26.2760 C.1   351  GDP351      0.2531
     26  N2         8.9940   86.2900   25.1430 N.pl3 351  GDP351     -0.0226
     27  N3         8.8930   85.7090   27.3820 N.2   351  GDP351     -0.3074
     28  C4         9.6870   85.3770   28.4460 C.2   351  GDP351      0.2300
@<TRIPOS>BOND
     1    26    25    1
     2    24    25    2
     3    24    22    2
     4    25    27    2
     5    23    22    2
     6    22    21    1
     7    27    28    2
     8    28    21    1
     9    28    18    1
    10    21    20    2
    11    18    17    1
    12    18    19    1
    13    20    19    1
    14    16    15    1
    15    17    15    1
    16    17    12    1
    17    15    13    1
    18    12    11    1
    19    14    13    1
    20    13    11    1
    21    11    10    1
    22    10     9    1
    23     9     6    1
    24     7     6    2
    25     6     8    1
    26     6     5    1
    27     5     1    1
    28     2     1    2
    29     1     3    1
    30     1     4    1
