@<TRIPOS>MOLECULE
1tae_NAD_A_1.pdb
 44 48 0 0 0
SMALL
GASTEIGER

@<TRIPOS>ATOM
      1  PA        -8.8820   62.0310   33.4510 P.3   401  NAD401      0.2189
      2  O1A       -7.8730   60.8490   33.8660 O.2   401  NAD401     -0.5170
      3  O2A       -9.4100   62.8200   34.5660 O.3   401  NAD401     -0.4371
      4  O5B       -9.8320   61.3790   32.6280 O.3   401  NAD401     -0.3112
      5  C5B      -11.2080   61.0730   32.2750 C.3   401  NAD401      0.1813
      6  C4B      -11.3600   60.1210   31.1180 C.3   401  NAD401      0.1821
      7  O4B      -11.7230   58.8340   31.6790 O.3   401  NAD401     -0.3135
      8  C3B      -12.4450   60.4090   30.0940 C.3   401  NAD401      0.2184
      9  O3B      -11.8020   61.0930   28.9930 O.3   401  NAD401     -0.2174
     10  C2B      -13.0010   59.0270   29.7650 C.3   401  NAD401      0.2570
     11  O2B      -12.4890   58.4850   28.5490 O.3   401  NAD401     -0.2130
     12  C1B      -12.6530   58.1120   30.9260 C.3   401  NAD401      0.3186
     13  N9A      -13.8070   57.4490   31.6870 N.pl3 401  NAD401     -0.1439
     14  C8A      -13.7540   56.1690   32.1370 C.3   401  NAD401      0.3377
     15  N7A      -14.8540   55.7600   32.7630 N.2   401  NAD401     -0.2095
     16  C5A      -15.6610   56.8360   32.7120 C.2   401  NAD401      0.2526
     17  C6A      -17.0090   57.0360   33.2120 C.2   401  NAD401      0.4393
     18  N6A      -17.7080   56.1580   33.8340 N.pl3 401  NAD401      0.2180
     19  N1A      -17.5360   58.3060   32.9660 N.2   401  NAD401      0.0021
     20  C2A      -16.8300   59.3150   32.2920 C.3   401  NAD401      0.5254
     21  N3A      -15.5760   59.1370   31.8230 N.2   401  NAD401     -0.0055
     22  C4A      -15.0380   57.9150   32.0470 C.2   401  NAD401      0.3518
     23  O3        -8.0290   62.8410   32.3600 O.3   401  NAD401     -0.2703
     24  PN        -7.5290   62.2670   30.9620 P.3   401  NAD401      0.2189
     25  O1N       -8.1180   63.3170   29.9160 O.2   401  NAD401     -0.5170
     26  O2N       -7.9150   60.8470   30.5840 O.3   401  NAD401     -0.4371
     27  O5D       -5.9320   62.5970   30.8240 O.3   401  NAD401     -0.3112
     28  C5D       -5.4560   62.5320   32.1850 C.3   401  NAD401      0.1813
     29  C4D       -4.6990   61.2160   32.4080 C.3   401  NAD401      0.1799
     30  O4D       -3.5580   61.0490   31.5050 O.3   401  NAD401     -0.3327
     31  C3D       -4.0840   61.0050   33.8410 C.3   401  NAD401      0.2158
     32  O3D       -4.2740   59.6480   34.3240 O.3   401  NAD401     -0.2175
     33  C2D       -2.6530   61.3580   33.6220 C.3   401  NAD401      0.2309
     34  O2D       -1.7970   60.9090   34.6510 O.3   401  NAD401     -0.2158
     35  C1D       -2.3700   60.7470   32.3100 C.3   401  NAD401      0.2263
     36  N1N       -1.1670   61.3080   31.6130 N.pl3 401  NAD401     -0.2787
     37  C2N        0.1340   60.7640   31.8750 C.3   401  NAD401      0.1244
     38  C3N        1.2430   61.3210   31.2040 C.2   401  NAD401      0.0544
     39  C7N        2.6330   60.7480   31.4820 C.2   401  NAD401      0.2818
     40  O7N        3.5500   61.2640   30.8810 O.2   401  NAD401     -0.2670
     41  N7N        2.8110   59.7510   32.3320 N.am  401  NAD401     -0.0839
     42  C4N        1.0810   62.4400   30.2470 C.2   401  NAD401      0.0033
     43  C5N       -0.2390   62.9580   30.0100 C.2   401  NAD401      0.0157
     44  C6N       -1.3870   62.4130   30.6810 C.2   401  NAD401      0.0633
@<TRIPOS>BOND
     1    11    10    1
     2     9     8    1
     3    10     8    1
     4    10    12    1
     5    25    24    2
     6    43    42    1
     7    43    44    2
     8     8     6    1
     9    42    38    2
    10    26    24    1
    11    44    36    1
    12    27    24    1
    13    27    28    1
    14    40    39    2
    15    12     7    1
    16    12    13    1
    17    24    23    1
    18     6     7    1
    19     6     5    1
    20    38    39    1
    21    38    37    1
    22    39    41   am
    23    30    35    1
    24    30    29    1
    25    36    37    1
    26    36    35    1
    27    13    22    1
    28    13    14    1
    29    21    22    2
    30    21    20    1
    31    22    16    1
    32    14    15    1
    33    28    29    1
    34     5     4    1
    35    20    19    1
    36    35    33    1
    37    23     1    1
    38    29    31    1
    39     4     1    1
    40    16    15    2
    41    16    17    1
    42    19    17    2
    43    17    18    1
    44     1     2    2
    45     1     3    1
    46    33    31    1
    47    33    34    1
    48    31    32    1
