@<TRIPOS>MOLECULE
1tag_GDP_A_1.pdb
 28 30 0 0 0
SMALL
GASTEIGER

@<TRIPOS>ATOM
      1  PB        49.4490   15.5380   32.7060 P.3   351  GDP351      0.5373
      2  O1B       50.5010   16.2300   31.9200 O.2   351  GDP351     -0.2221
      3  O2B       48.5960   16.3470   33.6000 O.3   351  GDP351     -0.1143
      4  O3B       50.0530   14.4330   33.5650 O.3   351  GDP351     -0.1143
      5  O3A       48.4600   14.7880   31.7480 O.3   351  GDP351     -0.2261
      6  PA        46.9260   15.0480   31.3590 P.3   351  GDP351      0.2231
      7  O1A       46.7960   16.3650   30.7540 O.2   351  GDP351     -0.5169
      8  O2A       46.1230   14.7060   32.5280 O.3   351  GDP351     -0.4370
      9  O5'       46.7400   13.9010   30.2800 O.3   351  GDP351     -0.3111
     10  C5'       47.2820   13.9380   28.9620 C.3   351  GDP351      0.1813
     11  C4'       46.1610   13.6780   27.9180 C.3   351  GDP351      0.1799
     12  O4'       45.7860   12.3120   27.9980 O.3   351  GDP351     -0.3326
     13  C3'       44.8340   14.4540   28.0720 C.3   351  GDP351      0.2158
     14  O3'       44.3620   14.8310   26.7980 O.3   351  GDP351     -0.2175
     15  C2'       43.8700   13.4780   28.7100 C.3   351  GDP351      0.2310
     16  O2'       42.4950   13.7100   28.4280 O.3   351  GDP351     -0.2158
     17  C1'       44.3600   12.1670   28.1660 C.3   351  GDP351      0.2293
     18  N9        44.1920   11.0350   29.0900 N.pl3 351  GDP351     -0.2354
     19  C8        44.5550   10.9550   30.4120 C.3   351  GDP351      0.2246
     20  N7        44.3460    9.8060   30.9730 N.2   351  GDP351     -0.2322
     21  C5        43.7990    9.0440   29.9340 C.2   351  GDP351      0.2182
     22  C6        43.3620    7.6920   29.9290 C.1   351  GDP351      0.2372
     23  O6        43.3690    6.8970   30.8660 O.2   351  GDP351     -0.2069
     24  N1        42.8900    7.3000   28.6890 N.2   351  GDP351     -0.2485
     25  C2        42.8290    8.1060   27.5820 C.1   351  GDP351      0.2531
     26  N2        42.3440    7.5830   26.4730 N.pl3 351  GDP351     -0.0226
     27  N3        43.2350    9.3750   27.5650 N.2   351  GDP351     -0.3074
     28  C4        43.7050    9.7810   28.7800 C.2   351  GDP351      0.2300
@<TRIPOS>BOND
     1    26    25    1
     2    14    13    1
     3    27    25    2
     4    27    28    2
     5    25    24    2
     6    11    12    1
     7    11    13    1
     8    11    10    1
     9    12    17    1
    10    13    15    1
    11    17    15    1
    12    17    18    1
    13    16    15    1
    14    24    22    2
    15    28    18    1
    16    28    21    1
    17    10     9    1
    18    18    19    1
    19    22    21    1
    20    22    23    2
    21    21    20    2
    22     9     6    1
    23    19    20    1
    24     7     6    2
    25     6     5    1
    26     6     8    1
    27     5     1    1
    28     2     1    2
    29     1     4    1
    30     1     3    1
