@<TRIPOS>MOLECULE
1tar_PLP_A_1.pdb
 15 15 0 0 0
SMALL
GASTEIGER

@<TRIPOS>ATOM
      1  N1         5.7920    3.1290   12.5190 N.ar  411  PLP411     -0.2452
      2  C2         4.6340    3.7730   12.2550 C.ar  411  PLP411      0.0978
      3  C2A        4.7040    4.8390   11.1800 C.3   411  PLP411      0.0555
      4  C3         3.5120    3.3720   13.0320 C.ar  411  PLP411      0.2049
      5  O3         2.3790    4.0110   12.7440 O.3   411  PLP411     -0.2857
      6  C4         3.5970    2.3940   13.9900 C.ar  411  PLP411      0.0182
      7  C4A        2.4490    1.9280   14.7770 C.3   411  PLP411      0.0342
      8  C5         4.8880    1.7980   14.1530 C.ar  411  PLP411      0.0261
      9  C6         5.9700    2.1850   13.4040 C.ar  411  PLP411      0.0965
     10  C5A        5.1160    0.6680   15.1790 C.3   411  PLP411      0.1815
     11  O4P        4.3990    0.6850   16.3860 O.3   411  PLP411     -0.2653
     12  P          4.6010   -0.5010   17.4210 P.3   411  PLP411      0.5329
     13  O1P        4.6590   -1.7940   16.7030 O.2   411  PLP411     -0.2224
     14  O2P        3.4830   -0.5160   18.3890 O.3   411  PLP411     -0.1145
     15  O3P        5.9440   -0.2460   18.1760 O.3   411  PLP411     -0.1145
@<TRIPOS>BOND
     1     3     2    1
     2     2     1   ar
     3     2     4   ar
     4     1     9   ar
     5     5     4    1
     6     4     6   ar
     7     9     8   ar
     8     6     8   ar
     9     6     7    1
    10     8    10    1
    11    10    11    1
    12    11    12    1
    13    13    12    2
    14    12    15    1
    15    12    14    1
