@<TRIPOS>MOLECULE
1tas_PLA_A_1.pdb
 25 25 0 0 0
SMALL
GASTEIGER

@<TRIPOS>ATOM
      1  N1        27.3340   14.8430  114.3040 N.ar  411  PLA411     -0.2452
      2  C2        26.5700   14.4060  115.3540 C.ar  411  PLA411      0.0981
      3  C2A       27.2160   13.4720  116.3460 C.3   411  PLA411      0.0555
      4  C3        25.2350   14.9100  115.3840 C.ar  411  PLA411      0.2103
      5  O3        24.4810   14.4970  116.4410 O.3   411  PLA411     -0.2853
      6  C4        24.7610   15.7520  114.4100 C.ar  411  PLA411      0.0587
      7  C4A       23.3900   16.1980  114.4540 C.2   411  PLA411      0.0966
      8  C5        25.6600   16.1420  113.3650 C.ar  411  PLA411      0.0316
      9  C6        26.9500   15.6620  113.3270 C.ar  411  PLA411      0.0968
     10  C5A       25.2070   17.0200  112.1790 C.3   411  PLA411      0.1819
     11  O4P       24.4430   18.1580  112.3460 O.3   411  PLA411     -0.2653
     12  P         24.5280   19.2320  111.1670 P.3   411  PLA411      0.5329
     13  O1P       25.6070   20.2070  111.3210 O.3   411  PLA411     -0.1145
     14  O2P       23.3300   20.0470  111.1090 O.3   411  PLA411     -0.1145
     15  O3P       24.7750   18.3730  109.8800 O.2   411  PLA411     -0.2224
     16  N         22.5720   15.4850  115.1560 N.2   411  PLA411     -0.2612
     17  CA        21.1390   15.8510  115.2970 C.3   411  PLA411      0.1881
     18  CB1       20.5810   16.1350  113.9100 C.3   411  PLA411      0.1474
     19  CB2       20.9290   17.1690  116.0670 C.3   411  PLA411      0.0366
     20  CG        20.6660   14.9920  112.9380 C.2   411  PLA411      0.3673
     21  OD1       20.1980   13.8360  113.1920 O.co2 411  PLA411     -0.2456
     22  OD2       21.1720   15.2120  111.8170 O.co2 411  PLA411     -0.2456
     23  C         20.3630   14.7540  116.0290 C.2   411  PLA411      0.3848
     24  O         19.1310   14.8200  116.0760 O.co2 411  PLA411     -0.2436
     25  OXT       20.9120   13.7540  116.5740 O.co2 411  PLA411     -0.2436
@<TRIPOS>BOND
     1    15    12    2
     2    14    12    1
     3    12    13    1
     4    12    11    1
     5    22    20   ar
     6    10    11    1
     7    10     8    1
     8    20    21   ar
     9    20    18    1
    10     9     8   ar
    11     9     1   ar
    12     8     6   ar
    13    18    17    1
    14     1     2   ar
    15     6     7    1
    16     6     4   ar
    17     7    16    2
    18    16    17    1
    19    17    23    1
    20    17    19    1
    21     2     4   ar
    22     2     3    1
    23     4     5    1
    24    23    24   ar
    25    23    25   ar
