@<TRIPOS>MOLECULE
1tat_PLP_A_1.pdb
 15 15 0 0 0
SMALL
GASTEIGER

@<TRIPOS>ATOM
      1  N1        33.2990   31.3660   28.4240 N.ar  411  PLP411     -0.2452
      2  C2        34.5330   30.8590   28.5150 C.ar  411  PLP411      0.0978
      3  C2A       35.1620   30.8790   29.8860 C.3   411  PLP411      0.0555
      4  C3        35.0420   30.3640   27.3220 C.ar  411  PLP411      0.2049
      5  O3        36.2660   29.8470   27.3670 O.3   411  PLP411     -0.2857
      6  C4        34.3350   30.4290   26.2010 C.ar  411  PLP411      0.0182
      7  C4A       34.8420   29.9450   24.9670 C.3   411  PLP411      0.0342
      8  C5        33.0590   30.9940   26.2220 C.ar  411  PLP411      0.0261
      9  C6        32.5360   31.4490   27.3740 C.ar  411  PLP411      0.0965
     10  C5A       32.1970   31.0620   24.9060 C.3   411  PLP411      0.1815
     11  O4P       32.7980   31.2910   23.6210 O.3   411  PLP411     -0.2653
     12  P         31.9690   31.7300   22.2980 P.3   411  PLP411      0.5329
     13  O1P       30.9110   30.7680   22.0240 O.3   411  PLP411     -0.1145
     14  O2P       32.8820   31.8920   21.1400 O.2   411  PLP411     -0.2224
     15  O3P       31.2900   33.0960   22.5630 O.3   411  PLP411     -0.1145
@<TRIPOS>BOND
     1    14    12    2
     2    13    12    1
     3    12    15    1
     4    12    11    1
     5    11    10    1
     6    10     8    1
     7     7     6    1
     8     6     8   ar
     9     6     4   ar
    10     8     9   ar
    11     4     5    1
    12     4     2   ar
    13     9     1   ar
    14     1     2   ar
    15     2     3    1
