@<TRIPOS>MOLECULE
1tau_BGL_A_1.pdb
 20 20 0 0 0
SMALL
GASTEIGER

@<TRIPOS>ATOM
      1  C1       -23.1410   58.0670   56.7950 C.3   1001  BGL1001     0.2990
      2  O1       -22.4910   57.3280   55.8560 O.3   1001  BGL1001    -0.1871
      3  C2       -23.3790   59.5600   56.5920 C.3   1001  BGL1001     0.2070
      4  O2       -22.2130   60.2850   56.1900 O.3   1001  BGL1001    -0.3484
      5  C3       -24.0890   59.8480   57.9600 C.3   1001  BGL1001     0.2166
      6  O3       -24.6670   61.0680   57.8910 O.3   1001  BGL1001    -0.2175
      7  C4       -25.3230   58.9510   58.3630 C.3   1001  BGL1001     0.2143
      8  O4       -25.6430   59.0760   59.6860 O.3   1001  BGL1001    -0.2176
      9  C5       -24.9590   57.5090   57.9900 C.3   1001  BGL1001     0.1836
     10  O5       -24.4560   57.5250   56.6520 O.3   1001  BGL1001    -0.3237
     11  C6       -25.9460   56.3570   58.0920 C.3   1001  BGL1001     0.2142
     12  O6       -25.1740   55.2560   57.6350 O.3   1001  BGL1001    -0.2176
     13  C1'      -21.7940   61.4160   56.9560 C.3   1001  BGL1001     0.1424
     14  C2'      -20.3260   61.6840   56.5760 C.3   1001  BGL1001     0.0321
     15  C3'      -19.6710   63.0770   56.7030 C.3   1001  BGL1001     0.0026
     16  C4'      -18.1780   63.0440   56.3310 C.3   1001  BGL1001     0.0001
     17  C5'      -17.9720   62.6030   54.8740 C.3   1001  BGL1001     0.0000
     18  C6'      -16.6120   61.9740   54.6170 C.3   1001  BGL1001     0.0000
     19  C7'      -15.5050   62.9880   54.7310 C.3   1001  BGL1001     0.0000
     20  C8'      -14.2340   62.2110   54.5010 C.3   1001  BGL1001     0.0000
@<TRIPOS>BOND
     1    20    19    1
     2    18    19    1
     3    18    17    1
     4    17    16    1
     5     2     1    1
     6     4     3    1
     7     4    13    1
     8    16    15    1
     9    14    15    1
    10    14    13    1
    11     3     1    1
    12     3     5    1
    13    10     1    1
    14    10     9    1
    15    12    11    1
    16     6     5    1
    17     5     7    1
    18     9    11    1
    19     9     7    1
    20     7     8    1
