@<TRIPOS>MOLECULE
1tb3_FMN_A_1.pdb
 31 33 0 0 0
SMALL
GASTEIGER

@<TRIPOS>ATOM
      1  N1        27.8930  -21.7520  116.1220 N.2   1401  FMN1401    -0.2890
      2  C2        28.1910  -22.3250  117.3450 C.1   1401  FMN1401     0.3669
      3  O2        28.0860  -23.5300  117.5940 O.2   1401  FMN1401    -0.1744
      4  N3        28.6230  -21.3690  118.2820 N.2   1401  FMN1401    -0.2300
      5  C4        28.7620  -19.9860  118.0770 C.1   1401  FMN1401     0.2513
      6  O4        29.1590  -19.3400  119.0520 O.2   1401  FMN1401    -0.2057
      7  C4A       28.4050  -19.5410  116.7260 C.2   1401  FMN1401     0.2700
      8  N5        28.5100  -18.1510  116.4630 N.2   1401  FMN1401    -0.3878
      9  C5A       28.1520  -17.6590  115.2020 C.2   1401  FMN1401     0.1320
     10  C6        28.2400  -16.2950  114.9760 C.2   1401  FMN1401     0.0250
     11  C7        27.8700  -15.7620  113.7480 C.2   1401  FMN1401    -0.0238
     12  C7M       27.9760  -14.2650  113.5690 C.3   1401  FMN1401     0.0308
     13  C8        27.4040  -16.6200  112.7200 C.2   1401  FMN1401    -0.0280
     14  C8M       26.9890  -16.1040  111.3990 C.3   1401  FMN1401     0.0304
     15  C9        27.3210  -17.9850  112.9200 C.2   1401  FMN1401    -0.0041
     16  C9A       27.6880  -18.5330  114.1670 C.3   1401  FMN1401     0.1497
     17  N10       27.6010  -19.9400  114.4420 N.pl3 1401  FMN1401    -0.2691
     18  C10       27.9590  -20.4230  115.7230 C.2   1401  FMN1401     0.2416
     19  C1'       27.1580  -20.8400  113.5000 C.3   1401  FMN1401     0.1294
     20  C2'       25.6300  -21.1620  113.6190 C.3   1401  FMN1401     0.2044
     21  O2'       25.4370  -21.9030  114.8200 O.3   1401  FMN1401    -0.2185
     22  C3'       25.0890  -21.9740  112.4370 C.3   1401  FMN1401     0.2164
     23  O3'       25.8280  -23.1900  112.3360 O.3   1401  FMN1401    -0.2175
     24  C4'       25.1700  -21.3140  111.0820 C.3   1401  FMN1401     0.2147
     25  O4'       25.3670  -19.8920  111.0920 O.3   1401  FMN1401    -0.2176
     26  C5'       23.8480  -21.6210  110.4620 C.3   1401  FMN1401     0.1892
     27  O5'       23.6930  -21.1380  109.1700 O.3   1401  FMN1401    -0.2674
     28  P         22.8650  -19.9830  108.6630 P.3   1401  FMN1401     0.5327
     29  O1P       22.8510  -20.2500  107.2140 O.2   1401  FMN1401    -0.2224
     30  O2P       23.5410  -18.7840  109.1210 O.3   1401  FMN1401    -0.1145
     31  O3P       21.5440  -20.0960  109.2500 O.3   1401  FMN1401    -0.1145
@<TRIPOS>BOND
     1    29    28    2
     2    28    30    1
     3    28    27    1
     4    28    31    1
     5    27    26    1
     6    26    24    1
     7    24    25    1
     8    24    22    1
     9    14    13    1
    10    23    22    1
    11    22    20    1
    12    13    15    2
    13    13    11    1
    14    15    16    1
    15    19    20    1
    16    19    17    1
    17    12    11    1
    18    20    21    1
    19    11    10    2
    20    16    17    1
    21    16     9    1
    22    17    18    1
    23    10     9    1
    24     9     8    2
    25    18     1    2
    26    18     7    1
    27     1     2    2
    28     8     7    2
    29     7     5    1
    30     2     3    2
    31     2     4    2
    32     5     4    2
    33     5     6    2
