@<TRIPOS>MOLECULE
1tb5_AMP_A_1.pdb
 23 25 0 0 0
SMALL
GASTEIGER

@<TRIPOS>ATOM
      1  P         39.1010    4.3280   58.9490 P.3   102  AMP102      0.5327
      2  O1P       37.7990    5.0400   58.5690 O.3   102  AMP102     -0.1145
      3  O2P       40.3510    4.6410   58.0750 O.2   102  AMP102     -0.2224
      4  O3P       39.4910    4.7380   60.3830 O.3   102  AMP102     -0.1145
      5  O5'       38.8000    2.7280   59.0120 O.3   102  AMP102     -0.2675
      6  C5'       39.7530    1.8340   59.4970 C.3   102  AMP102      0.1860
      7  C4'       39.4680    1.5100   60.9620 C.3   102  AMP102      0.1823
      8  O4'       40.3880    0.5240   61.3900 O.3   102  AMP102     -0.3135
      9  C3'       39.6440    2.6670   61.9380 C.3   102  AMP102      0.2184
     10  O3'       38.4940    3.4630   62.0640 O.3   102  AMP102     -0.2174
     11  C2'       40.0090    1.9600   63.2160 C.3   102  AMP102      0.2570
     12  O2'       38.8850    1.5150   63.9550 O.3   102  AMP102     -0.2130
     13  C1'       40.7850    0.7620   62.7200 C.3   102  AMP102      0.3186
     14  N9        42.2350    1.0120   62.8020 N.pl3 102  AMP102     -0.1439
     15  C8        43.1120    1.3290   61.7920 C.3   102  AMP102      0.3377
     16  N7        44.3470    1.4550   62.3350 N.2   102  AMP102     -0.2095
     17  C5        44.2620    1.2100   63.6660 C.2   102  AMP102      0.2526
     18  C6        45.1990    1.1850   64.6950 C.2   102  AMP102      0.4393
     19  N6        46.4880    1.4440   64.4340 N.pl3 102  AMP102      0.2180
     20  N1        44.7810    0.8990   65.9840 N.2   102  AMP102      0.0021
     21  C2        43.4640    0.6210   66.2630 C.3   102  AMP102      0.5254
     22  N3        42.5450    0.6360   65.2400 N.2   102  AMP102     -0.0055
     23  C4        42.9360    0.9280   63.9720 C.2   102  AMP102      0.3518
@<TRIPOS>BOND
     1     3     1    2
     2     2     1    1
     3     1     5    1
     4     1     4    1
     5     5     6    1
     6     6     7    1
     7     7     8    1
     8     7     9    1
     9     8    13    1
    10    15    16    1
    11    15    14    1
    12     9    10    1
    13     9    11    1
    14    16    17    2
    15    13    14    1
    16    13    11    1
    17    14    23    1
    18    11    12    1
    19    17    23    1
    20    17    18    1
    21    23    22    2
    22    19    18    1
    23    18    20    2
    24    22    21    1
    25    20    21    1
