@<TRIPOS>MOLECULE
1tb6_GU1_I_1.pdb
 14 14 0 0 0
SMALL
GASTEIGER

@<TRIPOS>ATOM
      1  O1        56.9160   -2.4330  -12.6950 O.3   445  GU1445     -0.1871
      2  C1        57.0970   -2.5470  -11.2750 C.3   445  GU1445      0.2992
      3  C2        57.8220   -1.2930  -10.8140 C.3   445  GU1445      0.2012
      4  O2        59.1210   -1.2800  -11.4260 O.3   445  GU1445     -0.3458
      5  C7        59.4340    0.0250  -11.9210 C.3   445  GU1445      0.1743
      6  C3        57.9310   -1.3180   -9.2950 C.3   445  GU1445      0.1505
      7  O3        58.6890   -0.2020   -8.7910 O.3   445  GU1445     -0.3508
      8  C8        58.1990    1.0810   -9.1980 C.3   445  GU1445      0.1741
      9  O5        55.8200   -2.6770  -10.6270 O.3   445  GU1445     -0.3174
     10  C5        55.9040   -2.7020   -9.1910 C.3   445  GU1445      0.2227
     11  C6        54.4960   -2.8470   -8.6090 C.2   445  GU1445      0.3915
     12  O38       54.3270   -3.4510   -7.5470 O.co2 445  GU1445     -0.2430
     13  O37       53.5320   -2.3640   -9.1960 O.co2 445  GU1445     -0.2430
     14  C4        56.5460   -1.4240   -8.6690 C.3   445  GU1445      0.0736
@<TRIPOS>BOND
     1     1     2    1
     2     5     4    1
     3     4     3    1
     4     2     3    1
     5     2     9    1
     6     3     6    1
     7     9    10    1
     8     6     7    1
     9     6    14    1
    10     8     7    1
    11    13    11   ar
    12    10    14    1
    13    10    11    1
    14    11    12   ar
