@<TRIPOS>MOLECULE
1tb6_GU2_I_1.pdb
 14 14 0 0 0
SMALL
GASTEIGER

@<TRIPOS>ATOM
      1  O1        58.5350   -2.2220  -21.1980 O.3   447  GU2447     -0.1871
      2  C1        57.7640   -3.0440  -20.3080 C.3   447  GU2447      0.2992
      3  C2        58.5490   -4.3060  -19.9710 C.3   447  GU2447      0.2012
      4  O2        58.4710   -5.2730  -21.0310 O.3   447  GU2447     -0.3458
      5  C7        59.3710   -4.9390  -22.0920 C.3   447  GU2447      0.1743
      6  C3        57.9920   -4.9150  -18.6910 C.3   447  GU2447      0.1505
      7  O3        58.6350   -6.1670  -18.3910 O.3   447  GU2447     -0.3508
      8  C8        60.0400   -6.0550  -18.1310 C.3   447  GU2447      0.1741
      9  O5        57.3780   -2.3130  -19.1290 O.3   447  GU2447     -0.3174
     10  C5        58.2870   -2.5280  -18.0370 C.3   447  GU2447      0.2227
     11  C6        58.0100   -1.5080  -16.9290 C.2   447  GU2447      0.3915
     12  O49       56.8640   -1.0880  -16.7540 O.co2 447  GU2447     -0.2430
     13  O48       58.9240   -1.1080  -16.2170 O.co2 447  GU2447     -0.2430
     14  C4        58.0920   -3.9450  -17.5180 C.3   447  GU2447      0.0736
@<TRIPOS>BOND
     1     5     4    1
     2     1     2    1
     3     4     3    1
     4     2     3    1
     5     2     9    1
     6     3     6    1
     7     9    10    1
     8     6     7    1
     9     6    14    1
    10     7     8    1
    11    10    14    1
    12    10    11    1
    13    11    12   ar
    14    11    13   ar
