@<TRIPOS>MOLECULE
1tb6_GU5_I_1.pdb
 17 17 0 0 0
SMALL
GASTEIGER

@<TRIPOS>ATOM
      1  O1        56.5940   -1.4360   -7.2320 O.3   444  GU5444     -0.1871
      2  C1        56.3050   -0.1350   -6.6930 C.3   444  GU5444      0.2988
      3  C2        56.7650   -0.0180   -5.2460 C.3   444  GU5444      0.2012
      4  O2        58.1660   -0.3090   -5.1290 O.3   444  GU5444     -0.3458
      5  C7        58.9530    0.8210   -5.5200 C.3   444  GU5444      0.1743
      6  C3        55.9610   -0.9540   -4.3520 C.3   444  GU5444      0.1500
      7  O3        56.3100   -0.7470   -2.9730 O.3   444  GU5444     -0.3508
      8  C8        57.4930   -1.4710   -2.6200 C.3   444  GU5444      0.1741
      9  O5        54.8960    0.1510   -6.7600 O.3   444  GU5444     -0.3264
     10  C5        54.0810   -0.7380   -5.9760 C.3   444  GU5444      0.1524
     11  C6        52.6120   -0.3480   -6.1590 C.3   444  GU5444      0.2020
     12  O6        52.4010    1.0200   -5.7990 O.3   444  GU5444     -0.2385
     13  S6        51.1570    1.6750   -6.0650 S.3   444  GU5444     -0.0001
     14  O32       50.8630    1.6280   -7.5340 O.2   444  GU5444     -0.3452
     15  O33       51.2560    3.1050   -5.6230 O.2   444  GU5444     -0.3452
     16  O31       50.0540    0.9910   -5.3160 O.3   444  GU5444     -0.2682
     17  C4        54.4640   -0.6630   -4.4950 C.3   444  GU5444      0.0646
@<TRIPOS>BOND
     1    14    13    2
     2     1     2    1
     3     9     2    1
     4     9    10    1
     5     2     3    1
     6    11    10    1
     7    11    12    1
     8    13    12    1
     9    13    15    2
    10    13    16    1
    11    10    17    1
    12     5     4    1
    13     3     4    1
    14     3     6    1
    15    17     6    1
    16     6     7    1
    17     7     8    1
