@<TRIPOS>MOLECULE
1tb6_GU3_I_1.pdb
 21 21 0 0 0
SMALL
GASTEIGER

@<TRIPOS>ATOM
      1  O50       53.7510   -3.4780  -24.2680 O.2   448  GU3448     -0.3452
      2  S6        54.2790   -3.5110  -22.8650 S.3   448  GU3448     -0.0001
      3  O51       53.1570   -3.2310  -21.9090 O.3   448  GU3448     -0.2682
      4  O52       54.8540   -4.8660  -22.5780 O.2   448  GU3448     -0.3452
      5  O6        55.2930   -2.5110  -22.7130 O.3   448  GU3448     -0.2385
      6  C6        56.5710   -2.6540  -23.3380 C.3   448  GU3448      0.2020
      7  C5        57.4090   -1.3840  -23.1720 C.3   448  GU3448      0.1523
      8  O5        56.6550   -0.2840  -23.7090 O.3   448  GU3448     -0.3283
      9  C1        57.3550    0.9700  -23.6370 C.3   448  GU3448      0.2684
     10  O1        58.5680    0.9450  -24.4040 O.3   448  GU3448     -0.3259
     11  C8        58.2640    0.8960  -25.8010 C.3   448  GU3448      0.1769
     12  C2        57.6780    1.2980  -22.1780 C.3   448  GU3448      0.2260
     13  O2        58.4050    2.5290  -22.1230 O.3   448  GU3448     -0.2360
     14  S2        57.5530    3.6170  -21.7500 S.3   448  GU3448      0.0000
     15  O54       57.1560    3.4670  -20.3110 O.3   448  GU3448     -0.2682
     16  O55       56.3290    3.6240  -22.6170 O.2   448  GU3448     -0.3452
     17  O53       58.2800    4.9180  -21.9240 O.2   448  GU3448     -0.3452
     18  C3        58.5160    0.1700  -21.5700 C.3   448  GU3448      0.1523
     19  O3        58.7420    0.4840  -20.1880 O.3   448  GU3448     -0.3507
     20  C7        59.9120   -0.1800  -19.7010 C.3   448  GU3448      0.1741
     21  C4        57.7440   -1.1370  -21.7070 C.3   448  GU3448      0.0646
@<TRIPOS>BOND
     1    11    10    1
     2    10     9    1
     3     1     2    2
     4     8     9    1
     5     8     7    1
     6     9    12    1
     7     6     7    1
     8     6     5    1
     9     7    21    1
    10     2     5    1
    11     2     4    2
    12     2     3    1
    13    16    14    2
    14    12    13    1
    15    12    18    1
    16    13    14    1
    17    17    14    2
    18    14    15    1
    19    21    18    1
    20    18    19    1
    21    19    20    1
