@<TRIPOS>MOLECULE
1tb6_GU0_I_1.pdb
 23 23 0 0 0
SMALL
GASTEIGER

@<TRIPOS>ATOM
      1  O1        52.0730   -6.2940   31.8000 O.3   435  GU0435     -0.1870
      2  C1        52.0200   -6.2900   33.2350 C.3   435  GU0435      0.3013
      3  C2        52.0890   -4.8400   33.7260 C.3   435  GU0435      0.2313
      4  O2        53.3930   -4.3270   33.4340 O.3   435  GU0435     -0.2358
      5  S2        53.3860   -3.2070   32.5430 S.3   435  GU0435      0.0000
      6  O23       52.2220   -2.3040   32.8270 O.3   435  GU0435     -0.2682
      7  O24       53.3130   -3.6870   31.1240 O.2   435  GU0435     -0.3452
      8  O22       54.6610   -2.4440   32.7450 O.2   435  GU0435     -0.3452
      9  C3        51.8460   -4.7570   35.2380 C.3   435  GU0435      0.1802
     10  O3        51.7250   -3.3830   35.6300 O.3   435  GU0435     -0.2409
     11  S3        52.7700   -2.8880   36.4790 S.3   435  GU0435     -0.0001
     12  O26       53.9990   -2.6200   35.6620 O.2   435  GU0435     -0.3452
     13  O27       53.1010   -3.8700   37.5640 O.3   435  GU0435     -0.2682
     14  O25       52.3260   -1.6050   37.1150 O.2   435  GU0435     -0.3452
     15  O5        50.7920   -6.9160   33.6390 O.3   435  GU0435     -0.3263
     16  C5        50.6050   -6.9170   35.0640 C.3   435  GU0435      0.1525
     17  C6        49.3060   -7.6760   35.3460 C.3   435  GU0435      0.2020
     18  O6        48.2030   -7.0770   34.6600 O.3   435  GU0435     -0.2385
     19  S6        47.0560   -7.8360   34.2640 S.3   435  GU0435     -0.0001
     20  O29       45.9350   -6.8990   33.9270 O.2   435  GU0435     -0.3452
     21  O30       46.6200   -8.7360   35.3810 O.3   435  GU0435     -0.2682
     22  O28       47.3980   -8.6590   33.0580 O.2   435  GU0435     -0.3452
     23  C4        50.5520   -5.4910   35.6020 C.3   435  GU0435      0.0671
@<TRIPOS>BOND
     1     7     5    2
     2     1     2    1
     3     5     8    2
     4     5     6    1
     5     5     4    1
     6    22    19    2
     7     2    15    1
     8     2     3    1
     9     4     3    1
    10    15    16    1
    11     3     9    1
    12    20    19    2
    13    19    18    1
    14    19    21    1
    15    18    17    1
    16    16    17    1
    17    16    23    1
    18     9    23    1
    19     9    10    1
    20    10    11    1
    21    12    11    2
    22    11    14    2
    23    11    13    1
