@<TRIPOS>MOLECULE
1tb6_GU6_I_1.pdb
 23 23 0 0 0
SMALL
GASTEIGER

@<TRIPOS>ATOM
      1  O1        50.3670   -5.5170   37.0260 O.3   434  GU6434     -0.1870
      2  C1        49.6240   -4.4020   37.5410 C.3   434  GU6434      0.3013
      3  C2        49.6340   -4.5070   39.0660 C.3   434  GU6434      0.2313
      4  O2        50.5860   -5.2470   39.6930 O.3   434  GU6434     -0.2358
      5  S2        50.0390   -6.3720   40.3940 S.3   434  GU6434      0.0000
      6  O14       48.8080   -6.8720   39.6990 O.2   434  GU6434     -0.3452
      7  O15       49.6950   -5.9680   41.7970 O.3   434  GU6434     -0.2682
      8  O13       51.0440   -7.4840   40.4290 O.2   434  GU6434     -0.3452
      9  C3        48.5650   -3.9390   39.7490 C.3   434  GU6434      0.1802
     10  O3        48.7140   -3.1380   40.8360 O.3   434  GU6434     -0.2409
     11  S3        49.0140   -1.7620   40.5580 S.3   434  GU6434     -0.0001
     12  O17       48.4710   -1.3470   39.2230 O.2   434  GU6434     -0.3452
     13  O18       50.4990   -1.5540   40.5790 O.2   434  GU6434     -0.3452
     14  O16       48.3920   -0.8920   41.6090 O.3   434  GU6434     -0.2682
     15  O5        48.2900   -4.4300   37.0000 O.3   434  GU6434     -0.3263
     16  C5        47.2890   -3.9290   37.7800 C.3   434  GU6434      0.1525
     17  C6        46.2250   -3.0710   37.1050 C.3   434  GU6434      0.2020
     18  O6        45.3170   -3.8780   36.3580 O.3   434  GU6434     -0.2385
     19  S6        44.3360   -3.2370   35.5420 S.3   434  GU6434     -0.0001
     20  O20       44.5020   -3.7080   34.1280 O.2   434  GU6434     -0.3452
     21  O21       44.5150   -1.7490   35.6030 O.2   434  GU6434     -0.3452
     22  O19       42.9660   -3.5900   36.0440 O.3   434  GU6434     -0.2682
     23  C4        47.3350   -4.1550   39.1460 C.3   434  GU6434      0.0671
@<TRIPOS>BOND
     1    20    19    2
     2    19    21    2
     3    19    22    1
     4    19    18    1
     5    18    17    1
     6    15     2    1
     7    15    16    1
     8     1     2    1
     9    17    16    1
    10     2     3    1
    11    16    23    1
    12     3     4    1
    13     3     9    1
    14    23     9    1
    15    12    11    2
    16     4     5    1
    17     6     5    2
    18     9    10    1
    19     5     8    2
    20     5     7    1
    21    11    13    2
    22    11    10    1
    23    11    14    1
