@<TRIPOS>MOLECULE
1tb6_GU4_I_1.pdb
 28 28 0 0 0
SMALL
GASTEIGER

@<TRIPOS>ATOM
      1  O1        46.2840   -4.7140   39.8040 O.3   433  GU4433     -0.1870
      2  C1        45.6190   -3.8680   40.7540 C.3   433  GU4433      0.3014
      3  O5        44.6110   -3.0620   40.1210 O.3   433  GU4433     -0.3237
      4  C5        43.5570   -3.8120   39.4940 C.3   433  GU4433      0.1818
      5  C6        42.5510   -2.7800   38.9780 C.3   433  GU4433      0.2046
      6  O6        42.0940   -1.9430   40.0450 O.3   433  GU4433     -0.2384
      7  S6        41.2110   -0.8400   39.8160 S.3   433  GU4433     -0.0001
      8  O22       40.4160   -0.5800   41.0620 O.3   433  GU4433     -0.2682
      9  O23       40.2730   -1.1540   38.6870 O.2   433  GU4433     -0.3452
     10  O21       42.0160    0.3790   39.4740 O.2   433  GU4433     -0.3452
     11  C4        42.8490   -4.7620   40.4690 C.3   433  GU4433      0.2048
     12  O4        42.0010   -5.6360   39.7160 O.3   433  GU4433     -0.2384
     13  S4        40.6160   -5.5400   40.0710 S.3   433  GU4433     -0.0001
     14  O25       40.4250   -5.9470   41.5020 O.3   433  GU4433     -0.2682
     15  O26       39.8250   -6.4540   39.1830 O.2   433  GU4433     -0.3452
     16  O24       40.1250   -4.1340   39.8890 O.2   433  GU4433     -0.3452
     17  C3        43.8720   -5.6190   41.2200 C.3   433  GU4433      0.2095
     18  O3        43.2170   -6.3610   42.2550 O.3   433  GU4433     -0.2382
     19  S3        43.3150   -7.7830   42.0980 S.3   433  GU4433     -0.0001
     20  O28       42.5360   -8.4470   43.1930 O.3   433  GU4433     -0.2682
     21  O29       44.7490   -8.2160   42.1800 O.2   433  GU4433     -0.3452
     22  O27       42.7490   -8.2050   40.7750 O.2   433  GU4433     -0.3452
     23  C2        44.9590   -4.7310   41.8340 C.3   433  GU4433      0.2338
     24  O2        45.9330   -5.5520   42.4860 O.3   433  GU4433     -0.2357
     25  S2        46.4330   -4.9520   43.6850 S.3   433  GU4433      0.0000
     26  O11       45.2960   -4.5110   44.5600 O.3   433  GU4433     -0.2682
     27  O12       47.2880   -3.7690   43.3390 O.2   433  GU4433     -0.3452
     28  O10       47.2680   -5.9540   44.4260 O.2   433  GU4433     -0.3452
@<TRIPOS>BOND
     1     9     7    2
     2     5     4    1
     3     5     6    1
     4    15    13    2
     5    10     7    2
     6     4     3    1
     7     4    11    1
     8    12    13    1
     9    12    11    1
    10     1     2    1
    11     7     6    1
    12     7     8    1
    13    16    13    2
    14    13    14    1
    15     3     2    1
    16    11    17    1
    17     2    23    1
    18    22    19    2
    19    17    23    1
    20    17    18    1
    21    23    24    1
    22    19    21    2
    23    19    18    1
    24    19    20    1
    25    24    25    1
    26    27    25    2
    27    25    28    2
    28    25    26    1
