@<TRIPOS>MOLECULE
1tb7_AMP_A_1.pdb
 23 25 0 0 0
SMALL
GASTEIGER

@<TRIPOS>ATOM
      1  P         22.2240    1.5490   29.6400 P.3   1003  AMP1003     0.5327
      2  O1P       22.4760    2.3490   30.8710 O.3   1003  AMP1003    -0.1145
      3  O2P       21.2310    2.1140   28.5960 O.2   1003  AMP1003    -0.2224
      4  O3P       23.6000    1.3850   28.9390 O.3   1003  AMP1003    -0.1145
      5  O5'       21.8180    0.0540   30.0730 O.3   1003  AMP1003    -0.2675
      6  C5'       21.7320   -0.9580   29.0950 C.3   1003  AMP1003     0.1860
      7  C4'       22.9870   -1.8340   29.0360 C.3   1003  AMP1003     0.1823
      8  O4'       22.6990   -2.9040   28.1550 O.3   1003  AMP1003    -0.3135
      9  C3'       24.2240   -1.1540   28.4570 C.3   1003  AMP1003     0.2184
     10  O3'       25.0460   -0.6060   29.4600 O.3   1003  AMP1003    -0.2174
     11  C2'       24.9440   -2.2250   27.6880 C.3   1003  AMP1003     0.2570
     12  O2'       25.8440   -2.9500   28.4940 O.3   1003  AMP1003    -0.2130
     13  C1'       23.8020   -3.1350   27.2860 C.3   1003  AMP1003     0.3186
     14  N9        23.4380   -2.9260   25.8730 N.pl3 1003  AMP1003    -0.1439
     15  C8        22.4250   -2.1920   25.3110 C.3   1003  AMP1003     0.3377
     16  N7        22.4920   -2.3490   23.9640 N.2   1003  AMP1003    -0.2095
     17  C5        23.5250   -3.1730   23.6670 C.2   1003  AMP1003     0.2526
     18  C6        24.0500   -3.6900   22.4830 C.2   1003  AMP1003     0.4393
     19  N6        23.5350   -3.4020   21.2960 N.pl3 1003  AMP1003     0.2180
     20  N1        25.1410   -4.5270   22.5500 N.2   1003  AMP1003     0.0021
     21  C2        25.7010   -4.8680   23.7550 C.3   1003  AMP1003     0.5254
     22  N3        25.1850   -4.3660   24.9250 N.2   1003  AMP1003    -0.0055
     23  C4        24.1190   -3.5340   24.8680 C.2   1003  AMP1003     0.3518
@<TRIPOS>BOND
     1    19    18    1
     2    18    20    2
     3    18    17    1
     4    20    21    1
     5    17    16    2
     6    17    23    1
     7    21    22    1
     8    16    15    1
     9    23    22    2
    10    23    14    1
    11    15    14    1
    12    14    13    1
    13    13    11    1
    14    13     8    1
    15    11     9    1
    16    11    12    1
    17     8     7    1
    18     9     7    1
    19     9    10    1
    20     3     1    2
    21     4     1    1
    22     7     6    1
    23     6     5    1
    24     1     5    1
    25     1     2    1
