@<TRIPOS>MOLECULE
1tbb_ROL_A_1.pdb
 20 22 0 0 0
SMALL
GASTEIGER

@<TRIPOS>ATOM
      1  C5         6.6060   -2.2380   56.5000 C.ar  501  ROL501     -0.0162
      2  C6         5.5730   -3.1020   56.9150 C.ar  501  ROL501      0.0359
      3  C7         5.3700   -3.4150   58.2820 C.ar  501  ROL501      0.1717
      4  C8         6.2130   -2.8450   59.2510 C.ar  501  ROL501      0.1724
      5  C9         7.2460   -1.9780   58.8460 C.ar  501  ROL501      0.0397
      6  C10        7.4360   -1.6820   57.4850 C.ar  501  ROL501     -0.0009
      7  C3         6.8450   -1.8900   55.0180 C.3   501  ROL501      0.0642
      8  C2         6.1720   -0.6170   54.6520 C.3   501  ROL501      0.1280
      9  C1         4.8720   -1.1170   54.1110 C.1   501  ROL501      0.1264
     10  O1         3.9180   -0.3930   53.9070 O.2   501  ROL501     -0.2270
     11  N1         4.9910   -2.4120   53.7610 N.2   501  ROL501     -0.2059
     12  C4         6.3120   -2.9570   54.0260 C.3   501  ROL501      0.1429
     13  O3         4.3450   -4.2760   58.7130 O.3   501  ROL501     -0.4761
     14  C11        3.3870   -4.6420   57.6730 C.3   501  ROL501      0.1660
     15  C15        2.3250   -4.0920   58.3830 C.3   501  ROL501      0.0435
     16  C14        1.5720   -5.2180   59.1170 C.3   501  ROL501      0.0038
     17  C13        2.4490   -6.4800   58.8840 C.3   501  ROL501      0.0038
     18  C12        3.1890   -6.1660   57.5670 C.3   501  ROL501      0.0435
     19  O2         5.9920   -3.1670   60.5880 O.3   501  ROL501     -0.4684
     20  C16        6.6000   -2.4920   61.7080 C.3   501  ROL501      0.2526
@<TRIPOS>BOND
     1    11    12    1
     2    11     9    2
     3    10     9    2
     4    12     7    1
     5     9     8    1
     6     8     7    1
     7     7     1    1
     8     1     2   ar
     9     1     6   ar
    10     2     3   ar
    11     6     5   ar
    12    18    14    1
    13    18    17    1
    14    14    15    1
    15    14    13    1
    16     3    13    1
    17     3     4   ar
    18    15    16    1
    19     5     4   ar
    20    17    16    1
    21     4    19    1
    22    19    20    1
