@<TRIPOS>MOLECULE
1tbf_VIA_A_1.pdb
 33 36 0 0 0
SMALL
GASTEIGER

@<TRIPOS>ATOM
      1  C34       32.0320   34.5630   65.3800 C.3   501  VIA501      0.0004
      2  C33       30.6320   34.1100   65.7200 C.3   501  VIA501      0.0064
      3  C32       30.5210   32.9410   66.7770 C.3   501  VIA501      0.0498
      4  C30       29.1230   32.6570   67.0740 C.2   501  VIA501      0.1051
      5  N29       28.4230   33.1660   68.1140 N.2   501  VIA501     -0.1827
      6  N28       27.1530   32.7080   68.1100 N.pl3 501  VIA501     -0.2099
      7  C31       26.1450   33.0650   69.0890 C.3   501  VIA501      0.1358
      8  C24       26.9860   31.8600   67.0320 C.3   501  VIA501      0.2631
      9  C23       25.8540   31.1260   66.5900 C.1   501  VIA501      0.2168
     10  O27       24.7300   31.0900   67.0850 O.2   501  VIA501     -0.2113
     11  N22       26.1330   30.3850   65.4380 N.2   501  VIA501     -0.2682
     12  C21       27.3850   30.3850   64.8310 C.1   501  VIA501      0.1525
     13  N26       28.4530   31.0500   65.2170 N.2   501  VIA501     -0.3394
     14  C25       28.2180   31.8020   66.3460 C.2   501  VIA501      0.1728
     15  C9        27.4310   29.5130   63.6400 C.ar  501  VIA501      0.1215
     16  C8        28.5500   28.6620   63.6270 C.ar  501  VIA501      0.0350
     17  C7        28.7780   27.7500   62.5810 C.ar  501  VIA501      0.1231
     18  C6        27.8430   27.7280   61.5650 C.ar  501  VIA501      0.0231
     19  C5        26.7610   28.5400   61.5750 C.ar  501  VIA501      0.0390
     20  C4        26.5330   29.4590   62.6290 C.ar  501  VIA501      0.1499
     21  O3        25.5150   30.2870   62.7240 O.3   501  VIA501     -0.4747
     22  C2        24.3950   30.1920   61.7740 C.3   501  VIA501      0.2056
     23  C1        23.3760   31.1710   62.2270 C.3   501  VIA501      0.0512
     24  S10       30.1610   26.7130   62.5720 S.O2  501  VIA501      0.0634
     25  O11       30.4350   26.1960   63.8060 O.2   501  VIA501     -0.1528
     26  O12       29.9950   25.7830   61.5430 O.2   501  VIA501     -0.1528
     27  N14       31.4160   27.6690   62.2050 N.3   501  VIA501     -0.1527
     28  C19       32.7740   27.4250   62.6270 C.3   501  VIA501      0.1131
     29  C18       33.5620   28.7140   62.9720 C.3   501  VIA501      0.0915
     30  N17       33.3790   29.7790   61.9880 N.3   501  VIA501     -0.2690
     31  C20       34.0900   31.0040   62.2800 C.3   501  VIA501      0.0897
     32  C16       31.9930   29.9940   61.6090 C.3   501  VIA501      0.0915
     33  C15       31.3550   28.6610   61.1670 C.3   501  VIA501      0.1131
@<TRIPOS>BOND
     1    33    32    1
     2    33    27    1
     3    26    24    2
     4    18    19   ar
     5    18    17   ar
     6    19    20   ar
     7    32    30    1
     8    22    23    1
     9    22    21    1
    10    30    31    1
    11    30    29    1
    12    27    24    1
    13    27    28    1
    14    24    17    1
    15    24    25    2
    16    17    16   ar
    17    28    29    1
    18    20    21    1
    19    20    15   ar
    20    16    15   ar
    21    15    12    1
    22    12    13    2
    23    12    11    2
    24    13    14    2
    25     1     2    1
    26    11     9    2
    27     2     3    1
    28    14     8    1
    29    14     4    1
    30     9     8    1
    31     9    10    2
    32     3     4    1
    33     8     6    1
    34     4     5    2
    35     6     5    1
    36     6     7    1
