@<TRIPOS>MOLECULE
1tbw_AMP_A_1.pdb
 23 25 0 0 0
SMALL
GASTEIGER

@<TRIPOS>ATOM
      1  P        151.7760   17.6950   35.1250 P.3   301  AMP301      0.5327
      2  O1P      151.6250   19.1650   35.1150 O.3   301  AMP301     -0.1145
      3  O2P      152.0730   17.1900   33.7830 O.2   301  AMP301     -0.2224
      4  O3P      152.8860   17.3080   36.1090 O.3   301  AMP301     -0.1145
      5  O5'      150.4830   16.9640   35.7610 O.3   301  AMP301     -0.2675
      6  C5'      150.0130   17.4030   37.0130 C.3   301  AMP301      0.1860
      7  C4'      149.8630   16.2480   38.0260 C.3   301  AMP301      0.1823
      8  O4'      148.5440   15.6470   37.9010 O.3   301  AMP301     -0.3135
      9  C3'      150.8680   15.0970   37.9180 C.3   301  AMP301      0.2184
     10  O3'      151.9130   15.1750   38.8860 O.3   301  AMP301     -0.2174
     11  C2'      150.0670   13.8450   38.0670 C.3   301  AMP301      0.2570
     12  O2'      150.1960   13.3070   39.3880 O.3   301  AMP301     -0.2130
     13  C1'      148.6430   14.2360   37.7510 C.3   301  AMP301      0.3186
     14  N9       148.1940   13.7350   36.3930 N.pl3 301  AMP301     -0.1439
     15  C8       148.1400   14.3920   35.2080 C.3   301  AMP301      0.3377
     16  N7       147.6620   13.5540   34.2600 N.2   301  AMP301     -0.2095
     17  C5       147.4100   12.3700   34.8350 C.2   301  AMP301      0.2526
     18  C6       146.9080   11.0930   34.4310 C.2   301  AMP301      0.4393
     19  N6       146.5470   10.8530   33.1450 N.pl3 301  AMP301      0.2180
     20  N1       146.7890   10.0680   35.3650 N.2   301  AMP301      0.0021
     21  C2       147.1380   10.2210   36.6830 C.3   301  AMP301      0.5254
     22  N3       147.6150   11.4330   37.0750 N.2   301  AMP301     -0.0055
     23  C4       147.7620   12.5020   36.2110 C.2   301  AMP301      0.3518
@<TRIPOS>BOND
     1    19    18    1
     2     3     1    2
     3    16    17    2
     4    16    15    1
     5    18    17    1
     6    18    20    2
     7    17    23    1
     8     2     1    1
     9     1     5    1
    10     1     4    1
    11    15    14    1
    12    20    21    1
    13     5     6    1
    14    23    14    1
    15    23    22    2
    16    14    13    1
    17    21    22    1
    18     6     7    1
    19    13     8    1
    20    13    11    1
    21     8     7    1
    22     9     7    1
    23     9    11    1
    24     9    10    1
    25    11    12    1
