@<TRIPOS>MOLECULE
1tbz_00Q_H_1.pdb
 38 41 0 0 0
SMALL
GASTEIGER

@<TRIPOS>ATOM
      1  N         15.9710  -16.7030   23.3420 N.3   343  00Q343     -0.1227
      2  CA        17.3180  -16.0350   23.3760 C.3   343  00Q343      0.1725
      3  C         17.1160  -14.6670   22.7340 C.2   343  00Q343      0.2475
      4  O         16.0980  -14.0640   23.1020 O.2   343  00Q343     -0.2730
      5  CB        17.7620  -15.9460   24.8420 C.3   343  00Q343      0.0547
      6  CG        19.1830  -15.4740   24.9790 C.ar  343  00Q343     -0.0202
      7  CD1       20.2040  -16.2210   24.3680 C.ar  343  00Q343     -0.0042
      8  CD2       19.4910  -14.3500   25.7500 C.ar  343  00Q343     -0.0042
      9  CE1       21.5530  -15.8030   24.4760 C.ar  343  00Q343     -0.0003
     10  CE2       20.8610  -13.9640   25.9140 C.ar  343  00Q343     -0.0003
     11  CZ        21.8870  -14.6860   25.2770 C.ar  343  00Q343     -0.0000
     12  NX        17.9660  -14.2630   21.8220 N.am  343  00Q343     -0.2492
     13  CAX       17.7500  -12.9700   21.0910 C.3   343  00Q343      0.1619
     14  CX        16.3630  -12.9590   20.4590 C.2   343  00Q343      0.2602
     15  OX        15.8110  -14.0260   20.1000 O.2   343  00Q343     -0.2715
     16  CBX       18.9190  -12.8540   20.1400 C.3   343  00Q343      0.0570
     17  CGX       19.8360  -14.0400   20.3510 C.2   343  00Q343     -0.0077
     18  CDX       19.1870  -14.9440   21.3740 C.2   343  00Q343      0.0634
     19  CY        14.3130  -10.6130   18.7370 C.3   343  00Q343      0.2291
     20  NY        15.6870  -11.8020   20.4690 N.am  343  00Q343     -0.2027
     21  OY        13.2540  -10.5190   18.0770 O.3   343  00Q343     -0.2130
     22  CAY       14.3470  -11.5500   19.9650 C.3   343  00Q343      0.1332
     23  CBY       13.3770  -10.9300   20.9830 C.3   343  00Q343      0.0284
     24  CDY       11.9120  -11.2870   22.9150 C.3   343  00Q343      0.2205
     25  NEY       11.2820  -12.2580   23.7470 N.pl3 343  00Q343     -0.0865
     26  CGY       12.9310  -11.8980   22.0430 C.3   343  00Q343      0.0488
     27  NH1       10.1850  -10.7810   25.0480 N.pl3 343  00Q343      0.1354
     28  NH2        9.7080  -13.0960   25.1750 N.pl3 343  00Q343      0.1354
     29  CZY       10.4450  -12.0770   24.7370 C.cat 343  00Q343      0.5346
     30  S1        14.9130  -12.5010   16.6110 S.3   343  00Q343     -0.0734
     31  N11       16.8410  -10.8090   17.1950 N.2   343  00Q343     -0.4006
     32  C17       15.6310  -11.0900   17.4900 C.2   343  00Q343      0.1666
     33  C21       17.2560  -11.5450   16.1110 C.2   343  00Q343      0.1234
     34  C31       18.4180  -11.2460   15.3590 C.2   343  00Q343      0.0287
     35  C41       18.7010  -11.9850   14.2280 C.2   343  00Q343      0.0020
     36  C51       17.8340  -13.0610   13.8240 C.2   343  00Q343     -0.0032
     37  C61       16.5480  -13.1150   14.3680 C.2   343  00Q343     -0.0082
     38  C71       16.2370  -12.2760   15.4610 C.3   343  00Q343      0.1280
@<TRIPOS>BOND
     1    36    35    1
     2    36    37    2
     3    35    34    2
     4    37    38    1
     5    34    33    1
     6    38    33    1
     7    38    30    1
     8    33    31    2
     9    30    32    1
    10    31    32    2
    11    32    19    1
    12    21    19    1
    13    19    22    1
    14    22    20    1
    15    22    23    1
    16    15    14    2
    17    16    17    1
    18    16    13    1
    19    17    18    2
    20    14    20   am
    21    14    13    1
    22    23    26    1
    23    13    12    1
    24    18    12    1
    25    12     3   am
    26    26    24    1
    27     3     4    2
    28     3     2    1
    29    24    25    1
    30     1     2    1
    31     2     5    1
    32    25    29    2
    33     7     9   ar
    34     7     6   ar
    35     9    11   ar
    36    29    27    1
    37    29    28    1
    38     5     6    1
    39     6     8   ar
    40    11    10   ar
    41     8    10   ar
