@<TRIPOS>MOLECULE
1tc0_ATP_A_1.pdb
 27 29 0 0 0
SMALL
GASTEIGER

@<TRIPOS>ATOM
      1  PB        96.6350   48.9190    0.6300 P.3   301  ATP301      0.5373
      2  O1B       95.9070   48.1310    1.6500 O.3   301  ATP301     -0.1143
      3  O2B       96.2390   48.5040   -0.8730 O.2   301  ATP301     -0.2221
      4  O3B       96.3320   50.4950    0.7570 O.3   301  ATP301     -0.1143
      5  PA        98.9310   47.5880    1.5470 P.3   301  ATP301      0.2231
      6  O1A      100.3930   47.8230    1.5200 O.2   301  ATP301     -0.5169
      7  O2A       98.2750   47.4730    2.8660 O.3   301  ATP301     -0.4370
      8  O3A       98.2370   48.7770    0.7110 O.3   301  ATP301     -0.2261
      9  O5'       98.5760   46.2980    0.6550 O.3   301  ATP301     -0.3111
     10  C5'       98.9170   46.2780   -0.7340 C.3   301  ATP301      0.1813
     11  C4'       98.2020   45.1270   -1.4430 C.3   301  ATP301      0.1821
     12  O4'       98.6120   43.8360   -0.9650 O.3   301  ATP301     -0.3135
     13  C3'       96.7070   45.1760   -1.1370 C.3   301  ATP301      0.2184
     14  O3'       96.1050   46.1700   -1.9720 O.3   301  ATP301     -0.2174
     15  C2'       96.3300   43.7880   -1.6470 C.3   301  ATP301      0.2570
     16  O2'       96.3150   43.7930   -3.0760 O.3   301  ATP301     -0.2130
     17  C1'       97.4990   42.9390   -1.1380 C.3   301  ATP301      0.3186
     18  N9        97.2030   42.3200    0.1750 N.pl3 301  ATP301     -0.1439
     19  C8        97.7800   42.6170    1.3380 C.3   301  ATP301      0.3377
     20  N7        97.3190   41.8030    2.2860 N.2   301  ATP301     -0.2095
     21  C5        96.4390   40.9780    1.7260 C.2   301  ATP301      0.2526
     22  C6        95.6570   39.9320    2.2060 C.2   301  ATP301      0.4393
     23  N6        95.7100   39.5630    3.4830 N.pl3 301  ATP301      0.2180
     24  N1        94.8190   39.2570    1.3100 N.2   301  ATP301      0.0021
     25  C2        94.7830   39.6470   -0.0370 C.3   301  ATP301      0.5254
     26  N3        95.5420   40.6470   -0.4520 N.2   301  ATP301     -0.0055
     27  C4        96.3590   41.3110    0.3790 C.2   301  ATP301      0.3518
@<TRIPOS>BOND
     1    16    15    1
     2    14    13    1
     3    15    17    1
     4    15    13    1
     5    11    13    1
     6    11    12    1
     7    11    10    1
     8    17    12    1
     9    17    18    1
    10     3     1    2
    11    10     9    1
    12    26    25    1
    13    26    27    2
    14    25    24    1
    15    18    27    1
    16    18    19    1
    17    27    21    1
    18     1     8    1
    19     1     4    1
    20     1     2    1
    21     9     5    1
    22     8     5    1
    23    24    22    2
    24    19    20    1
    25     6     5    2
    26     5     7    1
    27    21    22    1
    28    21    20    2
    29    22    23    1
