@<TRIPOS>MOLECULE
1tc1_FMB_A_1.pdb
 10 11 0 0 0
SMALL
GASTEIGER

@<TRIPOS>ATOM
      1  N1        -2.2560  -11.9370   20.1060 N.2   900  FMB900     -0.1739
      2  C2        -3.3590  -11.4540   20.7280 C.3   900  FMB900      0.2626
      3  N3        -4.4420  -10.9300   20.1490 N.2   900  FMB900     -0.2396
      4  C4        -4.3350  -10.9220   18.7490 C.2   900  FMB900      0.1297
      5  C5        -3.2150  -11.4050   18.0550 C.2   900  FMB900      0.2035
      6  C6        -2.1360  -11.9390   18.7640 C.1   900  FMB900      0.1734
      7  O6        -1.0780  -12.4010   18.1510 O.2   900  FMB900     -0.2205
      8  N7        -3.4380  -11.2470   16.7190 N.2   900  FMB900     -0.1344
      9  N8        -4.6650  -10.6730   16.5090 N.2   900  FMB900     -0.1440
     10  C9        -5.2360  -10.4630   17.7150 C.2   900  FMB900      0.1431
@<TRIPOS>BOND
     1     9     8    1
     2     9    10    2
     3     8     5    2
     4    10     4    1
     5     5     4    1
     6     5     6    1
     7     7     6    2
     8     4     3    2
     9     6     1    2
    10     1     2    1
    11     3     2    1
