@<TRIPOS>MOLECULE
1tc2_7HP_A_1.pdb
 10 11 0 0 0
SMALL
GASTEIGER

@<TRIPOS>ATOM
      1  C9        37.8800   62.6500   28.1250 C.2   800  7HP800      0.1431
      2  C4        36.6150   62.8960   28.6520 C.2   800  7HP800      0.1297
      3  N3        36.2460   62.7860   29.9490 N.2   800  7HP800     -0.2396
      4  C2        34.9130   63.0540   30.0910 C.3   800  7HP800      0.2626
      5  N1        34.0870   63.4060   29.0430 N.2   800  7HP800     -0.1739
      6  C6        34.4810   63.5420   27.7360 C.1   800  7HP800      0.1734
      7  O6        33.7050   63.9370   26.8940 O.2   800  7HP800     -0.2205
      8  C5        35.8180   63.2550   27.5840 C.2   800  7HP800      0.2035
      9  N7        36.5990   63.2360   26.4540 N.2   800  7HP800     -0.1344
     10  N8        37.7790   62.8760   26.8380 N.2   800  7HP800     -0.1440
@<TRIPOS>BOND
     1     9    10    1
     2     9     8    2
     3    10     1    2
     4     7     6    2
     5     8     6    1
     6     8     2    1
     7     6     5    2
     8     1     2    1
     9     2     3    2
    10     5     4    1
    11     3     4    1
