@<TRIPOS>MOLECULE
1tc2_PRP_A_1.pdb
 22 22 0 0 0
SMALL
GASTEIGER

@<TRIPOS>ATOM
      1  C1        39.9850   60.4380   30.4130 C.3   801  PRP801      0.2742
      2  C2        39.0920   59.2400   30.1380 C.3   801  PRP801      0.2408
      3  C3        40.0680   58.3750   29.2960 C.3   801  PRP801      0.2167
      4  C4        40.8020   59.4750   28.4850 C.3   801  PRP801      0.1808
      5  C5        40.0530   59.6480   27.1270 C.3   801  PRP801      0.1859
      6  O1        40.8350   60.1400   31.5540 O.3   801  PRP801     -0.2857
      7  O2        38.6960   58.6440   31.4360 O.3   801  PRP801     -0.2149
      8  O3        41.0790   57.6870   30.0170 O.3   801  PRP801     -0.2175
      9  O4        40.7650   60.6970   29.2640 O.3   801  PRP801     -0.3255
     10  O5        40.5260   60.7070   26.2550 O.3   801  PRP801     -0.2675
     11  P         41.8560   60.6390   25.2170 P.3   801  PRP801      0.5327
     12  O1P       41.6290   59.4840   24.2860 O.2   801  PRP801     -0.2224
     13  O2P       43.0060   60.3670   26.1230 O.3   801  PRP801     -0.1145
     14  O3P       41.8440   62.0100   24.6140 O.3   801  PRP801     -0.1145
     15  PA        41.2970   61.3020   32.6070 P.3   801  PRP801      0.2249
     16  O1A       42.5740   61.9040   32.1970 O.2   801  PRP801     -0.5169
     17  O2A       40.2250   62.2990   32.6100 O.3   801  PRP801     -0.4370
     18  O3A       41.3670   60.5010   33.8820 O.3   801  PRP801     -0.2260
     19  PB        40.2200   59.9270   34.6850 P.3   801  PRP801      0.5373
     20  O1B       39.0620   60.8750   34.7480 O.3   801  PRP801     -0.1143
     21  O2B       40.6820   59.6420   36.0190 O.3   801  PRP801     -0.1143
     22  O3B       39.8040   58.6300   34.1160 O.2   801  PRP801     -0.2221
@<TRIPOS>BOND
     1    12    11    2
     2    14    11    1
     3    11    13    1
     4    11    10    1
     5    10     5    1
     6     5     4    1
     7     4     9    1
     8     4     3    1
     9     9     1    1
    10     3     8    1
    11     3     2    1
    12     2     1    1
    13     2     7    1
    14     1     6    1
    15     6    15    1
    16    16    15    2
    17    15    17    1
    18    15    18    1
    19    18    19    1
    20    22    19    2
    21    19    20    1
    22    19    21    1
