@<TRIPOS>MOLECULE
1tc6_ADP_A_1.pdb
 27 29 0 0 0
SMALL
GASTEIGER

@<TRIPOS>ATOM
      1  PB        96.7580   48.9000    0.5900 P.3   301  ADP301      0.5373
      2  O1B       95.9970   48.1060    1.5810 O.3   301  ADP301     -0.1143
      3  O2B       96.3900   48.5140   -0.9270 O.2   301  ADP301     -0.2221
      4  O3B       96.4890   50.4810    0.7360 O.3   301  ADP301     -0.1143
      5  PA        99.0870   47.5800    1.5750 P.3   301  ADP301      0.2231
      6  O1A      100.5440   47.8310    1.4830 O.2   301  ADP301     -0.5169
      7  O2A       98.4970   47.4930    2.9280 O.3   301  ADP301     -0.4370
      8  O3A       98.3570   48.7350    0.7190 O.3   301  ADP301     -0.2261
      9  O5'       98.7610   46.2470    0.7360 O.3   301  ADP301     -0.3111
     10  C5'       99.1180   46.2090   -0.6490 C.3   301  ADP301      0.1813
     11  C4'       98.3620   45.0980   -1.3770 C.3   301  ADP301      0.1821
     12  O4'       98.7560   43.7900   -0.9310 O.3   301  ADP301     -0.3135
     13  C3'       96.8680   45.1650   -1.0630 C.3   301  ADP301      0.2184
     14  O3'       96.2680   46.1900   -1.8600 O.3   301  ADP301     -0.2174
     15  C2'       96.4790   43.8000   -1.6230 C.3   301  ADP301      0.2570
     16  O2'       96.4980   43.8530   -3.0520 O.3   301  ADP301     -0.2130
     17  C1'       97.6250   42.9200   -1.1140 C.3   301  ADP301      0.3186
     18  N9        97.3370   42.3260    0.2110 N.pl3 301  ADP301     -0.1439
     19  C8        97.9170   42.6630    1.3620 C.3   301  ADP301      0.3377
     20  N7        97.4730   41.8740    2.3370 N.2   301  ADP301     -0.2095
     21  C5        96.5970   41.0290    1.7990 C.2   301  ADP301      0.2526
     22  C6        95.7290   39.8940    2.3390 C.2   301  ADP301      0.4393
     23  N6        95.7460   39.5480    3.6230 N.pl3 301  ADP301      0.2180
     24  N1        94.9060   39.2360    1.4190 N.2   301  ADP301      0.0021
     25  C2        94.9090   39.6350    0.0740 C.3   301  ADP301      0.5254
     26  N3        95.6760   40.6230   -0.3550 N.2   301  ADP301     -0.0055
     27  C4        96.5030   41.3170    0.4440 C.2   301  ADP301      0.3518
@<TRIPOS>BOND
     1    16    15    1
     2    14    13    1
     3    15    17    1
     4    15    13    1
     5    11    13    1
     6    11    12    1
     7    11    10    1
     8    17    12    1
     9    17    18    1
    10     3     1    2
    11    10     9    1
    12    26    25    1
    13    26    27    2
    14    25    24    1
    15    18    27    1
    16    18    19    1
    17    27    21    1
    18     1     8    1
    19     1     4    1
    20     1     2    1
    21     8     5    1
    22     9     5    1
    23    19    20    1
    24    24    22    2
    25     6     5    2
    26     5     7    1
    27    21    20    2
    28    21    22    1
    29    22    23    1
