@<TRIPOS>MOLECULE
1tc8_TDA_A_1.pdb
 15 14 0 0 0
SMALL
GASTEIGER

@<TRIPOS>ATOM
      1  O21        0.0720   27.8160    3.5550 O.2   122  TDA122     -0.2671
      2  O22       -1.7400   26.4040    3.2710 O.2   122  TDA122     -0.2671
      3  C21       -0.3410   26.5590    3.0110 C.3   122  TDA122      0.4263
      4  C22        0.0020   26.5140    1.5070 C.3   122  TDA122      0.1045
      5  C23       -0.7160   27.5770    0.6340 C.3   122  TDA122      0.0338
      6  C24       -0.3660   27.4530   -0.8650 C.2   122  TDA122     -0.0304
      7  C25       -1.1510   28.0130   -2.0790 C.2   122  TDA122     -0.0307
      8  C26       -2.4120   28.8260   -2.1680 C.3   122  TDA122      0.0257
      9  C27       -2.6750   29.0560   -3.6940 C.3   122  TDA122      0.0047
     10  C28       -2.1720   28.3110   -4.9940 C.3   122  TDA122      0.0003
     11  C29       -0.7710   27.9840   -5.5870 C.3   122  TDA122      0.0000
     12  C30       -0.6390   26.4420   -5.6980 C.3   122  TDA122      0.0000
     13  C31        0.5210   25.7280   -6.4340 C.3   122  TDA122      0.0000
     14  C32        0.5550   24.2050   -6.2250 C.3   122  TDA122      0.0000
     15  C33        0.1580   23.3460   -7.4190 C.3   122  TDA122      0.0000
@<TRIPOS>BOND
     1    15    14    1
     2    13    14    1
     3    13    12    1
     4    12    11    1
     5    11    10    1
     6    10     9    1
     7     9     8    1
     8     8     7    1
     9     7     6    2
    10     6     5    1
    11     5     4    1
    12     4     3    1
    13     3     2    1
    14     3     1    1
