@<TRIPOS>MOLECULE
1tcb_BOG_A_1.pdb
 20 20 0 0 0
SMALL
GASTEIGER

@<TRIPOS>ATOM
      1  C1        11.3720   18.0160   13.6800 C.3   502  BOG502      0.2695
      2  O1        11.6530   17.8510   12.2870 O.3   502  BOG502     -0.3286
      3  C2        11.2280   16.6430   14.3360 C.3   502  BOG502      0.2406
      4  O2        10.1210   15.9630   13.7890 O.3   502  BOG502     -0.2149
      5  C3        11.0470   16.7740   15.8470 C.3   502  BOG502      0.2198
      6  O3        11.1030   15.4970   16.4510 O.3   502  BOG502     -0.2174
      7  C4        12.1320   17.6640   16.4390 C.3   502  BOG502      0.2144
      8  O4        11.8860   17.8770   17.8100 O.3   502  BOG502     -0.2176
      9  C5        12.1850   18.9970   15.7030 C.3   502  BOG502      0.1835
     10  O5        12.4200   18.7470   14.3170 O.3   502  BOG502     -0.3256
     11  C6        13.3050   19.8710   16.2510 C.3   502  BOG502      0.2142
     12  O6        14.5260   19.1620   16.2360 O.3   502  BOG502     -0.2176
     13  C1'       10.5450   18.1290   11.4300 C.3   502  BOG502      0.1449
     14  C2'       11.0940   18.8430   10.2070 C.3   502  BOG502      0.0322
     15  C3'       10.8870   18.0260    8.9430 C.3   502  BOG502      0.0026
     16  C4'       11.5040   18.7210    7.7420 C.3   502  BOG502      0.0001
     17  C5'       11.3560   17.8920    6.4770 C.3   502  BOG502      0.0000
     18  C6'       12.1110   18.5280    5.3190 C.3   502  BOG502      0.0000
     19  C7'       12.0320   17.6750    4.0650 C.3   502  BOG502      0.0000
     20  C8'       12.8880   18.2550    2.9600 C.3   502  BOG502      0.0000
@<TRIPOS>BOND
     1    20    19    1
     2    19    18    1
     3    18    17    1
     4    17    16    1
     5    16    15    1
     6    15    14    1
     7    14    13    1
     8    13     2    1
     9     2     1    1
    10     1    10    1
    11     1     3    1
    12     4     3    1
    13    10     9    1
    14     3     5    1
    15     9    11    1
    16     9     7    1
    17     5     7    1
    18     5     6    1
    19    12    11    1
    20     7     8    1
