@<TRIPOS>MOLECULE
1tcc_BOG_B_1.pdb
 20 20 0 0 0
SMALL
GASTEIGER

@<TRIPOS>ATOM
      1  C1        18.0460    6.3300   19.3430 C.3   501  BOG501      0.2695
      2  O1        17.5750    6.4020   20.6870 O.3   501  BOG501     -0.3286
      3  C2        16.9290    6.7130   18.3190 C.3   501  BOG501      0.2406
      4  O2        15.7710    5.8910   18.3890 O.3   501  BOG501     -0.2149
      5  C3        17.5410    6.6660   16.9030 C.3   501  BOG501      0.2198
      6  O3        16.5840    7.1160   15.9830 O.3   501  BOG501     -0.2174
      7  C4        18.7710    7.5700   16.7970 C.3   501  BOG501      0.2144
      8  O4        19.3350    7.4960   15.4890 O.3   501  BOG501     -0.2176
      9  C5        19.8000    7.1510   17.9180 C.3   501  BOG501      0.1835
     10  O5        19.1710    7.2060   19.2050 O.3   501  BOG501     -0.3256
     11  C6        20.9600    8.1430   17.9510 C.3   501  BOG501      0.2142
     12  O6        20.4580    9.4510   18.2210 O.3   501  BOG501     -0.2176
     13  C1'       18.3200    5.5620   21.5480 C.3   501  BOG501      0.1449
     14  C2'       17.4200    5.0040   22.6260 C.3   501  BOG501      0.0322
     15  C3'       18.1400    4.9910   23.9570 C.3   501  BOG501      0.0026
     16  C4'       17.2540    4.4730   25.0720 C.3   501  BOG501      0.0001
     17  C5'       17.9160    4.6870   26.4220 C.3   501  BOG501      0.0000
     18  C6'       16.9280    4.5150   27.5570 C.3   501  BOG501      0.0000
     19  C7'       17.4910    5.0800   28.8460 C.3   501  BOG501      0.0000
     20  C8'       16.4400    5.0320   29.9260 C.3   501  BOG501      0.0000
@<TRIPOS>BOND
     1     8     7    1
     2     6     5    1
     3     7     5    1
     4     7     9    1
     5     5     3    1
     6     9    11    1
     7     9    10    1
     8    11    12    1
     9     3     4    1
    10     3     1    1
    11    10     1    1
    12     1     2    1
    13     2    13    1
    14    13    14    1
    15    14    15    1
    16    15    16    1
    17    16    17    1
    18    17    18    1
    19    18    19    1
    20    19    20    1
