@<TRIPOS>MOLECULE
1tcr_FUC_A_1.pdb
 10 10 0 0 0
SMALL
GASTEIGER

@<TRIPOS>ATOM
      1  C1        10.0150  -16.9780    2.6830 C.3   217  FUC217      0.1776
      2  C2         9.2900  -16.0120    1.7420 C.3   217  FUC217      0.2141
      3  C3         9.6660  -14.5740    2.1570 C.3   217  FUC217      0.2172
      4  C4         9.5520  -14.3060    3.7040 C.3   217  FUC217      0.2116
      5  C5         9.9250  -15.4930    4.6230 C.3   217  FUC217      0.1483
      6  C6        11.3180  -15.6280    5.2540 C.3   217  FUC217      0.0349
      7  O2         7.8760  -16.2030    1.8240 O.3   217  FUC217     -0.2176
      8  O3        10.9920  -14.2850    1.7250 O.3   217  FUC217     -0.2175
      9  O4        10.3650  -13.1900    4.0690 O.3   217  FUC217     -0.2177
     10  O5         9.5540  -16.7650    4.0280 O.3   217  FUC217     -0.3508
@<TRIPOS>BOND
     1     8     3    1
     2     2     7    1
     3     2     3    1
     4     2     1    1
     5     3     4    1
     6     1    10    1
     7     4     9    1
     8     4     5    1
     9    10     5    1
    10     5     6    1
