@<TRIPOS>MOLECULE
1tcs_NDP_A_1.pdb
 48 52 0 0 0
SMALL
GASTEIGER

@<TRIPOS>ATOM
      1  PA        14.3000  -10.7460   36.6720 P.3   280  NDP280      0.2189
      2  O1A       12.9140  -11.2220   36.3600 O.2   280  NDP280     -0.5170
      3  O2A       14.5310  -11.0840   38.1910 O.3   280  NDP280     -0.4371
      4  O5B       14.2770   -9.0330   36.5600 O.3   280  NDP280     -0.3112
      5  C5B       13.1680   -8.3650   36.4000 C.3   280  NDP280      0.1813
      6  C4B       12.8950   -7.4270   37.5350 C.3   280  NDP280      0.1820
      7  O4B       14.2850   -7.1050   38.1430 O.3   280  NDP280     -0.3136
      8  C3B       12.3310   -8.2340   38.8380 C.3   280  NDP280      0.2157
      9  O3B       11.2060   -9.1480   38.7180 O.3   280  NDP280     -0.2175
     10  C2B       13.4900   -8.3420   39.8130 C.3   280  NDP280      0.2314
     11  O2B       14.3350   -9.4090   39.6610 O.3   280  NDP280     -0.2630
     12  C1B       13.9430   -6.9970   39.5970 C.3   280  NDP280      0.3158
     13  N9A       14.5420   -5.5760   39.9170 N.pl3 280  NDP280     -0.1439
     14  C8A       15.8050   -5.3690   40.5160 C.3   280  NDP280      0.3377
     15  N7A       16.1620   -4.1170   40.6840 N.2   280  NDP280     -0.2095
     16  C5A       15.2180   -3.3640   40.0770 C.2   280  NDP280      0.2526
     17  C6A       15.1180   -1.9050   39.9170 C.2   280  NDP280      0.4393
     18  N6A       15.9780   -1.0140   40.3410 N.pl3 280  NDP280      0.2180
     19  N1A       13.8970   -1.4900   39.3260 N.2   280  NDP280      0.0021
     20  C2A       13.0220   -2.3660   38.8620 C.3   280  NDP280      0.5254
     21  N3A       13.0910   -3.7710   38.9020 N.2   280  NDP280     -0.0055
     22  C4A       14.1930   -4.2630   39.5730 C.2   280  NDP280      0.3518
     23  O3        15.6020  -10.8920   35.9210 O.3   280  NDP280     -0.2703
     24  PN        17.1870  -11.0150   35.5770 P.3   280  NDP280      0.2189
     25  O1N       17.7590   -9.7550   35.0170 O.2   280  NDP280     -0.5170
     26  O2N       17.7860  -11.8520   36.6960 O.3   280  NDP280     -0.4371
     27  O5D       17.3140  -12.1360   34.3540 O.3   280  NDP280     -0.3112
     28  C5D       18.4660  -13.0190   34.3380 C.3   280  NDP280      0.1813
     29  C4D       18.4350  -14.2020   33.5630 C.3   280  NDP280      0.1799
     30  O4D       17.2260  -14.2710   32.5960 O.3   280  NDP280     -0.3327
     31  C3D       18.3810  -15.6160   34.2420 C.3   280  NDP280      0.2158
     32  O3D       19.6860  -16.0000   34.5380 O.3   280  NDP280     -0.2175
     33  C2D       17.4560  -16.5600   33.4750 C.3   280  NDP280      0.2309
     34  O2D       17.9050  -17.6510   33.0750 O.3   280  NDP280     -0.2158
     35  C1D       16.8030  -15.6080   32.3960 C.3   280  NDP280      0.2263
     36  N1N       16.7960  -16.2150   31.0370 N.pl3 280  NDP280     -0.2787
     37  C2N       16.2500  -17.5200   31.1330 C.3   280  NDP280      0.1244
     38  C3N       16.6920  -18.6340   30.5490 C.2   280  NDP280      0.0544
     39  C7N       16.0160  -19.9480   30.8050 C.2   280  NDP280      0.2818
     40  O7N       14.8450  -19.9400   31.2770 O.2   280  NDP280     -0.2670
     41  N7N       16.8530  -21.0460   30.4530 N.am  280  NDP280     -0.0839
     42  C4N       17.8670  -18.5800   29.5900 C.2   280  NDP280      0.0033
     43  C5N       18.3930  -17.1750   29.4620 C.2   280  NDP280      0.0157
     44  C6N       17.8630  -16.1530   30.1420 C.2   280  NDP280      0.0633
     45  P2B       15.9510   -9.6550   39.6290 P.3   280  NDP280      0.5328
     46  O1X       16.3620  -11.0450   39.4850 O.3   280  NDP280     -0.1145
     47  O2X       16.5190   -8.9250   40.8040 O.3   280  NDP280     -0.1145
     48  O3X       16.3390   -8.9180   38.3340 O.2   280  NDP280     -0.2224
@<TRIPOS>BOND
     1    43    42    1
     2    43    44    2
     3    42    38    2
     4    44    36    1
     5    41    39   am
     6    38    39    1
     7    38    37    1
     8    39    40    2
     9    36    37    1
    10    36    35    1
    11    35    30    1
    12    35    33    1
    13    30    29    1
    14    34    33    1
    15    33    31    1
    16    29    31    1
    17    29    28    1
    18    31    32    1
    19    28    27    1
    20    27    24    1
    21    25    24    2
    22    24    23    1
    23    24    26    1
    24    23     1    1
    25     2     1    2
    26     5     4    1
    27     5     6    1
    28     4     1    1
    29     1     3    1
    30     6     7    1
    31     6     8    1
    32     7    12    1
    33    48    45    2
    34     9     8    1
    35     8    10    1
    36    20    21    1
    37    20    19    1
    38    21    22    2
    39    19    17    2
    40    46    45    1
    41    22    13    1
    42    22    16    1
    43    12    10    1
    44    12    13    1
    45    45    11    1
    46    45    47    1
    47    11    10    1
    48    13    14    1
    49    17    16    1
    50    17    18    1
    51    16    15    2
    52    14    15    1
