@<TRIPOS>MOLECULE
1tcv_NDS_A_1.pdb
 12 11 0 0 0
SMALL
GASTEIGER

@<TRIPOS>ATOM
      1  O3         5.8480   29.6010   18.7950 O.3   951  NDS951     -0.3075
      2  S1         4.7770   29.2130   19.7350 S.3   951  NDS951     -0.1961
      3  O1         3.5720   28.9000   18.9420 O.3   951  NDS951     -0.3075
      4  O2         5.2100   28.1150   20.6200 O.3   951  NDS951     -0.3075
      5  C4         4.5270   30.4820   20.7890 C.3   951  NDS951      0.1031
      6  C3         5.8990   30.9980   21.2370 C.3   951  NDS951     -0.0007
      7  C2         5.8100   31.7540   22.5510 C.3   951  NDS951     -0.0715
      8  N1         6.6940   32.9410   22.6460 N.4   951  NDS951      0.3871
      9  C1         6.8250   33.2340   24.0850 C.3   951  NDS951     -0.0959
     10  C7         8.0480   32.6920   22.0900 C.3   951  NDS951     -0.0959
     11  C5         6.0270   34.0500   21.9280 C.3   951  NDS951     -0.0733
     12  C6         6.8160   35.3390   21.8150 C.3   951  NDS951     -0.0244
@<TRIPOS>BOND
     1     1     2    1
     2     3     2    1
     3     2     4    1
     4     2     5    1
     5     5     6    1
     6     6     7    1
     7    12    11    1
     8    11     8    1
     9    10     8    1
    10     7     8    1
    11     8     9    1
