@<TRIPOS>MOLECULE
1tcw_IM1_A_1.pdb
 39 41 0 0 0
SMALL
GASTEIGER

@<TRIPOS>ATOM
      1  C1        65.6370   22.3890   28.2640 C.3   400  IM1400      0.1379
      2  C2        66.4690   22.3900   29.5510 C.3   400  IM1400      0.0437
      3  C3        64.9440   23.7470   28.1780 C.3   400  IM1400      0.0437
      4  C4        66.5690   22.2510   27.0450 C.3   400  IM1400      0.0437
      5  O5        64.7250   21.3180   28.3790 O.3   400  IM1400     -0.4408
      6  C6        63.4510   21.2840   27.7980 C.2   400  IM1400      0.4209
      7  O7        62.5170   21.1780   28.6050 O.2   400  IM1400     -0.2246
      8  N8        63.3410   21.3520   26.4480 N.am  400  IM1400     -0.1675
      9  C9        62.0830   21.3250   25.7240 C.3   400  IM1400      0.1333
     10  C10       61.9880   22.4480   24.6670 C.3   400  IM1400      0.0507
     11  C11       60.6020   23.0890   24.6590 C.ar  400  IM1400     -0.0204
     12  C12       60.0290   23.5620   25.8610 C.ar  400  IM1400     -0.0042
     13  C13       58.7370   24.1140   25.8670 C.ar  400  IM1400     -0.0003
     14  C14       58.0150   24.1990   24.6770 C.ar  400  IM1400     -0.0000
     15  C15       58.5790   23.7350   23.4860 C.ar  400  IM1400     -0.0003
     16  C16       59.8660   23.1830   23.4720 C.ar  400  IM1400     -0.0042
     17  C17       61.8830   19.9970   25.0350 C.3   400  IM1400      0.1727
     18  O18       60.4760   19.7980   24.9850 O.3   400  IM1400     -0.2213
     19  C19       62.4620   19.7030   23.6640 C.3   400  IM1400      0.0442
     20  C20       61.9020   18.3270   23.3700 C.3   400  IM1400      0.0851
     21  C21       61.3720   18.1750   21.9860 C.3   400  IM1400      0.0356
     22  C22       62.1540   18.5930   20.8150 C.ar  400  IM1400     -0.0217
     23  C23       61.8930   19.8490   20.2640 C.ar  400  IM1400     -0.0043
     24  C24       62.5310   20.2060   19.0850 C.ar  400  IM1400     -0.0003
     25  C25       63.4180   19.3030   18.4860 C.ar  400  IM1400     -0.0000
     26  C26       63.6660   18.0540   19.0690 C.ar  400  IM1400     -0.0003
     27  C27       63.0280   17.6860   20.2520 C.ar  400  IM1400     -0.0043
     28  C28       62.7460   17.1140   23.5930 C.2   400  IM1400      0.2422
     29  O29       63.9440   16.9470   23.3270 O.2   400  IM1400     -0.2733
     30  N30       61.9740   16.2250   24.1970 N.am  400  IM1400     -0.1919
     31  C31       62.5800   14.9710   24.5610 C.3   400  IM1400      0.1794
     32  C32       62.6790   14.9710   26.1200 C.3   400  IM1400      0.0343
     33  C33       63.6280   13.8950   26.5310 C.3   400  IM1400      0.0029
     34  C34       63.3690   16.2190   26.6700 C.3   400  IM1400      0.0029
     35  C35       61.7940   13.8380   23.9510 C.1   400  IM1400      0.0316
     36  N36       62.4300   13.2360   22.9460 N.2   400  IM1400     -0.1932
     37  C37       61.5510   12.2910   22.4790 C.2   400  IM1400      0.1307
     38  C38       60.4080   12.4230   23.2800 C.2   400  IM1400      0.1307
     39  N39       60.5870   13.4280   24.2190 N.2   400  IM1400     -0.1932
@<TRIPOS>BOND
     1    25    26   ar
     2    25    24   ar
     3    26    27   ar
     4    24    23   ar
     5    27    22   ar
     6    23    22   ar
     7    22    21    1
     8    21    20    1
     9    37    36    1
    10    37    38    2
    11    36    35    2
    12    38    39    1
    13    29    28    2
    14    20    28    1
    15    20    19    1
    16    16    15   ar
    17    16    11   ar
    18    15    14   ar
    19    28    30   am
    20    19    17    1
    21    35    39    2
    22    35    31    1
    23    30    31    1
    24    31    32    1
    25    11    10    1
    26    11    12   ar
    27    10     9    1
    28    14    13   ar
    29    18    17    1
    30    17     9    1
    31     9     8    1
    32    12    13   ar
    33    32    33    1
    34    32    34    1
    35     8     6   am
    36     4     1    1
    37     6     5    1
    38     6     7    2
    39     3     1    1
    40     1     5    1
    41     1     2    1
