@<TRIPOS>MOLECULE
1tcx_IM1_A_1.pdb
 39 41 0 0 0
SMALL
GASTEIGER

@<TRIPOS>ATOM
      1  C1        16.0320   19.1690    3.6700 C.3   400  IM1400      0.1379
      2  C2        17.2640   18.5970    3.0080 C.3   400  IM1400      0.0437
      3  C3        15.4290   17.9750    4.3850 C.3   400  IM1400      0.0437
      4  C4        15.1010   19.6680    2.5830 C.3   400  IM1400      0.0437
      5  O5        16.4370   20.1680    4.5570 O.3   400  IM1400     -0.4408
      6  C6        15.5330   20.9730    5.2510 C.2   400  IM1400      0.4209
      7  O7        14.4020   20.6100    5.6320 O.2   400  IM1400     -0.2246
      8  N8        15.8970   22.2070    5.5140 N.am  400  IM1400     -0.1675
      9  C9        14.9560   23.0620    6.2390 C.3   400  IM1400      0.1333
     10  C10       15.7410   23.6020    7.4380 C.3   400  IM1400      0.0507
     11  C11       16.2490   22.4870    8.3460 C.ar  400  IM1400     -0.0204
     12  C12       17.6100   22.1560    8.3590 C.ar  400  IM1400     -0.0042
     13  C13       18.0550   21.1190    9.1810 C.ar  400  IM1400     -0.0003
     14  C14       17.1490   20.4110    9.9930 C.ar  400  IM1400     -0.0000
     15  C15       15.7970   20.7450    9.9780 C.ar  400  IM1400     -0.0003
     16  C16       15.3430   21.7870    9.1510 C.ar  400  IM1400     -0.0042
     17  C17       14.2390   24.1750    5.4160 C.3   400  IM1400      0.1727
     18  O18       15.1250   24.9730    4.6860 O.3   400  IM1400     -0.2213
     19  C19       13.3260   23.6540    4.3360 C.3   400  IM1400      0.0442
     20  C20       12.1530   24.5450    4.0370 C.3   400  IM1400      0.0851
     21  C21       11.3850   23.9130    2.8600 C.3   400  IM1400      0.0356
     22  C22        9.9830   24.4580    2.6170 C.ar  400  IM1400     -0.0217
     23  C23        8.8750   23.6660    2.9090 C.ar  400  IM1400     -0.0043
     24  C24        7.5900   24.1650    2.6840 C.ar  400  IM1400     -0.0003
     25  C25        7.3960   25.4520    2.1700 C.ar  400  IM1400     -0.0000
     26  C26        8.5010   26.2440    1.8800 C.ar  400  IM1400     -0.0003
     27  C27        9.7890   25.7470    2.1020 C.ar  400  IM1400     -0.0043
     28  C28       11.2680   24.6780    5.2890 C.2   400  IM1400      0.2422
     29  O29       11.1430   23.7870    6.1390 O.2   400  IM1400     -0.2733
     30  N30       10.6160   25.8120    5.4330 N.am  400  IM1400     -0.1919
     31  C31        9.7290   26.0560    6.5610 C.3   400  IM1400      0.1794
     32  C32       10.3910   26.7680    7.7500 C.3   400  IM1400      0.0343
     33  C33        9.4470   26.6250    8.8760 C.3   400  IM1400      0.0029
     34  C34       11.6420   26.1210    8.2630 C.3   400  IM1400      0.0029
     35  C35        8.6810   26.9950    5.9480 C.1   400  IM1400      0.0316
     36  N36        8.8080   28.0530    5.1270 N.2   400  IM1400     -0.1932
     37  C37        7.5050   28.2600    4.7230 C.2   400  IM1400      0.1307
     38  C38        6.6720   27.3110    5.3280 C.2   400  IM1400      0.1307
     39  N39        7.4660   26.5120    6.1110 N.2   400  IM1400     -0.1932
@<TRIPOS>BOND
     1    26    27   ar
     2    26    25   ar
     3    27    22   ar
     4    25    24   ar
     5     4     1    1
     6    22    21    1
     7    22    23   ar
     8    24    23   ar
     9    21    20    1
    10     2     1    1
    11     1     3    1
    12     1     5    1
    13    20    19    1
    14    20    28    1
    15    19    17    1
    16     5     6    1
    17    18    17    1
    18    37    36    1
    19    37    38    2
    20    36    35    2
    21     6     8   am
    22     6     7    2
    23    28    30   am
    24    28    29    2
    25    38    39    1
    26    17     9    1
    27    30    31    1
    28     8     9    1
    29    35    39    2
    30    35    31    1
    31     9    10    1
    32    31    32    1
    33    10    11    1
    34    32    34    1
    35    32    33    1
    36    11    12   ar
    37    11    16   ar
    38    12    13   ar
    39    16    15   ar
    40    13    14   ar
    41    15    14   ar
