@<TRIPOS>MOLECULE
1td2_PXL_A_1.pdb
 12 12 0 0 0
SMALL
GASTEIGER

@<TRIPOS>ATOM
      1  OP4       16.0850   -1.0290   31.4250 O.3   288  PXL288     -0.2151
      2  C5A       16.3190   -2.4180   31.6030 C.3   288  PXL288      0.2100
      3  C5        15.0780   -3.2410   31.2450 C.ar  288  PXL288      0.0313
      4  C6        14.7310   -3.3920   29.8780 C.ar  288  PXL288      0.0967
      5  N1        13.5910   -4.1550   29.5330 N.ar  288  PXL288     -0.2452
      6  C2        12.8020   -4.7610   30.5040 C.ar  288  PXL288      0.0979
      7  C3        13.1120   -4.6190   31.9090 C.ar  288  PXL288      0.2073
      8  C4        14.2750   -3.8500   32.3010 C.ar  288  PXL288      0.0507
      9  C4A       14.6900   -3.6940   33.7680 C.3   288  PXL288      0.2116
     10  O4A       13.5260   -3.6210   34.5790 O.3   288  PXL288     -0.2151
     11  O3        12.2710   -5.2370   32.8550 O.3   288  PXL288     -0.2856
     12  C2A       11.5850   -5.5970   30.0820 C.3   288  PXL288      0.0555
@<TRIPOS>BOND
     1     5     4   ar
     2     5     6   ar
     3     4     3   ar
     4    12     6    1
     5     6     7   ar
     6     3     2    1
     7     3     8   ar
     8     1     2    1
     9     7     8   ar
    10     7    11    1
    11     8     9    1
    12     9    10    1
