@<TRIPOS>MOLECULE
1td7_NFL_A_1.pdb
 20 21 0 0 0
SMALL
GASTEIGER

@<TRIPOS>ATOM
      1  F3         9.6370   10.8690    6.7250 F     2001  NFL2001    -0.1659
      2  C15       10.9360   11.0920    6.9260 C.3   2001  NFL2001     0.4186
      3  F1        11.5690    9.9370    6.7290 F     2001  NFL2001    -0.1659
      4  F2        11.2370   11.4250    8.1800 F     2001  NFL2001    -0.1659
      5  C9        11.5150   11.9890    5.8520 C.ar  2001  NFL2001     0.0727
      6  C10       10.7960   12.5070    4.7430 C.ar  2001  NFL2001     0.0204
      7  C11       11.4490   13.2950    3.7630 C.ar  2001  NFL2001     0.0721
      8  C12       12.8150   13.5120    3.9320 C.ar  2001  NFL2001     0.0165
      9  C13       13.5200   12.9860    5.0110 C.ar  2001  NFL2001     0.0013
     10  C14       12.8760   12.2240    5.9670 C.ar  2001  NFL2001     0.0039
     11  N2        10.9080   13.8960    2.6330 N.pl3 2001  NFL2001    -0.1940
     12  C1         9.6240   13.9240    2.1130 C.ar  2001  NFL2001     0.1581
     13  N1         8.6180   13.2880    2.7560 N.ar  2001  NFL2001    -0.2272
     14  C2         9.2600   14.6540    0.8300 C.ar  2001  NFL2001     0.1130
     15  C6        10.2270   15.4370   -0.0590 C.2   2001  NFL2001     0.3905
     16  O8        11.4180   15.5370    0.2140 O.co2 2001  NFL2001    -0.2404
     17  O7         9.8340   15.9900   -1.0890 O.co2 2001  NFL2001    -0.2404
     18  C3         7.9280   14.6030    0.4020 C.ar  2001  NFL2001     0.0111
     19  C4         6.9800   13.9110    1.1450 C.ar  2001  NFL2001     0.0210
     20  C5         7.3530   13.2680    2.3120 C.ar  2001  NFL2001     0.1004
@<TRIPOS>BOND
     1    17    15   ar
     2    15    16   ar
     3    15    14    1
     4    18    14   ar
     5    18    19   ar
     6    14    12   ar
     7    19    20   ar
     8    12    11    1
     9    12    13   ar
    10    20    13   ar
    11    11     7    1
    12     7     8   ar
    13     7     6   ar
    14     8     9   ar
    15     6     5   ar
    16     9    10   ar
    17     5    10   ar
    18     5     2    1
    19     1     2    1
    20     3     2    1
    21     2     4    1
