@<TRIPOS>MOLECULE
1tdb_UFP_A_1.pdb
 21 22 0 0 0
SMALL
GASTEIGER

@<TRIPOS>ATOM
      1  N1        15.1800   49.0700  -54.3000 N.am  529  UFP529     -0.1768
      2  C2        14.3300   47.9500  -54.2000 C.1   529  UFP529      0.2846
      3  N3        14.1200   47.4500  -52.9000 N.2   529  UFP529     -0.2430
      4  C4        14.6900   47.9900  -51.7500 C.1   529  UFP529      0.2454
      5  C5        15.5400   49.1600  -51.9600 C.2   529  UFP529      0.2499
      6  C6        15.7400   49.6600  -53.2200 C.2   529  UFP529      0.1221
      7  O2        13.7400   47.4500  -55.1900 O.2   529  UFP529     -0.1918
      8  O4        14.4100   47.4400  -50.6700 O.2   529  UFP529     -0.2062
      9  F5        16.1900   49.6800  -50.9700 F     529  UFP529     -0.1891
     10  C1'       15.8000   49.3800  -55.6200 C.3   529  UFP529      0.2091
     11  C2'       15.6200   48.5700  -56.9000 C.3   529  UFP529      0.0874
     12  C3'       16.8000   48.8600  -57.8300 C.3   529  UFP529      0.1857
     13  C4'       17.2800   50.2600  -57.2200 C.3   529  UFP529      0.1774
     14  O3'       17.8100   47.8700  -57.6300 O.3   529  UFP529     -0.2203
     15  O4'       16.9600   50.2400  -55.7600 O.3   529  UFP529     -0.3339
     16  C5'       16.5500   51.4900  -57.8100 C.3   529  UFP529      0.1858
     17  O5'       16.7600   51.5900  -59.2500 O.3   529  UFP529     -0.2675
     18  P         15.7200   51.9300  -60.2500 P.3   529  UFP529      0.5327
     19  O1P       16.3600   52.1700  -61.4700 O.2   529  UFP529     -0.2224
     20  O2P       14.9400   50.7500  -60.2400 O.3   529  UFP529     -0.1145
     21  O3P       15.0700   53.0200  -59.5700 O.3   529  UFP529     -0.1145
@<TRIPOS>BOND
     1    19    18    2
     2    18    20    1
     3    18    21    1
     4    18    17    1
     5    17    16    1
     6    12    14    1
     7    12    13    1
     8    12    11    1
     9    16    13    1
    10    13    15    1
    11    11    10    1
    12    15    10    1
    13    10     1    1
    14     7     2    2
    15     1     2   am
    16     1     6    1
    17     2     3    2
    18     6     5    2
    19     3     4    2
    20     5     4    1
    21     5     9    1
    22     4     8    2
