@<TRIPOS>MOLECULE
1tdc_UMP_A_1.pdb
 20 21 0 0 0
SMALL
GASTEIGER

@<TRIPOS>ATOM
      1  N1        14.8210   48.4950  -54.2340 N.am  529  UMP529     -0.1790
      2  C2        13.7810   47.7170  -53.8570 C.1   529  UMP529      0.2844
      3  N3        13.5290   47.6060  -52.5590 N.2   529  UMP529     -0.2452
      4  C4        14.2480   48.2080  -51.5660 C.1   529  UMP529      0.2182
      5  C5        15.3160   49.0180  -52.0660 C.2   529  UMP529      0.1242
      6  C6        15.5480   49.1320  -53.4010 C.2   529  UMP529      0.0928
      7  O2        13.1000   47.0580  -54.6030 O.2   529  UMP529     -0.1918
      8  O4        14.0530   47.9780  -50.3510 O.2   529  UMP529     -0.2085
      9  C1'       15.3980   48.6160  -55.5640 C.3   529  UMP529      0.2090
     10  C2'       15.1160   47.9580  -56.8570 C.3   529  UMP529      0.0874
     11  C3'       16.3890   48.1750  -57.6490 C.3   529  UMP529      0.1857
     12  C4'       16.8050   49.5430  -57.1460 C.3   529  UMP529      0.1774
     13  O3'       17.3610   47.2440  -57.2170 O.3   529  UMP529     -0.2203
     14  O4'       16.4500   49.5740  -55.7770 O.3   529  UMP529     -0.3339
     15  C5'       16.1060   50.7010  -57.7650 C.3   529  UMP529      0.1858
     16  O5'       16.6500   50.8080  -59.0910 O.3   529  UMP529     -0.2675
     17  P         15.7690   51.2060  -60.2430 P.3   529  UMP529      0.5327
     18  OP1       16.7390   51.3720  -61.3260 O.2   529  UMP529     -0.2224
     19  OP2       14.9450   50.0330  -60.3670 O.3   529  UMP529     -0.1145
     20  OP3       15.0600   52.4040  -59.7110 O.3   529  UMP529     -0.1145
@<TRIPOS>BOND
     1    18    17    2
     2    19    17    1
     3    17    20    1
     4    17    16    1
     5    16    15    1
     6    15    12    1
     7    11    13    1
     8    11    12    1
     9    11    10    1
    10    12    14    1
    11    10     9    1
    12    14     9    1
    13     9     1    1
    14     7     2    2
    15     1     2   am
    16     1     6    1
    17     2     3    2
    18     6     5    2
    19     3     4    2
    20     5     4    1
    21     4     8    2
