@<TRIPOS>MOLECULE
1tdg_MA4_A_1.pdb
 35 37 0 0 0
SMALL
GASTEIGER

@<TRIPOS>ATOM
      1  C1        35.7280   25.2230    2.0560 C.3   700  MA4700      0.2695
      2  C2        36.3100   24.5340    0.7790 C.3   700  MA4700      0.2406
      3  C3        36.0650   22.9960    0.7760 C.3   700  MA4700      0.2198
      4  C4        36.4510   22.3530    2.1510 C.3   700  MA4700      0.2144
      5  C5        35.9940   23.2070    3.3770 C.3   700  MA4700      0.1835
      6  C6        36.5310   22.6510    4.7290 C.3   700  MA4700      0.2142
      7  O2        35.7880   25.1300   -0.4190 O.3   700  MA4700     -0.2149
      8  O3        36.8250   22.3910   -0.2880 O.3   700  MA4700     -0.2174
      9  O5        36.3070   24.6470    3.2270 O.3   700  MA4700     -0.3256
     10  O6        37.9660   22.5710    4.7440 O.3   700  MA4700     -0.2176
     11  O1        34.2730   25.1280    2.1410 O.3   700  MA4700     -0.3257
     12  O4        35.8700   21.0440    2.2510 O.3   700  MA4700     -0.2176
     13  C10       30.9840   27.6570    2.6630 C.3   700  MA4700      0.2695
     14  C20       31.7940   27.9530    1.3570 C.3   700  MA4700      0.2404
     15  C30       32.7780   26.7790    1.0490 C.3   700  MA4700      0.2167
     16  C40       33.6290   26.4200    2.3100 C.3   700  MA4700      0.1804
     17  C50       32.7500   26.3520    3.5920 C.3   700  MA4700      0.1803
     18  C60       33.6220   26.1660    4.8710 C.3   700  MA4700      0.2141
     19  O10       30.0840   28.7860    3.0290 O.3   700  MA4700     -0.3286
     20  O20       30.9290   28.2040    0.2340 O.3   700  MA4700     -0.2149
     21  O30       33.6470   27.1430   -0.0350 O.3   700  MA4700     -0.2175
     22  O50       31.8980   27.4970    3.7340 O.3   700  MA4700     -0.3257
     23  O60       34.6500   27.1650    4.9670 O.3   700  MA4700     -0.2176
     24  C11       28.8750   28.3120    3.6300 C.3   700  MA4700      0.1449
     25  C21       27.9810   27.7140    2.5560 C.3   700  MA4700      0.0322
     26  C31       26.6710   27.2270    3.1400 C.3   700  MA4700      0.0026
     27  C41       25.8830   28.3780    3.7420 C.3   700  MA4700      0.0001
     28  C51       24.6470   27.8910    4.4720 C.3   700  MA4700      0.0000
     29  C61       25.0080   26.9100    5.5710 C.3   700  MA4700      0.0000
     30  C12       23.8120   26.7800    6.4920 C.3   700  MA4700      0.0000
     31  C22       24.0370   27.6660    7.7720 C.3   700  MA4700      0.0000
     32  C32       22.7700   27.6200    8.7000 C.3   700  MA4700      0.0000
     33  C42       22.3500   26.1320    9.0660 C.3   700  MA4700      0.0000
     34  C52       22.2950   25.1600    7.8120 C.3   700  MA4700      0.0000
     35  C62       23.5630   25.2810    6.8850 C.3   700  MA4700      0.0000
@<TRIPOS>BOND
     1     7     2    1
     2     8     3    1
     3    21    15    1
     4    20    14    1
     5     3     2    1
     6     3     4    1
     7     2     1    1
     8    15    14    1
     9    15    16    1
    10    14    13    1
    11     1    11    1
    12     1     9    1
    13    11    16    1
    14     4    12    1
    15     4     5    1
    16    16    17    1
    17    25    26    1
    18    25    24    1
    19    13    19    1
    20    13    22    1
    21    19    24    1
    22    26    27    1
    23     9     5    1
    24     5     6    1
    25    17    22    1
    26    17    18    1
    27    27    28    1
    28    28    29    1
    29     6    10    1
    30    18    23    1
    31    29    30    1
    32    30    35    1
    33    30    31    1
    34    35    34    1
    35    31    32    1
    36    34    33    1
    37    32    33    1
