@<TRIPOS>MOLECULE
1tdg_TBE_A_1.pdb
 20 20 0 0 0
SMALL
GASTEIGER

@<TRIPOS>ATOM
      1  S1        11.1220   33.8220   -0.2780 S.3   701  TBE701     -0.0175
      2  O12       12.5310   34.0110   -0.4960 O.3   701  TBE701     -0.0782
      3  O13       10.6860   32.8320    0.6670 O.3   701  TBE701     -0.0782
      4  C2        10.4030   35.4320    0.0600 C.3   701  TBE701      0.1592
      5  C3        10.7570   35.9280    1.5090 C.3   701  TBE701      0.2167
      6  N4        10.2250   35.0140    2.5370 N.pl3 701  TBE701     -0.2248
      7  C5         9.9600   35.5880    3.7170 C.2   701  TBE701      0.0841
      8  C20       10.9270   36.4360   -0.9880 C.3   701  TBE701      0.0278
      9  C14        8.8560   35.2920   -0.0990 C.3   701  TBE701      0.1530
     10  N15        8.1610   36.5750    0.0870 N.ar  701  TBE701     -0.2284
     11  N16        7.9570   37.3420   -0.9820 N.ar  701  TBE701     -0.0637
     12  N17        7.3010   38.3950   -0.5540 N.ar  701  TBE701     -0.1271
     13  C18        7.6460   37.1230    1.1830 C.ar  701  TBE701      0.1193
     14  C19        7.0980   38.2850    0.7670 C.ar  701  TBE701      0.1441
     15  C9        12.2520   36.1220    1.7070 C.2   701  TBE701      0.3858
     16  O10       12.9820   35.1540    2.0090 O.co2 701  TBE701     -0.2437
     17  O11       12.7580   37.2530    1.5640 O.co2 701  TBE701     -0.2437
     18  C6         9.5000   34.8350    4.8490 C.2   701  TBE701      0.0628
     19  C7         9.2750   33.3330    4.7970 C.2   701  TBE701      0.2356
     20  O8         9.8700   32.6610    4.0100 O.2   701  TBE701     -0.2831
@<TRIPOS>BOND
     1     8     4    1
     2    11    12   ar
     3    11    10   ar
     4    12    14   ar
     5     2     1    1
     6     1     4    1
     7     1     3    1
     8     9     4    1
     9     9    10    1
    10     4     5    1
    11    10    13   ar
    12    14    13   ar
    13     5    15    1
    14     5     6    1
    15    17    15   ar
    16    15    16   ar
    17     6     7    1
    18     7    18    2
    19    20    19    2
    20    19    18    1
