@<TRIPOS>MOLECULE
1tdi_GSH_A_1.pdb
 20 19 0 0 0
SMALL
GASTEIGER

@<TRIPOS>ATOM
      1  N1        11.1700    7.0710   43.1880 N.3   223  GSH223     -0.1208
      2  CA1       10.8370    8.1280   42.1030 C.3   223  GSH223      0.1948
      3  C1         9.9850    7.5220   41.0550 C.2   223  GSH223      0.3819
      4  O11        9.1740    8.0760   40.2720 O.co2 223  GSH223     -0.2441
      5  O12       10.0010    6.1580   40.8050 O.co2 223  GSH223     -0.2441
      6  CB1       12.2940    8.5010   41.5790 C.3   223  GSH223      0.0402
      7  CG1       12.1520    9.7220   40.6570 C.3   223  GSH223      0.0889
      8  CD1       13.4650   10.2930   40.1900 C.2   223  GSH223      0.2418
      9  OE1       14.6180   10.0430   40.6730 O.2   223  GSH223     -0.2733
     10  N2        13.3490   11.1980   39.1210 N.am  223  GSH223     -0.1968
     11  CA2       14.6070   11.8420   38.6090 C.3   223  GSH223      0.1843
     12  C2        14.4590   13.3940   38.9560 C.2   223  GSH223      0.2627
     13  O2        13.3750   13.8240   38.5580 O.2   223  GSH223     -0.2714
     14  CB2       14.7100   11.6460   37.0560 C.3   223  GSH223      0.0997
     15  SG2       15.1870    9.9390   36.8190 S.3   223  GSH223     -0.0797
     16  N3        15.5210   13.9110   39.5670 N.am  223  GSH223     -0.1917
     17  CA3       15.5880   15.3620   39.9150 C.3   223  GSH223      0.2285
     18  C3        15.7670   15.5650   41.4120 C.2   223  GSH223      0.3865
     19  O31       15.6420   16.7300   41.9090 O.co2 223  GSH223     -0.2437
     20  O32       16.0580   14.4590   42.1250 O.co2 223  GSH223     -0.2437
@<TRIPOS>BOND
     1    15    14    1
     2    14    11    1
     3    13    12    2
     4    11    12    1
     5    11    10    1
     6    12    16   am
     7    10     8   am
     8    16    17    1
     9    17    18    1
    10     8     7    1
    11     8     9    2
    12     4     3   ar
    13     7     6    1
    14     5     3   ar
    15     3     2    1
    16    18    19   ar
    17    18    20   ar
    18     6     2    1
    19     2     1    1
