@<TRIPOS>MOLECULE
1tdj_PLP_A_1.pdb
 15 15 0 0 0
SMALL
GASTEIGER

@<TRIPOS>ATOM
      1  N1       -15.4090    5.6710   22.8940 N.ar  962  PLP962     -0.2452
      2  C2       -14.3850    6.6080   22.7300 C.ar  962  PLP962      0.0978
      3  C2A      -12.9150    6.2970   22.9620 C.3   962  PLP962      0.0555
      4  C3       -14.7130    7.9230   22.4160 C.ar  962  PLP962      0.2049
      5  O3       -13.7980    8.9380   22.2260 O.3   962  PLP962     -0.2857
      6  C4       -16.0000    8.3420   22.1530 C.ar  962  PLP962      0.0182
      7  C4A      -16.1340    9.8390   21.8460 C.3   962  PLP962      0.0342
      8  C5       -17.0640    7.4010   22.3090 C.ar  962  PLP962      0.0261
      9  C6       -16.7150    6.1130   22.6900 C.ar  962  PLP962      0.0965
     10  C5A      -18.6110    7.4560   22.0410 C.3   962  PLP962      0.1815
     11  O4P      -19.0900    8.5990   21.2750 O.3   962  PLP962     -0.2653
     12  P        -20.4870    8.7470   20.7480 P.3   962  PLP962      0.5329
     13  O1P      -21.0540    9.8740   21.4840 O.3   962  PLP962     -0.1145
     14  O2P      -21.2540    7.5440   21.0860 O.3   962  PLP962     -0.1145
     15  O3P      -20.4320    9.0910   19.3040 O.2   962  PLP962     -0.2224
@<TRIPOS>BOND
     1    15    12    2
     2    12    14    1
     3    12    11    1
     4    12    13    1
     5    11    10    1
     6     7     6    1
     7    10     8    1
     8     6     8   ar
     9     6     4   ar
    10     5     4    1
    11     8     9   ar
    12     4     2   ar
    13     9     1   ar
    14     2     1   ar
    15     2     3    1
