@<TRIPOS>MOLECULE
1tdl_MA4_A_1.pdb
 35 37 0 0 0
SMALL
GASTEIGER

@<TRIPOS>ATOM
      1  C1        35.6180   25.2600    1.9950 C.3   800  MA4800      0.2695
      2  C2        36.1530   24.5660    0.7010 C.3   800  MA4800      0.2406
      3  C3        35.9200   23.0240    0.7090 C.3   800  MA4800      0.2198
      4  C4        36.3140   22.3840    2.0830 C.3   800  MA4800      0.2144
      5  C5        35.8700   23.2460    3.3050 C.3   800  MA4800      0.1835
      6  C6        36.3870   22.6780    4.6570 C.3   800  MA4800      0.2142
      7  O2        35.5870   25.1530   -0.4820 O.3   800  MA4800     -0.2149
      8  O3        36.6740   22.4160   -0.3570 O.3   800  MA4800     -0.2174
      9  O5        36.2150   24.6650    3.1520 O.3   800  MA4800     -0.3256
     10  O6        37.8200   22.6030    4.6980 O.3   800  MA4800     -0.2176
     11  O1        34.1610   25.2010    2.1230 O.3   800  MA4800     -0.3257
     12  O4        35.7250   21.0810    2.2060 O.3   800  MA4800     -0.2176
     13  C10       30.9620   27.8510    2.7050 C.3   800  MA4800      0.2695
     14  C20       31.7380   28.0960    1.3700 C.3   800  MA4800      0.2404
     15  C30       32.6680   26.8830    1.0460 C.3   800  MA4800      0.2167
     16  C40       33.5430   26.5150    2.2880 C.3   800  MA4800      0.1804
     17  C50       32.6930   26.4890    3.5930 C.3   800  MA4800      0.1803
     18  C60       33.5770   26.2640    4.8590 C.3   800  MA4800      0.2141
     19  O10       30.0930   29.0100    3.0810 O.3   800  MA4800     -0.3286
     20  O20       30.8420   28.3580    0.2760 O.3   800  MA4800     -0.2149
     21  O30       33.5110   27.2110   -0.0710 O.3   800  MA4800     -0.2175
     22  O50       31.8960   27.6680    3.7480 O.3   800  MA4800     -0.3257
     23  O60       34.6410   27.2250    4.9450 O.3   800  MA4800     -0.2176
     24  C11       28.9890   28.6040    3.8870 C.3   800  MA4800      0.1449
     25  C21       28.0750   27.7280    3.0580 C.3   800  MA4800      0.0322
     26  C31       26.9170   27.1950    3.8690 C.3   800  MA4800      0.0026
     27  C41       25.7900   28.1990    3.9550 C.3   800  MA4800      0.0001
     28  C51       24.5540   27.5770    4.5800 C.3   800  MA4800      0.0000
     29  C61       24.8770   26.9550    5.9210 C.3   800  MA4800      0.0000
     30  C12       23.5970   26.7580    6.6890 C.3   800  MA4800      0.0000
     31  C22       23.6070   27.7060    7.9400 C.3   800  MA4800      0.0000
     32  C32       22.2680   27.5720    8.7510 C.3   800  MA4800      0.0000
     33  C42       21.9210   26.0660    9.1150 C.3   800  MA4800      0.0000
     34  C52       22.1080   25.0520    7.9040 C.3   800  MA4800      0.0000
     35  C62       23.4550   25.2640    7.1230 C.3   800  MA4800      0.0000
@<TRIPOS>BOND
     1     7     2    1
     2     8     3    1
     3    21    15    1
     4    20    14    1
     5     2     3    1
     6     2     1    1
     7     3     4    1
     8    15    14    1
     9    15    16    1
    10    14    13    1
    11     1    11    1
    12     1     9    1
    13     4    12    1
    14     4     5    1
    15    11    16    1
    16    16    17    1
    17    13    19    1
    18    13    22    1
    19    25    26    1
    20    25    24    1
    21    19    24    1
    22     9     5    1
    23     5     6    1
    24    17    22    1
    25    17    18    1
    26    26    27    1
    27    27    28    1
    28    28    29    1
    29     6    10    1
    30    18    23    1
    31    29    30    1
    32    30    35    1
    33    30    31    1
    34    35    34    1
    35    34    33    1
    36    31    32    1
    37    32    33    1
