@<TRIPOS>MOLECULE
1tdr_MTX_A_1.pdb
 33 35 0 0 0
SMALL
GASTEIGER

@<TRIPOS>ATOM
      1  N1        22.8980   58.7370   24.8460 N.2   170  MTX170     -0.2684
      2  C2        23.4730   58.3570   23.6570 C.1   170  MTX170      0.2519
      3  NA2       24.8040   58.4450   23.7240 N.pl3 170  MTX170     -0.0226
      4  N3        22.7380   58.0690   22.6070 N.2   170  MTX170     -0.3033
      5  C4        21.4480   57.7210   22.5000 C.2   170  MTX170      0.2728
      6  NA4       20.8390   57.4620   21.4880 N.pl3 170  MTX170     -0.0887
      7  C4A       20.7950   58.4340   23.6340 C.2   170  MTX170      0.2518
      8  N5        19.4990   58.8970   23.5380 N.2   170  MTX170     -0.3920
      9  C6        18.8510   59.1430   24.6320 C.2   170  MTX170      0.1292
     10  C7        19.6570   59.3360   25.8960 C.3   170  MTX170      0.1927
     11  N8        20.9940   59.3880   25.7440 N.2   170  MTX170     -0.1998
     12  C8A       21.5260   58.6310   24.6630 C.1   170  MTX170      0.1314
     13  C9        17.3870   59.0240   24.8550 C.3   170  MTX170      0.1298
     14  N10       16.9120   60.1270   25.8460 N.3   170  MTX170     -0.2633
     15  CM        16.2740   59.4950   27.0980 C.3   170  MTX170      0.0902
     16  C11       17.9750   64.2180   25.8510 C.3   170  MTX170      0.0692
     17  C12       17.2750   63.7000   26.9640 C.2   170  MTX170     -0.0257
     18  C13       17.0860   62.3390   26.9690 C.2   170  MTX170     -0.0149
     19  C14       17.3240   61.6140   25.8440 C.3   170  MTX170      0.0799
     20  C15       18.1740   62.2090   24.8170 C.3   170  MTX170      0.0209
     21  C16       18.0700   63.5780   24.6820 C.3   170  MTX170      0.0101
     22  C         17.8710   65.7650   25.8080 C.3   170  MTX170      0.2299
     23  O         17.2840   66.2610   26.9620 O.3   170  MTX170     -0.2033
     24  N         19.0740   66.0960   25.2460 N.3   170  MTX170     -0.1789
     25  CA        19.5510   67.5790   25.2720 C.3   170  MTX170      0.1782
     26  CT        19.6640   67.5360   23.7260 C.2   170  MTX170      0.3803
     27  O1        20.2700   66.6360   23.1610 O.co2 170  MTX170     -0.2441
     28  O2        19.7390   68.8220   23.4090 O.co2 170  MTX170     -0.2441
     29  CB        21.0310   67.8050   25.4590 C.3   170  MTX170      0.0371
     30  CG        21.3380   67.4360   26.9560 C.3   170  MTX170      0.1018
     31  CD        21.0250   68.4190   28.2800 C.3   170  MTX170      0.4260
     32  OE1       20.2360   68.0730   29.3680 O.2   170  MTX170     -0.2671
     33  OE2       20.1580   69.1500   27.4440 O.2   170  MTX170     -0.2671
@<TRIPOS>BOND
     1     6     5    1
     2     5     4    2
     3     5     7    1
     4     4     2    2
     5    27    26   ar
     6    28    26   ar
     7     8     7    2
     8     8     9    2
     9     7    12    1
    10     2     3    1
    11     2     1    2
    12    26    25    1
    13     9    13    1
    14     9    10    1
    15    12     1    2
    16    12    11    2
    17    21    20    1
    18    21    16    1
    19    20    19    1
    20    13    14    1
    21    24    25    1
    22    24    22    1
    23    25    29    1
    24    29    30    1
    25    11    10    1
    26    22    16    1
    27    22    23    1
    28    19    14    1
    29    19    18    1
    30    14    15    1
    31    16    17    1
    32    30    31    1
    33    17    18    2
    34    33    31    1
    35    31    32    1
