@<TRIPOS>MOLECULE
1tdu_CB3_A_1.pdb
 35 37 0 0 0
SMALL
GASTEIGER

@<TRIPOS>ATOM
      1  N1        12.8050   18.4760   31.1190 N.2   302  CB3302     -0.3245
      2  C2        12.5810   19.2570   32.2030 C.1   302  CB3302      0.2518
      3  NA2       11.6090   20.1580   32.2100 N.pl3 302  CB3302     -0.0226
      4  N3        13.3660   19.1640   33.2780 N.2   302  CB3302     -0.2501
      5  C4        14.3970   18.3110   33.3120 C.1   302  CB3302      0.2180
      6  O4        15.2360   18.3600   34.3950 O.2   302  CB3302     -0.2085
      7  C4A       14.6330   17.4360   32.2460 C.2   302  CB3302      0.1220
      8  C5        15.6210   16.4450   32.2920 C.2   302  CB3302     -0.0051
      9  C6        15.8600   15.6140   31.1830 C.3   302  CB3302      0.0646
     10  C7        15.1040   15.8140   30.0140 C.2   302  CB3302     -0.0177
     11  C8        14.0950   16.7910   29.9730 C.2   302  CB3302      0.0296
     12  C8A       13.8260   17.5830   31.0980 C.2   302  CB3302      0.1564
     13  C9        16.6310   14.3520   31.3060 C.3   302  CB3302      0.1004
     14  N10       16.9950   13.8910   32.6720 N.pl3 302  CB3302     -0.2959
     15  C11       14.2220   13.2600   35.7860 C.ar  302  CB3302      0.0551
     16  C12       13.8410   13.1100   34.4420 C.ar  302  CB3302      0.0058
     17  C13       14.7680   13.3130   33.4100 C.ar  302  CB3302      0.0147
     18  C14       16.1070   13.6750   33.6890 C.ar  302  CB3302      0.0486
     19  C15       16.4810   13.8300   35.0400 C.ar  302  CB3302      0.0147
     20  C16       15.5510   13.6260   36.0760 C.ar  302  CB3302      0.0058
     21  C         13.2470   13.0190   36.8480 C.2   302  CB3302      0.2652
     22  O         12.0290   13.0040   36.6500 O.2   302  CB3302     -0.2684
     23  N         13.7150   12.8300   38.0830 N.am  302  CB3302     -0.1918
     24  CA        13.4350   11.6550   38.9390 C.3   302  CB3302      0.1986
     25  CB        12.7410   12.2770   40.1630 C.3   302  CB3302      0.0451
     26  CG        13.5300   12.0650   41.4670 C.3   302  CB3302      0.1164
     27  CD        15.0340   12.3850   41.4470 C.2   302  CB3302      0.3649
     28  OE1       15.8380   11.5360   41.8770 O.co2 302  CB3302     -0.2457
     29  OE2       15.4010   13.4880   41.0210 O.co2 302  CB3302     -0.2457
     30  CT        12.7050   10.4070   38.3790 C.2   302  CB3302      0.3842
     31  O1        11.5000   10.2010   38.6070 O.co2 302  CB3302     -0.2437
     32  O2        13.3850    9.5970   37.7270 O.co2 302  CB3302     -0.2437
     33  CP1       18.4370   13.7590   32.8640 C.3   302  CB3302      0.1695
     34  CP2       18.8950   14.9540   33.5510 C.1   302  CB3302     -0.0557
     35  CP3       19.1850   15.9890   34.0820 C.1   302  CB3302     -0.0124
@<TRIPOS>BOND
     1    11    10    2
     2    11    12    1
     3    10     9    1
     4    12     1    2
     5    12     7    1
     6     1     2    2
     7     9    13    1
     8     9     8    1
     9    13    14    1
    10     2     3    1
    11     2     4    2
    12     7     8    2
    13     7     5    1
    14    14    33    1
    15    14    18    1
    16    33    34    1
    17     4     5    2
    18     5     6    2
    19    17    18   ar
    20    17    16   ar
    21    34    35    3
    22    18    19   ar
    23    16    15   ar
    24    19    20   ar
    25    15    20   ar
    26    15    21    1
    27    22    21    2
    28    21    23   am
    29    32    30   ar
    30    23    24    1
    31    30    31   ar
    32    30    24    1
    33    24    25    1
    34    25    26    1
    35    29    27   ar
    36    27    26    1
    37    27    28   ar
