@<TRIPOS>MOLECULE
1tdu_DUR_A_1.pdb
 16 17 0 0 0
SMALL
GASTEIGER

@<TRIPOS>ATOM
      1  N1        17.3410   19.9180   31.6020 N.am  301  DUR301     -0.1790
      2  C2        18.2890   20.0280   32.6160 C.1   301  DUR301      0.2844
      3  N3        19.3620   19.1830   32.5130 N.2   301  DUR301     -0.2452
      4  C4        19.5630   18.2470   31.5200 C.1   301  DUR301      0.2182
      5  C5        18.5310   18.1820   30.5060 C.2   301  DUR301      0.1242
      6  C6        17.4340   19.0410   30.6080 C.2   301  DUR301      0.0928
      7  O2        18.2530   20.8390   33.5360 O.2   301  DUR301     -0.1918
      8  O4        20.5950   17.5840   31.4930 O.2   301  DUR301     -0.2085
      9  C1'       16.1570   20.8150   31.5710 C.3   301  DUR301      0.2090
     10  C2'       16.3900   22.1460   30.8430 C.3   301  DUR301      0.0874
     11  C3'       14.9910   22.6640   30.4790 C.3   301  DUR301      0.1858
     12  C4'       14.3440   21.3230   30.0640 C.3   301  DUR301      0.1802
     13  O3'       14.3140   23.1700   31.6520 O.3   301  DUR301     -0.2203
     14  O4'       14.9780   20.2890   30.8910 O.3   301  DUR301     -0.3338
     15  C5'       14.5450   20.9280   28.5620 C.3   301  DUR301      0.2141
     16  O5'       15.9040   20.9310   28.1040 O.3   301  DUR301     -0.2176
@<TRIPOS>BOND
     1    16    15    1
     2    15    12    1
     3    12    11    1
     4    12    14    1
     5    11    10    1
     6    11    13    1
     7     5     6    2
     8     5     4    1
     9     6     1    1
    10    10     9    1
    11    14     9    1
    12     8     4    2
    13     4     3    2
    14     9     1    1
    15     1     2   am
    16     3     2    2
    17     2     7    2
