@<TRIPOS>MOLECULE
1tdv_III_B_1.pdb
 46 48 0 0 0
SMALL
GASTEIGER

@<TRIPOS>ATOM
      1  N          1.2280    6.2410    6.3410 N.3     1  TYR1       -0.1227
      2  CA         2.2900    5.9410    5.3420 C.3     1  TYR1        0.1736
      3  C          3.7540    6.0300    5.8740 C.2     1  TYR1        0.2595
      4  O          4.6380    5.3230    5.3740 O.2     1  TYR1       -0.2718
      5  CB         2.3180    6.8830    4.1140 C.3     1  TYR1        0.0548
      6  CG         1.3050    7.8420    3.4910 C.ar    1  TYR1       -0.0200
      7  CD1       -0.0690    7.9870    3.7630 C.ar    1  TYR1       -0.0009
      8  CD2        1.8420    8.6060    2.4880 C.ar    1  TYR1       -0.0009
      9  CE1       -0.8280    8.9550    3.0000 C.ar    1  TYR1        0.0417
     10  CE2        1.1450    9.5010    1.7680 C.ar    1  TYR1        0.0417
     11  CZ        -0.1840    9.6900    2.0040 C.ar    1  TYR1        0.1957
     12  OH        -0.8400   10.6170    1.2300 O.3     1  TYR1       -0.2866
     13  N          4.0380    7.0330    6.7100 N.am    2  TRP2       -0.1962
     14  CA         5.3450    7.2550    7.3330 C.3     2  TRP2        0.1768
     15  C          5.2760    7.1820    8.8680 C.2     2  TRP2        0.2619
     16  O          5.8120    8.0450    9.5750 O.2     2  TRP2       -0.2715
     17  CB         5.8260    8.6490    6.8990 C.3     2  TRP2        0.0553
     18  CG         7.1450    8.6570    6.1970 C.2     2  TRP2       -0.0136
     19  CD1        7.4160    8.1780    4.9550 C.2     2  TRP2        0.0907
     20  CD2        8.3740    9.1780    6.6980 C.3     2  TRP2        0.0819
     21  NE1        8.7420    8.3640    4.6490 N.2     2  TRP2       -0.2482
     22  CE2        9.3530    8.9750    5.7110 C.2     2  TRP2        0.0665
     23  CE3        8.7510    9.7940    7.8920 C.2     2  TRP2       -0.0164
     24  CZ2       10.6690    9.3590    5.8830 C.2     2  TRP2        0.0153
     25  CZ3       10.0590   10.1670    8.0570 C.2     2  TRP2       -0.0038
     26  CH2       10.9970    9.9530    7.0620 C.2     2  TRP2        0.0009
     27  N          4.6060    6.1460    9.3680 N.am    3  ALA3       -0.1963
     28  CA         4.3690    5.9520   10.8040 C.3     3  ALA3        0.1728
     29  C          5.6270    5.6600   11.6150 C.2     3  ALA3        0.2616
     30  O          6.6910    5.3970   11.0580 O.2     3  ALA3       -0.2715
     31  CB         3.3690    4.8200   10.9930 C.3     3  ALA3        0.0334
     32  N          5.4810    5.6940   12.9370 N.am    4  ALA4       -0.1963
     33  CA         6.5570    5.3790   13.8670 C.3     4  ALA4        0.1728
     34  C          5.9600    5.2280   15.2640 C.2     4  ALA4        0.2616
     35  O          6.6580    4.8400   16.2050 O.2     4  ALA4       -0.2715
     36  CB         7.5970    6.4960   13.8890 C.3     4  ALA4        0.0334
     37  N          4.6850    5.5920   15.4000 N.am    5  ALA5       -0.1963
     38  CA         4.0380    5.6660   16.7130 C.3     5  ALA5        0.1728
     39  C          2.8080    6.6010   16.7070 C.2     5  ALA5        0.2616
     40  O          2.6780    7.4680   15.8410 O.2     5  ALA5       -0.2715
     41  CB         5.0560    6.1420   17.7510 C.3     5  ALA5        0.0334
     42  N          1.9080    6.4140   17.6720 N.am    6  ALA6       -0.1977
     43  CA         0.7600    7.3120   17.8720 C.3     6  ALA6        0.1597
     44  C         -0.5000    6.4850   17.6820 C.2     6  ALA6        0.2287
     45  O         -0.7700    6.0130   16.5760 O.2     6  ALA6       -0.2864
     46  CB         0.7630    8.4770   16.8930 C.3     6  ALA6        0.0319
@<TRIPOS>BOND
     1    12    11    1
     2    10    11   ar
     3    10     8   ar
     4    11     9   ar
     5     8     6   ar
     6     9     7   ar
     7     6     7   ar
     8     6     5    1
     9     5     2    1
    10    21    19    1
    11    21    22    2
    12    19    18    2
    13     2     3    1
    14     2     1    1
    15     4     3    2
    16    22    24    1
    17    22    20    1
    18     3    13   am
    19    24    26    2
    20    18    20    1
    21    18    17    1
    22    20    23    1
    23    13    14    1
    24    17    14    1
    25    26    25    1
    26    14    15    1
    27    23    25    2
    28    15    27   am
    29    15    16    2
    30    27    28    1
    31    28    31    1
    32    28    29    1
    33    30    29    2
    34    29    32   am
    35    32    33    1
    36    33    36    1
    37    33    34    1
    38    34    37   am
    39    34    35    2
    40    37    38    1
    41    40    39    2
    42    45    44    2
    43    39    38    1
    44    39    42   am
    45    38    41    1
    46    46    43    1
    47    42    43    1
    48    44    43    1
