@<TRIPOS>MOLECULE
1teh_NAD_A_1.pdb
 44 48 0 0 0
SMALL
GASTEIGER

@<TRIPOS>ATOM
      1  PA        21.9800   49.0040   10.5120 P.3   377  NAD377      0.2189
      2  O1A       21.6060   47.7290    9.8600 O.2   377  NAD377     -0.5170
      3  O2A       23.4480   49.0690   10.4750 O.3   377  NAD377     -0.4371
      4  O5B       21.5630   49.1190   12.0750 O.3   377  NAD377     -0.3112
      5  C5B       21.4700   47.8940   12.6990 C.3   377  NAD377      0.1813
      6  C4B       21.6440   48.1600   14.1910 C.3   377  NAD377      0.1821
      7  O4B       20.5420   47.5280   14.9470 O.3   377  NAD377     -0.3135
      8  C3B       22.9460   47.4880   14.6850 C.3   377  NAD377      0.2184
      9  O3B       23.4800   48.2340   15.7740 O.3   377  NAD377     -0.2174
     10  C2B       22.4150   46.1350   15.2040 C.3   377  NAD377      0.2570
     11  O2B       23.3360   45.5950   16.1670 O.3   377  NAD377     -0.2130
     12  C1B       21.1600   46.7370   15.9340 C.3   377  NAD377      0.3186
     13  N9A       20.3290   45.6650   16.4660 N.pl3 377  NAD377     -0.1439
     14  C8A       20.0520   44.4320   15.8990 C.3   377  NAD377      0.3377
     15  N7A       19.2310   43.6790   16.7450 N.2   377  NAD377     -0.2095
     16  C5A       19.0320   44.4860   17.8490 C.2   377  NAD377      0.2526
     17  C6A       18.2890   44.2430   18.9810 C.2   377  NAD377      0.4393
     18  N6A       17.6010   43.1060   19.1120 N.pl3 377  NAD377      0.2180
     19  N1A       18.2180   45.2230   19.9810 N.2   377  NAD377      0.0021
     20  C2A       18.8970   46.4480   19.8310 C.3   377  NAD377      0.5254
     21  N3A       19.6390   46.6870   18.6720 N.2   377  NAD377     -0.0055
     22  C4A       19.6820   45.6800   17.7050 C.2   377  NAD377      0.3518
     23  O3        21.6280   50.2640    9.6990 O.3   377  NAD377     -0.2703
     24  PN        20.4890   51.1900    9.4230 P.3   377  NAD377      0.2189
     25  O1N       20.8040   51.8740    8.0960 O.2   377  NAD377     -0.5170
     26  O2N       20.4680   52.2200   10.4920 O.3   377  NAD377     -0.4371
     27  O5D       18.9970   50.7190    9.1860 O.3   377  NAD377     -0.3112
     28  C5D       17.9900   50.8300   10.2540 C.3   377  NAD377      0.1813
     29  C4D       16.5550   50.4040    9.8900 C.3   377  NAD377      0.1799
     30  O4D       15.8730   51.5080    9.3240 O.3   377  NAD377     -0.3327
     31  C3D       16.5510   49.3390    8.7380 C.3   377  NAD377      0.2158
     32  O3D       15.3740   48.5280    8.8120 O.3   377  NAD377     -0.2175
     33  C2D       16.4870   50.1600    7.4750 C.3   377  NAD377      0.2309
     34  O2D       15.8710   49.3590    6.4600 O.3   377  NAD377     -0.2158
     35  C1D       15.4750   51.1900    8.0190 C.3   377  NAD377      0.2263
     36  N1N       15.3080   52.4620    7.2710 N.pl3 377  NAD377     -0.2787
     37  C2N       14.0500   52.9050    7.2410 C.3   377  NAD377      0.1244
     38  C3N       13.6740   54.0010    6.5600 C.2   377  NAD377      0.0544
     39  C7N       12.3710   54.4100    6.5440 C.2   377  NAD377      0.2818
     40  O7N       12.0520   55.3370    5.7680 O.2   377  NAD377     -0.2670
     41  N7N       11.5040   53.8910    7.4020 N.am  377  NAD377     -0.0839
     42  C4N       14.6200   54.6830    5.8840 C.2   377  NAD377      0.0033
     43  C5N       15.8870   54.2810    5.8910 C.2   377  NAD377      0.0157
     44  C6N       16.2130   53.1330    6.6130 C.2   377  NAD377      0.0633
@<TRIPOS>BOND
     1    40    39    2
     2    42    43    1
     3    42    38    2
     4    43    44    2
     5    34    33    1
     6    39    38    1
     7    39    41   am
     8    38    37    1
     9    44    36    1
    10    37    36    1
    11    36    35    1
    12    33    35    1
    13    33    31    1
    14    35    30    1
    15    25    24    2
    16    31    32    1
    17    31    29    1
    18    27    24    1
    19    27    28    1
    20    30    29    1
    21    24    23    1
    22    24    26    1
    23    23     1    1
    24     2     1    2
    25    29    28    1
    26     3     1    1
    27     1     4    1
    28     4     5    1
    29     5     6    1
    30     6     8    1
    31     6     7    1
    32     8    10    1
    33     8     9    1
    34     7    12    1
    35    10    12    1
    36    10    11    1
    37    14    13    1
    38    14    15    1
    39    12    13    1
    40    13    22    1
    41    15    16    2
    42    22    16    1
    43    22    21    2
    44    16    17    1
    45    21    20    1
    46    17    18    1
    47    17    19    2
    48    20    19    1
