@<TRIPOS>MOLECULE
1tei_MAN_A_1.pdb
 11 11 0 0 0
SMALL
GASTEIGER

@<TRIPOS>ATOM
      1  C1        40.8280    5.6740  -41.9790 C.3   241  MAN241      0.1777
      2  C2        41.4900    4.4390  -41.3850 C.3   241  MAN241      0.2141
      3  C3        40.5460    3.6980  -40.4260 C.3   241  MAN241      0.2173
      4  C4        39.9250    4.6760  -39.4180 C.3   241  MAN241      0.2142
      5  C5        39.3150    5.8750  -40.1520 C.3   241  MAN241      0.1810
      6  C6        38.7460    6.9210  -39.2440 C.3   241  MAN241      0.2141
      7  O2        42.6840    4.8340  -40.7070 O.3   241  MAN241     -0.2176
      8  O3        41.2440    2.6720  -39.7330 O.3   241  MAN241     -0.2175
      9  O4        38.9250    4.0120  -38.6570 O.3   241  MAN241     -0.2176
     10  O5        40.3260    6.5150  -40.9520 O.3   241  MAN241     -0.3481
     11  O6        39.7790    7.6360  -38.5950 O.3   241  MAN241     -0.2176
@<TRIPOS>BOND
     1     1     2    1
     2     1    10    1
     3     2     7    1
     4     2     3    1
     5    10     5    1
     6     3     8    1
     7     3     4    1
     8     5     4    1
     9     5     6    1
    10     4     9    1
    11     6    11    1
