@<TRIPOS>MOLECULE
1tei_NAG_A_1.pdb
 14 14 0 0 0
SMALL
GASTEIGER

@<TRIPOS>ATOM
      1  C1        43.7960    4.0640  -41.0170 C.3   240  NAG240      0.1665
      2  C2        45.0300    4.7930  -40.5430 C.3   240  NAG240      0.1576
      3  C3        46.2620    3.9290  -40.7610 C.3   240  NAG240      0.2069
      4  C4        46.0650    2.5530  -40.1390 C.3   240  NAG240      0.2134
      5  C5        44.8260    1.9460  -40.7860 C.3   240  NAG240      0.1809
      6  C6        44.4660    0.5120  -40.4530 C.3   240  NAG240      0.2141
      7  C7        45.4240    7.1690  -40.7800 C.2   240  NAG240      0.2420
      8  C8        45.4610    8.3470  -41.7380 C.3   240  NAG240      0.0964
      9  N2        45.1150    6.0050  -41.3310 N.am  240  NAG240     -0.2019
     10  O3        47.3900    4.5560  -40.1920 O.3   240  NAG240     -0.2184
     11  O4        47.2110    1.7590  -40.4010 O.3   240  NAG240     -0.2176
     12  O5        43.7090    2.7620  -40.4620 O.3   240  NAG240     -0.3489
     13  O6        43.9460    0.4050  -39.1470 O.3   240  NAG240     -0.2176
     14  O7        45.7130    7.3040  -39.5940 O.2   240  NAG240     -0.2733
@<TRIPOS>BOND
     1     8     7    1
     2     9     7   am
     3     9     2    1
     4     1     2    1
     5     1    12    1
     6     5    12    1
     7     5     6    1
     8     5     4    1
     9     7    14    2
    10     3     2    1
    11     3    10    1
    12     3     4    1
    13     6    13    1
    14    11     4    1
