@<TRIPOS>MOLECULE
1tem_ALP_A_1.pdb
 15 15 0 0 0
SMALL
GASTEIGER

@<TRIPOS>ATOM
      1  C1        10.5250    7.7470   36.0040 C.2   291  ALP291      0.2119
      2  O1        11.1030    7.4210   35.0030 O.2   291  ALP291     -0.2881
      3  C2        10.7390    9.0910   36.7220 C.3   291  ALP291      0.1239
      4  C21       11.0700    8.8220   38.2010 C.3   291  ALP291      0.1921
      5  O22       11.9980    7.7620   38.2550 O.3   291  ALP291     -0.2199
      6  C3         9.4510    9.9140   36.6260 C.3   291  ALP291      0.1303
      7  S4         9.7440   11.6380   37.1560 S.3   291  ALP291     -0.1228
      8  C5         9.3440   12.3290   35.5180 C.3   291  ALP291      0.0658
      9  C51       10.3380   13.4820   35.2110 C.3   291  ALP291      0.0129
     10  C52        7.8990   12.9020   35.5650 C.3   291  ALP291      0.0129
     11  C6         9.4940   11.1290   34.5560 C.3   291  ALP291      0.1856
     12  C8         8.8030   11.3700   33.2180 C.2   291  ALP291      0.3811
     13  O81        7.9580   10.5390   32.8090 O.co2 291  ALP291     -0.2441
     14  O82        9.0850   12.3960   32.5470 O.co2 291  ALP291     -0.2441
     15  N7         8.9360    9.9900   35.2600 N.3   291  ALP291     -0.1975
@<TRIPOS>BOND
     1    14    12   ar
     2    13    12   ar
     3    12    11    1
     4    11    15    1
     5    11     8    1
     6     2     1    2
     7     9     8    1
     8    15     6    1
     9     8    10    1
    10     8     7    1
    11     1     3    1
    12     6     3    1
    13     6     7    1
    14     3     4    1
    15     4     5    1
