@<TRIPOS>MOLECULE
1tes_HEM_A_1.pdb
 43 50 0 0 0
SMALL
GASTEIGER

@<TRIPOS>ATOM
      1 FE         35.2530    4.2810   10.2090 Fe    155  HEM155      0.0000
      2  CHA       37.9270    2.3720   11.4670 C.2   155  HEM155      0.0000
      3  CHB       37.1720    5.3280    7.7680 C.2   155  HEM155      0.0000
      4  CHC       32.6730    6.1800    9.0670 C.2   155  HEM155      0.0000
      5  CHD       33.3020    3.2160   12.7990 C.2   155  HEM155      0.0000
      6  NA        37.1210    3.9980    9.7830 N.ar  155  HEM155      0.0000
      7  C1A       38.0970    3.2450   10.3400 C.ar  155  HEM155      0.0000
      8  C2A       39.3780    3.3440    9.5820 C.ar  155  HEM155      0.0000
      9  C3A       39.2060    4.0780    8.5170 C.ar  155  HEM155      0.0000
     10  C4A       37.7470    4.4620    8.6490 C.ar  155  HEM155      0.0000
     11  CMA       40.1630    4.3760    7.4710 C.3   155  HEM155      0.0000
     12  CAA       40.6780    2.4040    9.7340 C.3   155  HEM155      0.0000
     13  CBA       40.7620    1.0810    8.9510 C.3   155  HEM155      0.0000
     14  CGA       39.4980    0.2590    9.0090 C.2   155  HEM155      0.0000
     15  O1A       39.2180   -0.3650   10.0450 O.co2 155  HEM155      0.0000
     16  O2A       38.9450    0.0410    7.9260 O.co2 155  HEM155      0.0000
     17  NB        34.9450    5.5000    8.7240 N.2   155  HEM155      0.0000
     18  C1B       35.8420    5.7880    7.8270 C.2   155  HEM155      0.0000
     19  C2B       35.2910    6.8270    6.8420 C.2   155  HEM155      0.0000
     20  C3B       34.0530    7.0610    7.2690 C.2   155  HEM155      0.0000
     21  C4B       33.8550    6.2030    8.4060 C.2   155  HEM155      0.0000
     22  CMB       36.0930    7.4160    5.5890 C.3   155  HEM155      0.0000
     23  CAB       33.0900    7.9910    6.6450 C.3   155  HEM155      0.0000
     24  CBB       33.5060    9.3550    6.4510 C.3   155  HEM155      0.0000
     25  NC        33.3330    4.5710   10.8090 N.ar  155  HEM155      0.0000
     26  C1C       32.5200    5.5080   10.3170 C.ar  155  HEM155      0.0000
     27  C2C       31.2800    5.6080   11.1820 C.ar  155  HEM155      0.0000
     28  C3C       31.4400    4.6890   12.1950 C.ar  155  HEM155      0.0000
     29  C4C       32.7400    4.0820   11.9330 C.ar  155  HEM155      0.0000
     30  CMC       30.1050    6.5090   10.8020 C.3   155  HEM155      0.0000
     31  CAC       30.6310    4.3530   13.3170 C.3   155  HEM155      0.0000
     32  CBC       29.6280    5.2420   13.8600 C.3   155  HEM155      0.0000
     33  ND        35.5530    2.9750   11.8430 N.2   155  HEM155      0.0000
     34  C1D       34.6210    2.6660   12.7630 C.2   155  HEM155      0.0000
     35  C2D       35.2110    1.7470   13.7730 C.2   155  HEM155      0.0000
     36  C3D       36.5410    1.5820   13.4320 C.2   155  HEM155      0.0000
     37  C4D       36.7090    2.3560   12.2140 C.2   155  HEM155      0.0000
     38  CMD       34.5160    1.1780   15.0210 C.3   155  HEM155      0.0000
     39  CAD       37.6170    0.9340   14.1640 C.3   155  HEM155      0.0000
     40  CBD       38.4340    1.9990   14.9110 C.3   155  HEM155      0.0000
     41  CGD       39.6140    1.3760   15.7020 C.2   155  HEM155      0.0000
     42  O1D       39.3320    0.7500   16.7290 O.co2 155  HEM155      0.0000
     43  O2D       40.6610    1.0930   15.1010 O.co2 155  HEM155      0.0000
@<TRIPOS>BOND
     1    22    19    1
     2    24    23    1
     3    23    20    1
     4    19    20    2
     5    19    18    1
     6    20    21    1
     7    11     9    1
     8     3    18    1
     9     3    10    2
    10    18    17    2
    11    16    14   ar
    12    21    17    1
    13    21     4    2
    14     9    10   ar
    15     9     8   ar
    16    10     6   ar
    17    17     1    1
    18    13    14    1
    19    13    12    1
    20    14    15   ar
    21     4    26    1
    22     8    12    1
    23     8     7   ar
    24     6     1    1
    25     6     7   ar
    26     1    25    1
    27     1    33    1
    28    26    25   ar
    29    26    27   ar
    30     7     2    2
    31    30    27    1
    32    25    29   ar
    33    27    28   ar
    34     2    37    1
    35    33    37    2
    36    33    34    1
    37    29    28   ar
    38    29     5    1
    39    28    31    1
    40    37    36    1
    41    34     5    2
    42    34    35    1
    43    31    32    1
    44    36    35    2
    45    36    39    1
    46    35    38    1
    47    39    40    1
    48    40    41    1
    49    43    41   ar
    50    41    42   ar
