@<TRIPOS>MOLECULE
1tex_TRE_A_1.pdb
 23 24 0 0 0
SMALL
GASTEIGER

@<TRIPOS>ATOM
      1  C1       -68.7190   13.5860   21.0410 C.3   501  TRE501      0.2713
      2  C2       -69.4030   14.4340   19.9750 C.3   501  TRE501      0.2406
      3  C3       -69.1970   15.9350   19.9990 C.3   501  TRE501      0.2198
      4  C4       -68.8450   16.5240   21.3370 C.3   501  TRE501      0.2144
      5  C5       -68.2430   15.6470   22.4150 C.3   501  TRE501      0.1835
      6  C6       -68.9940   15.8280   23.7120 C.3   501  TRE501      0.2142
      7  O1       -67.5730   12.9650   20.3930 O.3   501  TRE501     -0.3016
      8  O2       -69.3520   13.8190   18.7140 O.3   501  TRE501     -0.2149
      9  O3       -70.0740   16.7890   19.2350 O.3   501  TRE501     -0.2174
     10  O4       -68.1060   17.6850   21.1490 O.3   501  TRE501     -0.2176
     11  O5       -68.2860   14.2520   22.2260 O.3   501  TRE501     -0.3256
     12  O6       -69.6070   17.1040   23.7520 O.3   501  TRE501     -0.2176
     13  C1P      -66.4080   12.5390   21.1440 C.3   501  TRE501      0.2713
     14  C2P      -65.4140   13.5680   20.7150 C.3   501  TRE501      0.2406
     15  C3P      -64.7210   13.4180   19.4150 C.3   501  TRE501      0.2198
     16  C4P      -64.6310   11.9900   18.8700 C.3   501  TRE501      0.2144
     17  C5P      -65.5410   10.9000   19.4680 C.3   501  TRE501      0.1835
     18  C6P      -64.7050    9.6240   19.7190 C.3   501  TRE501      0.2142
     19  O2P      -65.7520   14.9150   20.9700 O.3   501  TRE501     -0.2149
     20  O3P      -63.4730   13.9900   19.6150 O.3   501  TRE501     -0.2174
     21  O4P      -64.7230   11.9640   17.4510 O.3   501  TRE501     -0.2176
     22  O5P      -66.2700   11.2170   20.6440 O.3   501  TRE501     -0.3256
     23  O6P      -65.3020    8.7150   20.6400 O.3   501  TRE501     -0.2176
@<TRIPOS>BOND
     1    21    16    1
     2     8     2    1
     3    16    15    1
     4    16    17    1
     5     9     3    1
     6    15    20    1
     7    15    14    1
     8    17    18    1
     9    17    22    1
    10    18    23    1
    11     2     3    1
    12     2     1    1
    13     3     4    1
    14     7     1    1
    15     7    13    1
    16    22    13    1
    17    14    19    1
    18    14    13    1
    19     1    11    1
    20    10     4    1
    21     4     5    1
    22    11     5    1
    23     5     6    1
    24     6    12    1
