@<TRIPOS>MOLECULE
1tez_G_I_1.pdb
 22 24 0 0 0
SMALL
GASTEIGER

@<TRIPOS>ATOM
      1  P         66.7200   -7.6140    5.7770 P.3    14  G14         0.3942
      2  OP1       65.5160   -8.2000    6.4200 O.3    14  G14        -0.1425
      3  OP2       68.0280   -8.2920    5.9230 O.3    14  G14        -0.1425
      4  O5'       66.4080   -7.4490    4.2250 O.3    14  G14        -0.2926
      5  C5'       65.3720   -6.5640    3.7920 C.3    14  G14         0.1829
      6  C4'       65.5800   -6.1660    2.3500 C.3    14  G14         0.1773
      7  O4'       66.8090   -5.4160    2.2210 O.3    14  G14        -0.3347
      8  C3'       65.6900   -7.3270    1.3650 C.3    14  G14         0.1857
      9  O3'       65.0490   -6.9600    0.1420 O.3    14  G14        -0.2203
     10  C2'       67.1880   -7.4870    1.1760 C.3    14  G14         0.0865
     11  C1'       67.6910   -6.0610    1.3150 C.3    14  G14         0.1981
     12  N9        69.0440   -5.9350    1.8520 N.pl3  14  G14        -0.2374
     13  C8        69.5560   -6.5540    2.9690 C.3    14  G14         0.2245
     14  N7        70.7950   -6.2280    3.2130 N.2    14  G14        -0.2322
     15  C5        71.1260   -5.3440    2.1960 C.2    14  G14         0.2182
     16  C6        72.3400   -4.6520    1.9390 C.1    14  G14         0.2372
     17  O6        73.3970   -4.6850    2.5820 O.2    14  G14        -0.2069
     18  N1        72.2450   -3.8570    0.8010 N.2    14  G14        -0.2485
     19  C2        71.1280   -3.7390    0.0120 C.1    14  G14         0.2531
     20  N2        71.2350   -2.9190   -1.0460 N.pl3  14  G14        -0.0226
     21  N3        69.9880   -4.3770    0.2400 N.2    14  G14        -0.3074
     22  C4        70.0590   -5.1570    1.3420 C.2    14  G14         0.2299
@<TRIPOS>BOND
     1    20    19    1
     2    19    21    2
     3    19    18    2
     4     9     8    1
     5    21    22    2
     6    18    16    2
     7    10    11    1
     8    10     8    1
     9    11    12    1
    10    11     7    1
    11    22    12    1
    12    22    15    1
    13     8     6    1
    14    12    13    1
    15    16    15    1
    16    16    17    2
    17    15    14    2
    18     7     6    1
    19     6     5    1
    20    13    14    1
    21     5     4    1
    22     4     1    1
    23     1     3    1
    24     1     2    1
