@<TRIPOS>MOLECULE
1tez_HDF_A_1.pdb
 26 28 0 0 0
SMALL
GASTEIGER

@<TRIPOS>ATOM
      1  N1        51.7740    4.6650   38.6680 N.2   5486  HDF5486    -0.2915
      2  C2        51.0090    5.1140   39.7210 C.1   5486  HDF5486     0.3667
      3  O2        51.2740    6.1230   40.3530 O.2   5486  HDF5486    -0.1744
      4  N3        49.9020    4.3320   40.0040 N.2   5486  HDF5486    -0.2326
      5  C4        49.5120    3.1680   39.3270 C.1   5486  HDF5486     0.2212
      6  O4        48.4930    2.5930   39.7070 O.2   5486  HDF5486    -0.2084
      7  C4A       50.3940    2.8080   38.2270 C.2   5486  HDF5486     0.1406
      8  C5        50.0550    1.6770   37.4830 C.2   5486  HDF5486     0.0179
      9  C5A       50.8300    1.2990   36.3940 C.ar  5486  HDF5486     0.0148
     10  C6        50.4680    0.2120   35.6460 C.ar  5486  HDF5486     0.0045
     11  C7        51.2240   -0.1420   34.5320 C.ar  5486  HDF5486     0.0421
     12  C8        52.3470    0.6270   34.2030 C.ar  5486  HDF5486     0.1970
     13  O8        53.0930    0.3230   33.1040 O.3   5486  HDF5486    -0.2865
     14  C9        52.7190    1.6980   34.9570 C.ar  5486  HDF5486     0.0569
     15  C9A       51.9810    2.0640   36.0630 C.ar  5486  HDF5486     0.0569
     16  N10       52.3770    3.1850   36.8040 N.pl3 5486  HDF5486    -0.2585
     17  C10       51.5660    3.5470   37.8640 C.2   5486  HDF5486     0.2146
     18  C1'       53.5440    3.8780   36.5990 C.3   5486  HDF5486     0.1335
     19  C2'       53.3540    5.0210   35.6960 C.3   5486  HDF5486     0.2048
     20  O2'       53.7440    4.8280   34.3620 O.3   5486  HDF5486    -0.2185
     21  C3'       53.5670    6.4620   36.1720 C.3   5486  HDF5486     0.2166
     22  O3'       52.5700    6.9890   36.9910 O.3   5486  HDF5486    -0.2175
     23  C4'       53.8890    7.5190   35.1120 C.3   5486  HDF5486     0.2175
     24  O4'       54.4780    8.6760   35.6750 O.3   5486  HDF5486    -0.2175
     25  C5'       52.6690    7.9120   34.2680 C.3   5486  HDF5486     0.2175
     26  O5'       52.9410    8.8850   33.2630 O.3   5486  HDF5486    -0.2175
@<TRIPOS>BOND
     1    13    12    1
     2    26    25    1
     3    12    11   ar
     4    12    14   ar
     5    25    23    1
     6    20    19    1
     7    11    10   ar
     8    14    15   ar
     9    23    24    1
    10    23    21    1
    11    10     9   ar
    12    19    21    1
    13    19    18    1
    14    15     9   ar
    15    15    16    1
    16    21    22    1
    17     9     8    1
    18    18    16    1
    19    16    17    1
    20     8     7    2
    21    17     7    1
    22    17     1    2
    23     7     5    1
    24     1     2    2
    25     5     6    2
    26     5     4    2
    27     2     4    2
    28     2     3    2
