@<TRIPOS>MOLECULE
1tez_C_I_1.pdb
 19 20 0 0 0
SMALL
GASTEIGER

@<TRIPOS>ATOM
      1  P         69.7330   -5.3920   10.5550 P.3    13  C13         0.3942
      2  OP1       69.0140   -6.6800   10.4020 O.3    13  C13        -0.1425
      3  OP2       71.2140   -5.3800   10.6130 O.3    13  C13        -0.1425
      4  O5'       69.2690   -4.4120    9.3900 O.3    13  C13        -0.2926
      5  C5'       67.8910   -4.1240    9.1800 C.3    13  C13         0.1829
      6  C4'       67.5390   -4.3060    7.7230 C.3    13  C13         0.1773
      7  O4'       68.2710   -3.3430    6.9260 O.3    13  C13        -0.3339
      8  C3'       67.8770   -5.6830    7.1500 C.3    13  C13         0.1857
      9  O3'       66.8360   -6.0830    6.2580 O.3    13  C13        -0.2203
     10  C2'       69.1750   -5.4460    6.3980 C.3    13  C13         0.0874
     11  C1'       69.0280   -4.0070    5.9260 C.3    13  C13         0.2090
     12  N1        70.3000   -3.2740    5.7520 N.am   13  C13        -0.1802
     13  C2        70.5600   -2.6390    4.5210 C.1    13  C13         0.2756
     14  O2        69.7060   -2.6860    3.6190 O.2    13  C13        -0.1925
     15  N3        71.7340   -1.9880    4.3500 N.2    13  C13        -0.3024
     16  C4        72.6250   -1.9460    5.3430 C.2    13  C13         0.2346
     17  N4        73.7700   -1.2960    5.1260 N.pl3  13  C13        -0.0921
     18  C5        72.3840   -2.5680    6.6030 C.2    13  C13         0.0687
     19  C6        71.2210   -3.2130    6.7630 C.2    13  C13         0.0835
@<TRIPOS>BOND
     1    14    13    2
     2    15    13    2
     3    15    16    2
     4    13    12   am
     5    17    16    1
     6    16    18    1
     7    12    11    1
     8    12    19    1
     9    11    10    1
    10    11     7    1
    11     9     8    1
    12    10     8    1
    13    18    19    2
    14     7     6    1
    15     8     6    1
    16     6     5    1
    17     5     4    1
    18     4     1    1
    19     2     1    1
    20     1     3    1
