@<TRIPOS>MOLECULE
1tez_TCP_I_1.pdb
 18 19 0 0 0
SMALL
GASTEIGER

@<TRIPOS>ATOM
      1  CP        71.0460    0.4890   11.3870 C.3    12  TCP12       0.1742
      2  O5'       70.3600   -0.6560   11.8450 O.3    12  TCP12      -0.3484
      3  C5'       71.2480   -1.6680   12.3200 C.3    12  TCP12       0.1743
      4  C4'       70.4680   -2.8400   12.8680 C.3    12  TCP12       0.1768
      5  O4'       69.9590   -2.5620   14.2000 O.3    12  TCP12      -0.3339
      6  C3'       69.2600   -3.2680   12.0230 C.3    12  TCP12       0.1857
      7  O3'       69.2160   -4.6910   11.9030 O.3    12  TCP12      -0.2203
      8  C2'       68.0780   -2.8340   12.8670 C.3    12  TCP12       0.0874
      9  C1'       68.6480   -3.0830   14.2490 C.3    12  TCP12       0.2090
     10  N1        67.9230   -2.5220   15.4120 N.am   12  TCP12      -0.1794
     11  C2        68.1040   -3.1480   16.6310 C.1    12  TCP12       0.2844
     12  O2        68.9290   -4.0310   16.8180 O.2    12  TCP12      -0.1918
     13  N3        67.2760   -2.6990   17.6290 N.2    12  TCP12      -0.2455
     14  C4        66.3250   -1.6990   17.5410 C.1    12  TCP12       0.2134
     15  O4        65.6090   -1.4510   18.5040 O.2    12  TCP12      -0.2088
     16  C5        66.2530   -1.0280   16.2620 C.2    12  TCP12       0.0891
     17  C5M       65.2990    0.1090   16.0940 C.3    12  TCP12       0.0462
     18  C6        67.0500   -1.4620   15.2770 C.2    12  TCP12       0.0877
@<TRIPOS>BOND
     1     1     2    1
     2     2     3    1
     3     7     6    1
     4     6     8    1
     5     6     4    1
     6     3     4    1
     7     8     9    1
     8     4     5    1
     9     5     9    1
    10     9    10    1
    11    18    10    1
    12    18    16    2
    13    10    11   am
    14    17    16    1
    15    16    14    1
    16    11    12    2
    17    11    13    2
    18    14    13    2
    19    14    15    2
