@<TRIPOS>MOLECULE
1tf2_ADP_A_1.pdb
 27 29 0 0 0
SMALL
GASTEIGER

@<TRIPOS>ATOM
      1  PB        56.4230  -24.6950   13.2770 P.3   843  ADP843      0.5373
      2  O1B       56.7340  -23.2880   13.5730 O.3   843  ADP843     -0.1143
      3  O2B       56.9580  -25.5750   14.3540 O.3   843  ADP843     -0.1143
      4  O3B       54.9860  -25.0130   13.2140 O.2   843  ADP843     -0.2221
      5  PA        58.5690  -24.9700   11.6780 P.3   843  ADP843      0.2231
      6  O1A       59.3530  -24.3830   12.7940 O.3   843  ADP843     -0.4370
      7  O2A       58.5330  -24.1630   10.4250 O.2   843  ADP843     -0.5169
      8  O3A       57.1040  -25.1230   12.0030 O.3   843  ADP843     -0.2261
      9  O5'       59.0910  -26.2940   11.2990 O.3   843  ADP843     -0.3111
     10  C5'       59.2880  -27.3900   12.1630 C.3   843  ADP843      0.1813
     11  C4'       59.8840  -28.5480   11.3390 C.3   843  ADP843      0.1821
     12  O4'       59.0410  -28.8990   10.1920 O.3   843  ADP843     -0.3135
     13  C3'       61.2570  -28.1660   10.7850 C.3   843  ADP843      0.2184
     14  O3'       62.1750  -29.2240   11.0420 O.3   843  ADP843     -0.2174
     15  C2'       60.9810  -27.9490    9.3080 C.3   843  ADP843      0.2570
     16  O2'       62.1910  -28.1250    8.5890 O.3   843  ADP843     -0.2130
     17  C1'       59.9210  -29.0220    9.0370 C.3   843  ADP843      0.3186
     18  N9        59.1570  -28.7810    7.7540 N.pl3 843  ADP843     -0.1439
     19  C8        58.3480  -27.6870    7.4680 C.3   843  ADP843      0.3377
     20  N7        57.8190  -27.7830    6.2620 N.2   843  ADP843     -0.2095
     21  C5        58.2720  -28.9740    5.6960 C.2   843  ADP843      0.2526
     22  C6        58.0760  -29.6450    4.4600 C.2   843  ADP843      0.4393
     23  N6        57.2890  -29.1170    3.5170 N.pl3 843  ADP843      0.2180
     24  N1        58.7050  -30.8520    4.2300 N.2   843  ADP843      0.0021
     25  C2        59.5110  -31.4270    5.1590 C.3   843  ADP843      0.5254
     26  N3        59.7050  -30.8090    6.3310 N.2   843  ADP843     -0.0055
     27  C4        59.1140  -29.6060    6.6390 C.2   843  ADP843      0.3518
@<TRIPOS>BOND
     1    23    22    1
     2    24    22    2
     3    24    25    1
     4    22    21    1
     5    25    26    1
     6    21    20    2
     7    21    27    1
     8    20    19    1
     9    26    27    2
    10    27    18    1
    11    19    18    1
    12    18    17    1
    13    16    15    1
    14    17    15    1
    15    17    12    1
    16    15    13    1
    17    12    11    1
    18     7     5    2
    19    13    14    1
    20    13    11    1
    21     9     5    1
    22     9    10    1
    23    11    10    1
    24     5     8    1
    25     5     6    1
    26     8     1    1
    27     4     1    2
    28     1     2    1
    29     1     3    1
