@<TRIPOS>MOLECULE
1tf7_ATP_A_1.pdb
 31 33 0 0 0
SMALL
GASTEIGER

@<TRIPOS>ATOM
      1  PG       127.4490   82.6190   17.1630 P.3   1901  ATP1901     0.5373
      2  O1G      126.2320   81.7360   17.0490 O.3   1901  ATP1901    -0.1143
      3  O2G      128.3860   82.2890   18.3310 O.3   1901  ATP1901    -0.1143
      4  O3G      128.2360   82.5760   15.8450 O.2   1901  ATP1901    -0.2221
      5  PB       127.1230   85.2530   16.4420 P.3   1901  ATP1901     0.2277
      6  O1B      126.3940   86.3450   17.0900 O.3   1901  ATP1901    -0.4368
      7  O2B      126.7460   85.0250   15.0320 O.2   1901  ATP1901    -0.5168
      8  O3B      126.8940   84.0740   17.3830 O.3   1901  ATP1901    -0.2258
      9  PA       129.9430   85.9470   15.7970 P.3   1901  ATP1901     0.2189
     10  O1A      129.9670   87.4060   15.9200 O.2   1901  ATP1901    -0.5170
     11  O2A      131.1620   85.2550   16.4130 O.3   1901  ATP1901    -0.4371
     12  O3A      128.6240   85.6320   16.6230 O.3   1901  ATP1901    -0.2700
     13  O5'      129.9060   85.7970   14.1790 O.3   1901  ATP1901    -0.3112
     14  C5'      130.3080   84.6570   13.4240 C.3   1901  ATP1901     0.1813
     15  C4'      130.2820   85.0700   11.9260 C.3   1901  ATP1901     0.1821
     16  O4'      131.2090   86.1200   11.5820 O.3   1901  ATP1901    -0.3135
     17  C3'      130.5270   83.9180   10.9650 C.3   1901  ATP1901     0.2184
     18  O3'      129.2590   83.4780   10.4630 O.3   1901  ATP1901    -0.2174
     19  C2'      131.4440   84.4720    9.8780 C.3   1901  ATP1901     0.2570
     20  O2'      130.8630   84.6660    8.6480 O.3   1901  ATP1901    -0.2130
     21  C1'      131.9570   85.7830   10.3920 C.3   1901  ATP1901     0.3186
     22  N9       133.4700   85.9030   10.6340 N.pl3 1901  ATP1901    -0.1439
     23  C8       134.2020   85.4850   11.7290 C.3   1901  ATP1901     0.3377
     24  N7       135.4880   85.7890   11.4880 N.2   1901  ATP1901    -0.2095
     25  C5       135.6370   86.4000   10.2890 C.2   1901  ATP1901     0.2526
     26  C6       136.6970   86.9110    9.5160 C.2   1901  ATP1901     0.4393
     27  N6       137.9700   86.9240    9.8510 N.pl3 1901  ATP1901     0.2180
     28  N1       136.4100   87.4790    8.2770 N.2   1901  ATP1901     0.0021
     29  C2       135.1180   87.5400    7.7790 C.3   1901  ATP1901     0.5254
     30  N3       134.0710   87.0300    8.5150 N.2   1901  ATP1901    -0.0055
     31  C4       134.3370   86.4830    9.7450 C.2   1901  ATP1901     0.3518
@<TRIPOS>BOND
     1    29    28    1
     2    29    30    1
     3    28    26    2
     4    30    31    2
     5    20    19    1
     6    26    27    1
     7    26    25    1
     8    31    25    1
     9    31    22    1
    10    19    21    1
    11    19    17    1
    12    25    24    2
    13    21    22    1
    14    21    16    1
    15    18    17    1
    16    22    23    1
    17    17    15    1
    18    24    23    1
    19    16    15    1
    20    15    14    1
    21    14    13    1
    22    13     9    1
    23     7     5    2
    24     9    10    2
    25     9    11    1
    26     9    12    1
    27     4     1    2
    28     5    12    1
    29     5     6    1
    30     5     8    1
    31     2     1    1
    32     1     8    1
    33     1     3    1
