@<TRIPOS>MOLECULE
1tf8_TRP_A_1.pdb
 15 16 0 0 0
SMALL
GASTEIGER

@<TRIPOS>ATOM
      1  N         40.0080   50.1520  -41.2120 N.3   911  TRP911     -0.1205
      2  CA        39.9060   50.9750  -42.4360 C.3   911  TRP911      0.1984
      3  C         41.2260   51.6990  -42.6950 C.2   911  TRP911      0.3822
      4  O         42.0410   51.6250  -41.7670 O.co2 911  TRP911     -0.2440
      5  CB        38.8390   52.0620  -42.3390 C.3   911  TRP911      0.0549
      6  CG        37.4750   51.4620  -42.2130 C.2   911  TRP911     -0.0138
      7  CD1       36.5620   51.6820  -41.2280 C.2   911  TRP911      0.0907
      8  CD2       36.9020   50.5360  -43.1450 C.3   911  TRP911      0.0819
      9  NE1       35.4340   50.9360  -41.4920 N.2   911  TRP911     -0.2482
     10  CE2       35.6210   50.2280  -42.6560 C.2   911  TRP911      0.0665
     11  CE3       37.3290   49.9380  -44.3270 C.2   911  TRP911     -0.0164
     12  CZ2       34.7810   49.3440  -43.3240 C.2   911  TRP911      0.0153
     13  CZ3       36.5080   49.0600  -45.0020 C.2   911  TRP911     -0.0038
     14  CH2       35.2330   48.7730  -44.4860 C.2   911  TRP911      0.0009
     15  OXT       41.3740   52.3290  -43.7720 O.co2 911  TRP911     -0.2440
@<TRIPOS>BOND
     1    13    14    1
     2    13    11    2
     3    14    12    2
     4    11     8    1
     5    15     3   ar
     6    12    10    1
     7     8    10    1
     8     8     6    1
     9     3     2    1
    10     3     4   ar
    11    10     9    2
    12     2     5    1
    13     2     1    1
    14     5     6    1
    15     6     7    2
    16     9     7    1
