@<TRIPOS>MOLECULE
1tf9_PHI_A_1.pdb
 13 13 0 0 0
SMALL
GASTEIGER

@<TRIPOS>ATOM
      1  N         15.4610  -15.7050  -57.1210 N.3   913  PHI913     -0.1205
      2  CA        16.4260  -14.6450  -57.4150 C.3   913  PHI913      0.1986
      3  CB        17.2570  -14.9500  -58.6570 C.3   913  PHI913      0.0569
      4  CG        17.7330  -16.4120  -58.5490 C.ar  913  PHI913     -0.0201
      5  CD1       18.3260  -16.8600  -57.3840 C.ar  913  PHI913     -0.0038
      6  CD2       17.4910  -17.2830  -59.6050 C.ar  913  PHI913     -0.0038
      7  CE1       18.7000  -18.1880  -57.2690 C.ar  913  PHI913      0.0055
      8  CE2       17.9040  -18.5840  -59.5010 C.ar  913  PHI913      0.0055
      9  CZ        18.5210  -19.0390  -58.3500 C.ar  913  PHI913      0.0300
     10  I         19.0210  -21.0410  -58.2440 I     913  PHI913     -0.0425
     11  C         15.7150  -13.3100  -57.5710 C.2   913  PHI913      0.3822
     12  O         14.5110  -13.3220  -57.8120 O.co2 913  PHI913     -0.2440
     13  OXT       16.4030  -12.2770  -57.5500 O.co2 913  PHI913     -0.2440
@<TRIPOS>BOND
     1     6     8   ar
     2     6     4   ar
     3     8     9   ar
     4     3     4    1
     5     3     2    1
     6     4     5   ar
     7     9    10    1
     8     9     7   ar
     9    12    11   ar
    10    11    13   ar
    11    11     2    1
    12     2     1    1
    13     5     7   ar
