@<TRIPOS>MOLECULE
1tfw_ATP_B_1.pdb
 31 33 0 0 0
SMALL
GASTEIGER

@<TRIPOS>ATOM
      1  PG        38.6830   42.5310  128.1560 P.3   1501  ATP1501     0.5373
      2  O1G       39.5550   43.0320  129.2930 O.3   1501  ATP1501    -0.1143
      3  O2G       39.1580   43.1090  126.8340 O.2   1501  ATP1501    -0.2221
      4  O3G       37.1910   42.6640  128.3920 O.3   1501  ATP1501    -0.1143
      5  PB        37.8710   39.7580  127.9080 P.3   1501  ATP1501     0.2277
      6  O1B       38.6090   38.4270  127.9600 O.2   1501  ATP1501    -0.5168
      7  O2B       36.7990   40.0190  128.9410 O.3   1501  ATP1501    -0.4368
      8  O3B       38.9800   40.9380  128.0070 O.3   1501  ATP1501    -0.2258
      9  PA        35.6300   40.1050  126.0520 P.3   1501  ATP1501     0.2189
     10  O1A       34.9310   40.9340  127.1020 O.3   1501  ATP1501    -0.4371
     11  O2A       35.5700   40.6120  124.6340 O.2   1501  ATP1501    -0.5170
     12  O3A       37.2080   39.9180  126.4250 O.3   1501  ATP1501    -0.2700
     13  O5'       35.0090   38.6200  126.0650 O.3   1501  ATP1501    -0.3112
     14  C5'       34.7040   37.9440  127.2840 C.3   1501  ATP1501     0.1813
     15  C4'       34.9640   36.4500  127.1420 C.3   1501  ATP1501     0.1821
     16  O4'       34.2320   35.9170  126.0320 O.3   1501  ATP1501    -0.3135
     17  C3'       36.4250   36.1140  126.8970 C.3   1501  ATP1501     0.2184
     18  O3'       37.1820   35.8350  128.0680 O.3   1501  ATP1501    -0.2174
     19  C2'       36.3600   34.8920  126.0150 C.3   1501  ATP1501     0.2570
     20  O2'       36.3480   33.6880  126.7890 O.3   1501  ATP1501    -0.2130
     21  C1'       35.0740   35.0860  125.2160 C.3   1501  ATP1501     0.3186
     22  N9        35.4260   35.7420  123.9140 N.pl3 1501  ATP1501    -0.1439
     23  C8        35.0520   36.9750  123.4930 C.3   1501  ATP1501     0.3377
     24  N7        35.5660   37.2560  122.2750 N.2   1501  ATP1501    -0.2095
     25  C5        36.2920   36.1950  121.8910 C.2   1501  ATP1501     0.2526
     26  C6        37.0990   35.8300  120.7000 C.2   1501  ATP1501     0.4393
     27  N6        37.2220   36.6990  119.6720 N.pl3 1501  ATP1501     0.2180
     28  N1        37.7040   34.6100  120.6970 N.2   1501  ATP1501     0.0021
     29  C2        37.5820   33.7390  121.7270 C.3   1501  ATP1501     0.5254
     30  N3        36.8540   34.0070  122.8350 N.2   1501  ATP1501    -0.0055
     31  C4        36.2010   35.1940  122.9720 C.2   1501  ATP1501     0.3518
@<TRIPOS>BOND
     1    27    26    1
     2    28    26    2
     3    28    29    1
     4    26    25    1
     5    29    30    1
     6    25    24    2
     7    25    31    1
     8    24    23    1
     9    30    31    2
    10    31    22    1
    11    23    22    1
    12    22    21    1
    13    11     9    2
    14    21    19    1
    15    21    16    1
    16    19    20    1
    17    19    17    1
    18    16    15    1
    19     9    13    1
    20     9    12    1
    21     9    10    1
    22    13    14    1
    23    12     5    1
    24     3     1    2
    25    17    15    1
    26    17    18    1
    27    15    14    1
    28     5     6    2
    29     5     8    1
    30     5     7    1
    31     8     1    1
    32     1     4    1
    33     1     2    1
