@<TRIPOS>MOLECULE
1tfy_CTP_A_1.pdb
 29 30 0 0 0
SMALL
GASTEIGER

@<TRIPOS>ATOM
      1  N1        67.9180   30.0840   44.7020 N.am  501  CTP501     -0.1778
      2  C2        67.5710   29.1180   45.6490 C.1   501  CTP501      0.2756
      3  N3        66.9090   29.4910   46.8080 N.2   501  CTP501     -0.3024
      4  C4        66.7060   30.8280   47.0930 C.2   501  CTP501      0.2346
      5  C5        67.0810   31.8100   46.1570 C.2   501  CTP501      0.0687
      6  C6        67.6780   31.4170   44.9660 C.2   501  CTP501      0.0836
      7  O2        67.8500   27.9260   45.4670 O.2   501  CTP501     -0.1925
      8  N4        66.1570   31.1760   48.2560 N.pl3 501  CTP501     -0.0921
      9  C1'       68.4350   29.6670   43.3680 C.3   501  CTP501      0.2400
     10  C2'       67.2700   29.3470   42.4310 C.3   501  CTP501      0.2319
     11  O2'       67.3660   28.0240   41.9410 O.3   501  CTP501     -0.2157
     12  C3'       67.3890   30.3440   41.2870 C.3   501  CTP501      0.2158
     13  C4'       68.8330   30.8250   41.3740 C.3   501  CTP501      0.1799
     14  O4'       69.2230   30.6760   42.7430 O.3   501  CTP501     -0.3320
     15  O3'       67.1130   29.7460   40.0390 O.3   501  CTP501     -0.2175
     16  C5'       69.0490   32.2570   40.8690 C.3   501  CTP501      0.1813
     17  O5'       69.0860   33.1860   41.9450 O.3   501  CTP501     -0.3112
     18  PA        68.6640   34.7670   41.8060 P.3   501  CTP501      0.2189
     19  O1A       69.3280   35.4770   40.6390 O.2   501  CTP501     -0.5170
     20  O2A       69.0220   35.4660   43.1200 O.3   501  CTP501     -0.4371
     21  O3A       67.0400   34.7550   41.6490 O.3   501  CTP501     -0.2700
     22  PB        66.2510   34.3290   40.2890 P.3   501  CTP501      0.2277
     23  O1B       65.5400   33.0150   40.5380 O.3   501  CTP501     -0.4368
     24  O2B       67.1980   34.1890   39.0950 O.2   501  CTP501     -0.5168
     25  O3B       65.1460   35.4910   39.9610 O.3   501  CTP501     -0.2258
     26  PG        65.0460   36.9990   40.5650 P.3   501  CTP501      0.5373
     27  O1G       64.0780   37.7920   39.6600 O.2   501  CTP501     -0.2221
     28  O2G       64.5180   36.9420   42.0120 O.3   501  CTP501     -0.1143
     29  O3G       66.4260   37.6900   40.5890 O.3   501  CTP501     -0.1143
@<TRIPOS>BOND
     1    24    22    2
     2    27    26    2
     3    25    22    1
     4    25    26    1
     5    15    12    1
     6    22    23    1
     7    22    21    1
     8    26    29    1
     9    26    28    1
    10    19    18    2
    11    16    13    1
    12    16    17    1
    13    12    13    1
    14    12    10    1
    15    13    14    1
    16    21    18    1
    17    18    17    1
    18    18    20    1
    19    11    10    1
    20    10     9    1
    21    14     9    1
    22     9     1    1
    23     1     6    1
    24     1     2   am
    25     6     5    2
    26     7     2    2
    27     2     3    2
    28     5     4    1
    29     3     4    2
    30     4     8    1
