@<TRIPOS>MOLECULE
1tfz_869_A_1.pdb
 31 33 0 0 0
SMALL
GASTEIGER

@<TRIPOS>ATOM
      1  O30       37.2990   37.4720   52.3400 O.3   551  869551     -0.4714
      2  C31       37.3490   36.1570   51.7690 C.3   551  869551      0.2525
      3  C24       39.2230   38.8020   51.7340 C.ar  551  869551      0.0369
      4  C25       40.5120   39.2700   52.0120 C.ar  551  869551      0.0031
      5  C26       41.1830   38.8450   53.1830 C.ar  551  869551      0.0011
      6  C27       40.5610   37.9640   54.0510 C.ar  551  869551      0.0031
      7  C28       39.2720   37.5030   53.7710 C.ar  551  869551      0.0369
      8  C29       38.6050   37.9240   52.6090 C.ar  551  869551      0.1387
      9  C1        43.5410   38.8610   52.6570 C.ar  551  869551     -0.0175
     10  C2        44.8480   39.3390   52.9030 C.ar  551  869551      0.0353
     11  C3        45.0640   40.2680   53.9310 C.ar  551  869551      0.0042
     12  C4        44.0120   40.7300   54.7330 C.ar  551  869551      0.0184
     13  C5        42.6860   40.2750   54.5290 C.ar  551  869551      0.1054
     14  C6        42.4480   39.3100   53.4540 C.ar  551  869551      0.0133
     15  C7        43.3390   37.8200   51.7150 C.3   551  869551      0.0312
     16  C9        46.9410   37.7970   52.5700 C.ar  551  869551      0.1172
     17  C15       47.9950   37.3700   51.8590 C.ar  551  869551      0.2809
     18  C18       46.8590   37.4050   53.8810 C.ar  551  869551      0.1282
     19  N16       48.6900   36.6260   52.7610 N.ar  551  869551     -0.2202
     20  N17       47.9750   36.6540   54.0260 N.ar  551  869551     -0.1651
     21  O19       48.2040   37.4520   50.4770 O.2   551  869551     -0.2653
     22  C8        45.9790   38.9070   52.0840 C.2   551  869551      0.2015
     23  O10       45.8480   39.1190   50.8620 O.2   551  869551     -0.2864
     24  S11       41.5240   41.0020   55.3790 S.O2  551  869551      0.0104
     25  O13       40.6190   41.5870   54.5200 O.2   551  869551     -0.1686
     26  O12       42.0670   42.0320   56.1110 O.2   551  869551     -0.1686
     27  C14       40.6990   39.9780   56.4900 C.3   551  869551      0.1816
     28  C20       49.6170   35.5020   52.3890 C.3   551  869551      0.0897
     29  C21       48.8050   34.3050   51.9020 C.3   551  869551      0.0245
     30  C22       50.5580   35.9400   51.2870 C.3   551  869551      0.0245
     31  C23       50.5090   35.0720   53.5780 C.3   551  869551      0.0245
@<TRIPOS>BOND
     1    21    17    2
     2    23    22    2
     3    30    28    1
     4    15     9    1
     5     3     4   ar
     6     3     8   ar
     7     2     1    1
     8    17    16   ar
     9    17    19   ar
    10    29    28    1
    11     4     5   ar
    12    22    16    1
    13    22    10    1
    14     1     8    1
    15    28    19    1
    16    28    31    1
    17    16    18   ar
    18     8     7   ar
    19     9    10   ar
    20     9    14   ar
    21    19    20   ar
    22    10    11   ar
    23     5    14    1
    24     5     6   ar
    25    14    13   ar
    26     7     6   ar
    27    18    20   ar
    28    11    12   ar
    29    25    24    2
    30    13    12   ar
    31    13    24    1
    32    24    26    2
    33    24    27    1
