@<TRIPOS>MOLECULE
1tg1_III_C_1.pdb
 38 38 0 0 0
SMALL
GASTEIGER

@<TRIPOS>ATOM
      1  N          4.5640   16.4940  -11.8260 N.3     2  LEU2       -0.1231
      2  CA         3.8080   17.4170  -10.8970 C.3     2  LEU2        0.1693
      3  C          4.5480   18.8350  -10.5330 C.2     2  LEU2        0.2592
      4  O          5.1410   19.3900  -11.4500 O.2     2  LEU2       -0.2718
      5  CB         3.1950   16.7140   -9.9230 C.3     2  LEU2        0.0284
      6  CG         3.4370   15.3300   -9.3680 C.3     2  LEU2        0.0019
      7  CD1        4.4470   15.4550   -8.2920 C.3     2  LEU2        0.0001
      8  CD2        2.0660   14.9760   -8.8170 C.3     2  LEU2        0.0001
      9  N          4.3730   19.4670   -9.3380 N.am    3  VAL3       -0.1966
     10  CA         4.8960   20.8480   -8.7930 C.3     3  VAL3        0.1727
     11  C          6.3760   21.5700   -9.1340 C.2     3  VAL3        0.2616
     12  O          7.2460   20.8830   -9.6690 O.2     3  VAL3       -0.2715
     13  CB         4.4290   20.8560   -7.2380 C.3     3  VAL3        0.0290
     14  CG1        3.7330   22.1490   -6.7540 C.3     3  VAL3        0.0023
     15  CG2        3.4520   19.6670   -7.0040 C.3     3  VAL3        0.0023
     16  N          6.6170   22.9100   -8.8760 N.am    4  ARG4       -0.1963
     17  CA         7.8850   23.7380   -9.2620 C.3     4  ARG4        0.1729
     18  C          8.3680   25.0070   -8.4630 C.2     4  ARG4        0.2616
     19  O          8.4690   26.0680   -9.0760 O.2     4  ARG4       -0.2715
     20  CB         7.7420   24.3940  -10.6650 C.3     4  ARG4        0.0348
     21  CG         8.7360   25.2340  -11.4520 C.3     4  ARG4        0.0492
     22  CD         8.4740   26.7220  -11.7340 C.3     4  ARG4        0.2205
     23  NE         8.6090   28.1650  -12.2330 N.pl3   4  ARG4       -0.0865
     24  CZ         8.4110   29.4370  -12.5930 C.cat   4  ARG4        0.5346
     25  NH1        7.6940   30.2890  -11.8740 N.pl3   4  ARG4        0.1354
     26  NH2        8.9620   29.8600  -13.7220 N.pl3   4  ARG4        0.1354
     27  N          8.6440   24.9730   -7.1610 N.am    5  TYR5       -0.1974
     28  CA         9.1680   26.1650   -6.4560 C.3     5  TYR5        0.1639
     29  C         10.5710   25.8720   -5.9470 C.2     5  TYR5        0.2290
     30  O         10.7660   25.6170   -4.7610 O.2     5  TYR5       -0.2864
     31  CB         8.2980   26.6580   -5.2760 C.3     5  TYR5        0.0560
     32  CG         7.2930   25.7200   -4.6280 C.ar    5  TYR5       -0.0198
     33  CD1        6.4550   26.2110   -3.6410 C.ar    5  TYR5       -0.0009
     34  CD2        7.1580   24.3830   -4.9870 C.ar    5  TYR5       -0.0009
     35  CE1        5.5160   25.4280   -3.0340 C.ar    5  TYR5        0.0417
     36  CE2        6.2100   23.5770   -4.3710 C.ar    5  TYR5        0.0417
     37  CZ         5.3930   24.1140   -3.3950 C.ar    5  TYR5        0.1957
     38  OH         4.4470   23.3410   -2.7680 O.3     5  TYR5       -0.2866
@<TRIPOS>BOND
     1    26    24    1
     2    24    23    2
     3    24    25    1
     4    23    22    1
     5     1     2    1
     6    22    21    1
     7    21    20    1
     8     4     3    2
     9     2     3    1
    10     2     5    1
    11    20    17    1
    12     3     9   am
    13     5     6    1
    14    12    11    2
    15     6     8    1
    16     6     7    1
    17     9    10    1
    18    17    16    1
    19    17    18    1
    20    11    16   am
    21    11    10    1
    22    19    18    2
    23    10    13    1
    24    18    27   am
    25    13    15    1
    26    13    14    1
    27    27    28    1
    28    28    29    1
    29    28    31    1
    30    29    30    2
    31    31    32    1
    32    34    32   ar
    33    34    36   ar
    34    32    33   ar
    35    36    37   ar
    36    33    35   ar
    37    37    35   ar
    38    37    38    1
