@<TRIPOS>MOLECULE
1tg2_H2B_A_1.pdb
 17 18 0 0 0
SMALL
GASTEIGER

@<TRIPOS>ATOM
      1  N1        -7.3940   22.3250    7.6370 N.2   426  H2B426     -0.2672
      2  C2        -6.2850   21.5650    7.8380 C.1   426  H2B426      0.2609
      3  N2        -6.4330   20.3050    8.2750 N.pl3 426  H2B426     -0.0220
      4  N3        -5.0360   22.0580    7.6080 N.2   426  H2B426     -0.2466
      5  C4        -4.8580   23.3310    7.1650 C.1   426  H2B426      0.2569
      6  O4        -3.7460   23.8210    6.9470 O.2   426  H2B426     -0.2052
      7  C4A       -5.9870   24.1710    6.9270 C.2   426  H2B426      0.2989
      8  C8A       -7.2950   23.6070    7.1900 C.1   426  H2B426      0.1401
      9  N5        -5.8480   25.4420    6.4680 N.2   426  H2B426     -0.3830
     10  N8        -8.4300   24.3720    6.9880 N.2   426  H2B426     -0.1992
     11  C6        -7.0340   26.2810    6.2260 C.2   426  H2B426      0.1466
     12  C7        -8.3740   25.7140    6.5070 C.3   426  H2B426      0.1940
     13  C9        -6.6840   27.6770    5.6700 C.3   426  H2B426      0.2313
     14  O9        -7.2420   27.7760    4.3450 O.3   426  H2B426     -0.2130
     15  C10       -7.2030   28.8650    6.5480 C.3   426  H2B426      0.1888
     16  C11       -6.5990   28.8130    7.9210 C.3   426  H2B426      0.0387
     17  O10       -8.6370   28.8030    6.6490 O.3   426  H2B426     -0.2200
@<TRIPOS>BOND
     1    14    13    1
     2    13    11    1
     3    13    15    1
     4    11     9    2
     5    11    12    1
     6     9     7    2
     7    12    10    1
     8    15    17    1
     9    15    16    1
    10     7     5    1
    11     7     8    1
    12     6     5    2
    13    10     8    2
    14     5     4    2
    15     8     1    2
    16     4     2    2
    17     1     2    2
    18     2     3    1
