@<TRIPOS>MOLECULE
1tg4_III_I_1.pdb
 46 47 0 0 0
SMALL
GASTEIGER

@<TRIPOS>ATOM
      1  N         39.1270   26.4620   10.5600 N.3     1  PHE1       -0.1227
      2  CA        40.6070   26.6370   10.4760 C.3     1  PHE1        0.1736
      3  C         40.9720   28.0970   10.3720 C.2     1  PHE1        0.2595
      4  O         41.4930   28.5070    9.3480 O.2     1  PHE1       -0.2718
      5  CB        41.1570   25.9350    9.2170 C.3     1  PHE1        0.0547
      6  CG        40.6630   26.5210    7.8880 C.ar    1  PHE1       -0.0202
      7  CD1       40.0600   25.7060    6.9480 C.ar    1  PHE1       -0.0042
      8  CD2       40.8460   27.8620    7.5600 C.ar    1  PHE1       -0.0042
      9  CE1       39.6240   26.2200    5.7360 C.ar    1  PHE1       -0.0003
     10  CE2       40.4170   28.3650    6.3490 C.ar    1  PHE1       -0.0003
     11  CZ        39.8040   27.5480    5.4420 C.ar    1  PHE1       -0.0000
     12  N         40.6480   28.9620   11.3120 N.am    2  LEU2       -0.1966
     13  CA        40.9860   30.3230   10.9130 C.3     2  LEU2        0.1728
     14  C         42.2570   31.0880   11.3050 C.2     2  LEU2        0.2616
     15  O         42.2960   31.9540   12.1850 O.2     2  LEU2       -0.2715
     16  CB        39.7290   31.1210   10.5360 C.3     2  LEU2        0.0311
     17  CG        38.7130   31.9180   11.2850 C.3     2  LEU2        0.0022
     18  CD1       38.3760   31.3680   12.6280 C.3     2  LEU2        0.0001
     19  CD2       39.2780   33.3130   11.3080 C.3     2  LEU2        0.0001
     20  N         43.2510   30.7740   10.4650 N.am    3  ALA3       -0.1963
     21  CA        44.5830   31.3560   10.3620 C.3     3  ALA3        0.1728
     22  C         45.3070   30.4500    9.3120 C.2     3  ALA3        0.2616
     23  O         44.7600   29.4260    8.9220 O.2     3  ALA3       -0.2715
     24  CB        45.2950   31.3750   11.6620 C.3     3  ALA3        0.0334
     25  N         46.5070   30.8410    8.8680 N.am    4  TYR4       -0.1960
     26  CA        47.3810   30.1200    7.8860 C.3     4  TYR4        0.1771
     27  C         47.1410   30.2060    6.3840 C.2     4  TYR4        0.2620
     28  O         46.2180   29.6310    5.7970 O.2     4  TYR4       -0.2715
     29  CB        47.8320   28.7470    8.3200 C.3     4  TYR4        0.0574
     30  CG        49.0330   28.8830    9.2480 C.ar    4  TYR4       -0.0198
     31  CD1       49.3510   30.1200    9.8020 C.ar    4  TYR4       -0.0009
     32  CD2       49.8250   27.7950    9.5900 C.ar    4  TYR4       -0.0009
     33  CE1       50.4010   30.2640   10.6630 C.ar    4  TYR4        0.0417
     34  CE2       50.8960   27.9330   10.4550 C.ar    4  TYR4        0.0417
     35  CZ        51.1750   29.1700   10.9870 C.ar    4  TYR4        0.1957
     36  OH        52.2310   29.3060   11.8550 O.3     4  TYR4       -0.2866
     37  N         48.1300   30.8800    5.8150 N.am    5  LYS5       -0.1941
     38  CA        48.2840   31.2460    4.4310 C.3     5  LYS5        0.1978
     39  C         48.8110   30.1390    3.5580 C.2     5  LYS5        0.3842
     40  O         49.9790   30.2010    3.1800 O.co2   5  LYS5       -0.2437
     41  CB        49.2630   32.4260    4.4480 C.3     5  LYS5        0.0333
     42  CG        50.3220   32.4910    3.3780 C.3     5  LYS5        0.0039
     43  CD        51.4260   33.4190    3.8480 C.3     5  LYS5        0.0206
     44  CE        52.2920   33.8820    2.6990 C.3     5  LYS5        0.1093
     45  NZ        53.0400   35.0340    3.0320 N.3     5  LYS5       -0.1314
     46  OXT       48.0300   29.2460    3.2530 O.co2   5  LYS5       -0.2437
@<TRIPOS>BOND
     1    44    45    1
     2    44    43    1
     3    40    39   ar
     4    46    39   ar
     5    42    43    1
     6    42    41    1
     7    39    38    1
     8    38    41    1
     9    38    37    1
    10    11     9   ar
    11    11    10   ar
    12     9     7   ar
    13    28    27    2
    14    37    27   am
    15    10     8   ar
    16    27    26    1
    17     7     6   ar
    18     8     6   ar
    19    26    29    1
    20    26    25    1
    21     6     5    1
    22    29    30    1
    23    25    22   am
    24    23    22    2
    25     5     2    1
    26    30    32   ar
    27    30    31   ar
    28    22    21    1
    29     4     3    2
    30    32    34   ar
    31    31    33   ar
    32    21    20    1
    33    21    24    1
    34     3     2    1
    35     3    12   am
    36    34    35   ar
    37    20    14   am
    38     2     1    1
    39    16    13    1
    40    16    17    1
    41    33    35   ar
    42    13    14    1
    43    13    12    1
    44    35    36    1
    45    17    19    1
    46    17    18    1
    47    14    15    2
