@<TRIPOS>MOLECULE
1tg5_645_A_1.pdb
 31 33 0 0 0
SMALL
GASTEIGER

@<TRIPOS>ATOM
      1  O1        48.3660   37.7160   51.3850 O.2   501  645501     -0.2726
      2  C1        47.7760   37.4200   52.4320 C.2   501  645501      0.2523
      3  C2        46.7150   37.8270   52.8850 C.3   501  645501      0.1544
      4  C3        45.7220   38.7610   52.5260 C.3   501  645501      0.1893
      5  O2        46.1370   39.3650   51.1190 O.3   501  645501     -0.2173
      6  C4        44.9170   39.2020   53.3270 C.ar  501  645501      0.0192
      7  C5        43.5060   38.7250   53.1600 C.ar  501  645501      0.0573
      8 CL1        43.1070   37.7850   52.0790 Cl    501  645501     -0.0825
      9  C6        42.5230   39.2190   54.0290 C.ar  501  645501      0.0295
     10  C7        42.7810   40.2010   55.0780 C.ar  501  645501      0.1065
     11  C8        44.1080   40.6280   55.2290 C.ar  501  645501      0.0182
     12  C9        45.1240   40.1540   54.3980 C.ar  501  645501      0.0003
     13  S1        41.6430   40.9740   55.9500 S.O2  501  645501      0.0105
     14  O3        41.1180   40.2230   56.9260 O.2   501  645501     -0.1686
     15  O4        42.2070   41.7590   56.9650 O.2   501  645501     -0.1686
     16  C10       40.9550   41.8810   54.9540 C.3   501  645501      0.1816
     17  C11       46.5160   37.1100   54.1870 C.2   501  645501      0.0885
     18  N1        47.6280   36.2880   54.4140 N.2   501  645501     -0.1796
     19  N2        48.4120   36.4880   53.2960 N.am  501  645501     -0.1840
     20  C12       49.6640   35.8080   53.1260 C.3   501  645501      0.0824
     21  C13       49.0900   34.3640   52.7300 C.3   501  645501      0.0220
     22  C14       50.6120   36.1130   51.9520 C.3   501  645501      0.0220
     23  C15       50.3840   35.6340   54.4130 C.3   501  645501      0.0220
     24  C16       45.6150   36.9340   55.2060 C.ar  501  645501      0.0262
     25  C17       46.1410   37.5230   56.5110 C.ar  501  645501      0.0597
     26 CL2        47.4690   38.1880   56.5670 Cl    501  645501     -0.0822
     27  C18       45.1340   37.3100   57.6320 C.ar  501  645501      0.0228
     28  C19       43.9030   36.6690   57.4790 C.ar  501  645501      0.0585
     29 CL3        43.1710   36.5730   58.4940 Cl    501  645501     -0.0822
     30  C20       43.5870   36.1590   56.1180 C.ar  501  645501      0.0115
     31  C21       44.5050   36.3780   55.1800 C.ar  501  645501      0.0029
@<TRIPOS>BOND
     1     5     4    1
     2     1     2    2
     3    22    20    1
     4     8     7    1
     5     2     3    1
     6     2    19   am
     7     4     3    1
     8     4     6    1
     9    21    20    1
    10     3    17    1
    11    20    19    1
    12    20    23    1
    13     7     6   ar
    14     7     9   ar
    15    19    18    1
    16     6    12   ar
    17     9    10   ar
    18    17    18    2
    19    17    24    1
    20    12    11   ar
    21    16    13    1
    22    10    11   ar
    23    10    13    1
    24    31    24   ar
    25    31    30   ar
    26    24    25   ar
    27    13    14    2
    28    13    15    2
    29    30    28   ar
    30    25    26    1
    31    25    27   ar
    32    28    27   ar
    33    28    29    1
