@<TRIPOS>MOLECULE
1tg6_FME_D_1.pdb
 10 9 0 0 0
SMALL
GASTEIGER

@<TRIPOS>ATOM
      1  N        -29.3010   17.1420   -3.0970 N.am  1100  FME1100    -0.1915
      2  CN       -28.4220   17.9890   -3.6300 C.2   1100  FME1100     0.3205
      3  O1       -28.2440   19.1140   -3.1390 O.2   1100  FME1100    -0.2633
      4  CA       -30.0940   17.3010   -1.9130 C.3   1100  FME1100     0.1609
      5  CB       -31.0660   16.1780   -1.6400 C.3   1100  FME1100     0.0413
      6  CG       -32.0270   15.9450   -2.8780 C.3   1100  FME1100     0.0598
      7  SD       -33.4160   17.0710   -2.7330 S.3   1100  FME1100    -0.1393
      8  CE       -34.3370   16.6190   -4.1830 C.3   1100  FME1100     0.0692
      9  C        -29.2020   17.4990   -0.6780 C.2   1100  FME1100     0.2287
     10  O        -29.2870   18.5190   -0.0270 O.2   1100  FME1100    -0.2864
@<TRIPOS>BOND
     1     8     7    1
     2     2     3    2
     3     2     1   am
     4     1     4    1
     5     6     7    1
     6     6     5    1
     7     4     5    1
     8     4     9    1
     9     9    10    2
