@<TRIPOS>MOLECULE
1tg7_BMA_A_1.pdb
 11 11 0 0 0
SMALL
GASTEIGER

@<TRIPOS>ATOM
      1  C1        60.6600   28.1920  118.0710 C.3   7003  BMA7003     0.1777
      2  C2        61.2400   28.5200  119.4450 C.3   7003  BMA7003     0.2141
      3  C3        60.8110   29.9260  119.8650 C.3   7003  BMA7003     0.2173
      4  C4        61.1800   30.9440  118.7870 C.3   7003  BMA7003     0.2142
      5  C5        60.5740   30.5010  117.4530 C.3   7003  BMA7003     0.1810
      6  C6        60.9120   31.4180  116.2940 C.3   7003  BMA7003     0.2141
      7  O2        62.6570   28.4430  119.3850 O.3   7003  BMA7003    -0.2176
      8  O3        61.4520   30.2820  121.0970 O.3   7003  BMA7003    -0.2175
      9  O4        60.6870   32.2260  119.1500 O.3   7003  BMA7003    -0.2176
     10  O5        61.0650   29.1870  117.1150 O.3   7003  BMA7003    -0.3481
     11  O6        62.3220   31.7100  116.3080 O.3   7003  BMA7003    -0.2176
@<TRIPOS>BOND
     1     6    11    1
     2     6     5    1
     3    10     5    1
     4    10     1    1
     5     5     4    1
     6     1     2    1
     7     4     9    1
     8     4     3    1
     9     7     2    1
    10     2     3    1
    11     3     8    1
