@<TRIPOS>MOLECULE
1tg7_NAG_A_1.pdb
 14 14 0 0 0
SMALL
GASTEIGER

@<TRIPOS>ATOM
      1  C1        44.5560    7.6490  122.7300 C.3   1991  NAG1991     0.1665
      2  C2        45.3380    6.9190  121.6310 C.3   1991  NAG1991     0.1576
      3  C3        46.7570    7.4830  121.5350 C.3   1991  NAG1991     0.2069
      4  C4        46.7600    9.0260  121.4440 C.3   1991  NAG1991     0.2134
      5  C5        45.8030    9.6680  122.4630 C.3   1991  NAG1991     0.1809
      6  C6        45.5990   11.1500  122.1800 C.3   1991  NAG1991     0.2141
      7  C7        44.5230    4.6620  121.3820 C.2   1991  NAG1991     0.2420
      8  C8        44.7570    3.1780  121.6130 C.3   1991  NAG1991     0.0964
      9  N2        45.4030    5.4990  121.9210 N.am  1991  NAG1991    -0.2019
     10  O3        47.4010    6.9370  120.3900 O.3   1991  NAG1991    -0.2184
     11  O4        48.0830    9.5090  121.7340 O.3   1991  NAG1991    -0.2176
     12  O5        44.5050    9.0460  122.4210 O.3   1991  NAG1991    -0.3489
     13  O6        44.9490   11.3520  120.9320 O.3   1991  NAG1991    -0.2176
     14  O7        43.5500    5.0360  120.7250 O.2   1991  NAG1991    -0.2733
@<TRIPOS>BOND
     1    10     3    1
     2    14     7    2
     3    13     6    1
     4     7     8    1
     5     7     9   am
     6     4     3    1
     7     4    11    1
     8     4     5    1
     9     3     2    1
    10     2     9    1
    11     2     1    1
    12     6     5    1
    13    12     5    1
    14    12     1    1
