@<TRIPOS>MOLECULE
1tg7_MAN_A_1.pdb
 11 11 0 0 0
SMALL
GASTEIGER

@<TRIPOS>ATOM
      1  C1        53.3420   -0.1360  134.6340 C.3   3005  MAN3005     0.1777
      2  C2        53.5010    0.5670  135.9810 C.3   3005  MAN3005     0.2141
      3  C3        54.6080   -0.1190  136.7810 C.3   3005  MAN3005     0.2173
      4  C4        54.3210   -1.6100  136.9320 C.3   3005  MAN3005     0.2142
      5  C5        54.0830   -2.2570  135.5700 C.3   3005  MAN3005     0.1810
      6  C6        53.5810   -3.6820  135.7430 C.3   3005  MAN3005     0.2141
      7  O2        52.2770    0.5080  136.7010 O.3   3005  MAN3005    -0.2176
      8  O3        54.7080    0.4760  138.0820 O.3   3005  MAN3005    -0.2175
      9  O4        55.4220   -2.2410  137.5700 O.3   3005  MAN3005    -0.2176
     10  O5        53.0670   -1.5290  134.8370 O.3   3005  MAN3005    -0.3481
     11  O6        53.3320   -4.2810  134.4580 O.3   3005  MAN3005    -0.2176
@<TRIPOS>BOND
     1    11     6    1
     2     1    10    1
     3     1     2    1
     4    10     5    1
     5     5     6    1
     6     5     4    1
     7     2     7    1
     8     2     3    1
     9     3     4    1
    10     3     8    1
    11     4     9    1
