@<TRIPOS>MOLECULE
1tgm_AIN_A_1.pdb
 13 13 0 0 0
SMALL
GASTEIGER

@<TRIPOS>ATOM
      1  O1        43.9700   31.3830    5.9010 O.co2 202  AIN202     -0.2404
      2  C7        44.9480   31.3900    6.6330 C.2   202  AIN202      0.3907
      3  O2        44.7990   31.1850    7.8260 O.co2 202  AIN202     -0.2404
      4  C3        46.3150   31.6360    6.0580 C.ar  202  AIN202      0.1143
      5  C4        46.4480   31.8580    4.6930 C.ar  202  AIN202      0.0097
      6  C5        47.7020   32.0890    4.1420 C.ar  202  AIN202      0.0004
      7  C6        48.8410   32.1010    4.9420 C.ar  202  AIN202      0.0031
      8  C1        48.7600   31.8830    6.3170 C.ar  202  AIN202      0.0378
      9  C2        47.5270   31.6660    6.9220 C.ar  202  AIN202      0.1547
     10  O3        47.4210   31.3990    8.2700 O.3   202  AIN202     -0.4239
     11  C8        47.5590   32.2460    9.4480 C.2   202  AIN202      0.3220
     12  O4        47.9310   31.7220   10.4800 O.2   202  AIN202     -0.2497
     13  C9        47.2300   33.7070    9.4610 C.3   202  AIN202      0.1216
@<TRIPOS>BOND
     1     6     5   ar
     2     6     7   ar
     3     5     4   ar
     4     7     8   ar
     5     1     2   ar
     6     4     2    1
     7     4     9   ar
     8     8     9   ar
     9     2     3   ar
    10     9    10    1
    11    10    11    1
    12    11    13    1
    13    11    12    2
