@<TRIPOS>MOLECULE
1tgu_HEM_A_1.pdb
 43 50 0 0 0
SMALL
GASTEIGER

@<TRIPOS>ATOM
      1 FE         33.4630   42.4620   29.0120 Fe    2000  HEM2000     0.0000
      2  CHA       32.8690   39.1630   28.7110 C.2   2000  HEM2000     0.0000
      3  CHB       31.0290   42.7100   31.4820 C.2   2000  HEM2000     0.0000
      4  CHC       33.8470   45.8670   29.1420 C.2   2000  HEM2000     0.0000
      5  CHD       36.2840   42.2000   27.1110 C.2   2000  HEM2000     0.0000
      6  NA        32.1930   41.2320   29.8790 N.2   2000  HEM2000     0.0000
      7  C1A       32.0830   39.8670   29.6280 C.2   2000  HEM2000     0.0000
      8  C2A       31.0760   39.2540   30.4410 C.2   2000  HEM2000     0.0000
      9  C3A       30.5510   40.2370   31.2170 C.2   2000  HEM2000     0.0000
     10  C4A       31.2370   41.4760   30.8640 C.2   2000  HEM2000     0.0000
     11  CMA       29.4870   40.0600   32.2860 C.3   2000  HEM2000     0.0000
     12  CAA       30.7400   37.7740   30.4150 C.3   2000  HEM2000     0.0000
     13  CBA       31.6310   37.0690   31.4240 C.3   2000  HEM2000     0.0000
     14  CGA       31.3990   35.5750   31.4620 C.2   2000  HEM2000     0.0000
     15  O1A       30.2280   35.1470   31.4480 O.co2 2000  HEM2000     0.0000
     16  O2A       32.3920   34.8290   31.5140 O.co2 2000  HEM2000     0.0000
     17  NB        32.7000   43.9370   30.1470 N.ar  2000  HEM2000     0.0000
     18  C1B       31.7460   43.8560   31.1700 C.ar  2000  HEM2000     0.0000
     19  C2B       31.5380   45.1440   31.7950 C.ar  2000  HEM2000     0.0000
     20  C3B       32.2770   46.0280   31.0990 C.ar  2000  HEM2000     0.0000
     21  C4B       33.0100   45.2890   30.0850 C.ar  2000  HEM2000     0.0000
     22  CMB       30.6820   45.4900   33.0010 C.3   2000  HEM2000     0.0000
     23  CAB       32.1550   47.4040   31.1990 C.3   2000  HEM2000     0.0000
     24  CBB       33.0330   48.2090   31.9750 C.3   2000  HEM2000     0.0000
     25  NC        34.6390   43.7660   28.1370 N.2   2000  HEM2000     0.0000
     26  C1C       34.6150   45.1580   28.2380 C.2   2000  HEM2000     0.0000
     27  C2C       35.8130   45.7410   27.6430 C.2   2000  HEM2000     0.0000
     28  C3C       36.5750   44.7100   27.1690 C.2   2000  HEM2000     0.0000
     29  C4C       35.8330   43.4840   27.4510 C.2   2000  HEM2000     0.0000
     30  CMC       36.1500   47.0810   27.5950 C.3   2000  HEM2000     0.0000
     31  CAC       37.7810   44.7820   26.4850 C.3   2000  HEM2000     0.0000
     32  CBC       39.0110   44.0800   26.4150 C.3   2000  HEM2000     0.0000
     33  ND        34.3720   41.0220   28.0660 N.ar  2000  HEM2000     0.0000
     34  C1D       35.5530   41.0450   27.3730 C.ar  2000  HEM2000     0.0000
     35  C2D       35.8750   39.7290   26.8550 C.ar  2000  HEM2000     0.0000
     36  C3D       34.8720   38.8910   27.2130 C.ar  2000  HEM2000     0.0000
     37  C4D       33.9540   39.7090   27.9890 C.ar  2000  HEM2000     0.0000
     38  CMD       37.1430   39.3280   26.1280 C.3   2000  HEM2000     0.0000
     39  CAD       34.7620   37.3620   27.0000 C.3   2000  HEM2000     0.0000
     40  CBD       35.4790   36.5570   28.0960 C.3   2000  HEM2000     0.0000
     41  CGD       35.5580   35.0730   27.7850 C.2   2000  HEM2000     0.0000
     42  O1D       35.8360   34.7210   26.6190 O.co2 2000  HEM2000     0.0000
     43  O2D       35.3390   34.2550   28.7080 O.co2 2000  HEM2000     0.0000
@<TRIPOS>BOND
     1    38    35    1
     2    32    31    1
     3    31    28    1
     4    42    41   ar
     5    35    36   ar
     6    35    34   ar
     7    39    36    1
     8    39    40    1
     9     5    34    2
    10     5    29    1
    11    28    29    1
    12    28    27    2
    13    36    37   ar
    14    34    33   ar
    15    29    25    2
    16    30    27    1
    17    27    26    1
    18    41    40    1
    19    41    43   ar
    20    37    33   ar
    21    37     2    2
    22    33     1    1
    23    25    26    1
    24    25     1    1
    25    26     4    2
    26     2     7    1
    27     1     6    1
    28     1    17    1
    29     4    21    1
    30     7     6    2
    31     7     8    1
    32     6    10    1
    33    21    17   ar
    34    21    20   ar
    35    17    18   ar
    36    12     8    1
    37    12    13    1
    38     8     9    2
    39    10     9    1
    40    10     3    2
    41    20    23    1
    42    20    19   ar
    43    18     3    1
    44    18    19   ar
    45    23    24    1
    46     9    11    1
    47    13    14    1
    48    15    14   ar
    49    14    16   ar
    50    19    22    1
