@<TRIPOS>MOLECULE
1tgv_5UD_A_1.pdb
 18 19 0 0 0
SMALL
GASTEIGER

@<TRIPOS>ATOM
      1  F5        54.9890   25.1340   30.3490 F     3001  5UD3001    -0.1891
      2  C5        55.4270   25.9140   31.3600 C.2   3001  5UD3001     0.2499
      3  C4        56.3150   26.9780   31.1120 C.1   3001  5UD3001     0.2454
      4  O4        56.7060   27.2090   29.9570 O.2   3001  5UD3001    -0.2062
      5  N3        56.7690   27.7880   32.1810 N.2   3001  5UD3001    -0.2430
      6  C2        56.3490   27.5570   33.5110 C.1   3001  5UD3001     0.2846
      7  O2        56.7850   28.2960   34.3870 O.2   3001  5UD3001    -0.1918
      8  C6        54.9960   25.6700   32.6850 C.2   3001  5UD3001     0.1222
      9  N1        55.4350   26.4660   33.7790 N.am  3001  5UD3001    -0.1744
     10  C1'       54.8860   26.0740   35.1490 C.3   3001  5UD3001     0.2401
     11  C2'       55.3220   26.9050   36.4100 C.3   3001  5UD3001     0.2319
     12  O2'       55.7670   26.0040   37.4410 O.3   3001  5UD3001    -0.2157
     13  C3'       54.0740   27.6900   36.8550 C.3   3001  5UD3001     0.2159
     14  O3'       53.6480   27.2740   38.1580 O.3   3001  5UD3001    -0.2175
     15  C4'       52.9950   27.2960   35.8600 C.3   3001  5UD3001     0.1829
     16  O4'       53.4330   26.0970   35.1850 O.3   3001  5UD3001    -0.3318
     17  C5'       52.6210   28.4580   34.9340 C.3   3001  5UD3001     0.2142
     18  O5'       51.6020   28.0370   34.0280 O.3   3001  5UD3001    -0.2176
@<TRIPOS>BOND
     1     4     3    2
     2     1     2    1
     3     3     2    1
     4     3     5    2
     5     2     8    2
     6     5     6    2
     7     8     9    1
     8     6     9   am
     9     6     7    2
    10     9    10    1
    11    18    17    1
    12    17    15    1
    13    10    16    1
    14    10    11    1
    15    16    15    1
    16    15    13    1
    17    11    13    1
    18    11    12    1
    19    13    14    1
