@<TRIPOS>MOLECULE
1tgy_R1P_A_1.pdb
 14 14 0 0 0
SMALL
GASTEIGER

@<TRIPOS>ATOM
      1  C5'       53.1580   28.1350   35.1680 C.3   1254  R1P1254     0.2142
      2  O5'       52.1190   27.8800   34.2180 O.3   1254  R1P1254    -0.2176
      3  C4'       52.9230   27.2770   36.4140 C.3   1254  R1P1254     0.1836
      4  O4'       52.9420   25.8680   36.1150 O.3   1254  R1P1254    -0.3253
      5  C1'       54.1890   25.3040   36.5670 C.3   1254  R1P1254     0.2781
      6  C2'       55.0390   26.5040   36.9860 C.3   1254  R1P1254     0.2409
      7  O2'       56.0070   26.1570   37.9800 O.3   1254  R1P1254    -0.2149
      8  C3'       53.9820   27.4820   37.4970 C.3   1254  R1P1254     0.2168
      9  O3'       53.4670   27.0450   38.7570 O.3   1254  R1P1254    -0.2175
     10  O1'       53.9740   24.4500   37.7030 O.3   1254  R1P1254    -0.2416
     11  P         52.5020   24.0360   38.2100 P.3   1254  R1P1254     0.5346
     12  O1P       52.6230   22.9240   39.1790 O.3   1254  R1P1254    -0.1145
     13  O2P       51.7720   25.2550   38.6240 O.3   1254  R1P1254    -0.1145
     14  O3P       51.7920   23.4670   36.8810 O.2   1254  R1P1254    -0.2223
@<TRIPOS>BOND
     1     2     1    1
     2     1     3    1
     3     4     3    1
     4     4     5    1
     5     3     8    1
     6     5     6    1
     7     5    10    1
     8    14    11    2
     9     6     8    1
    10     6     7    1
    11     8     9    1
    12    10    11    1
    13    11    13    1
    14    11    12    1
