@<TRIPOS>MOLECULE
1th2_HEM_A_1.pdb
 43 50 0 0 0
SMALL
GASTEIGER

@<TRIPOS>ATOM
      1 FE         34.1600   42.9240   29.4690 Fe    2000  HEM2000     0.0000
      2  CHA       33.4950   39.6270   29.9630 C.2   2000  HEM2000     0.0000
      3  CHB       32.8650   43.5800   32.7230 C.2   2000  HEM2000     0.0000
      4  CHC       35.4160   46.1210   29.4980 C.2   2000  HEM2000     0.0000
      5  CHD       36.7850   42.0070   27.3270 C.2   2000  HEM2000     0.0000
      6  NA        33.3970   41.8440   31.0460 N.2   2000  HEM2000     0.0000
      7  C1A       33.0550   40.4980   30.9640 C.2   2000  HEM2000     0.0000
      8  C2A       32.2050   40.0960   32.0410 C.1   2000  HEM2000     0.0000
      9  C3A       32.0160   41.1950   32.8200 C.2   2000  HEM2000     0.0000
     10  C4A       32.7510   42.2910   32.1990 C.2   2000  HEM2000     0.0000
     11  CMA       31.2290   41.2490   34.1170 C.3   2000  HEM2000     0.0000
     12  CAA       31.6780   38.6410   31.7660 C.1   2000  HEM2000     0.0000
     13  CBA       31.7250   37.1600   31.5000 C.2   2000  HEM2000     0.0000
     14  CGA       32.1070   35.9000   32.2450 C.2   2000  HEM2000     0.0000
     15  O1A       31.2970   34.9540   32.2900 O.co2 2000  HEM2000     0.0000
     16  O2A       33.2250   35.8600   32.7910 O.co2 2000  HEM2000     0.0000
     17  NB        34.3040   44.4530   30.9250 N.ar  2000  HEM2000     0.0000
     18  C1B       33.6260   44.5820   32.1430 C.ar  2000  HEM2000     0.0000
     19  C2B       33.7460   45.9240   32.6700 C.ar  2000  HEM2000     0.0000
     20  C3B       34.4030   46.6410   31.7400 C.ar  2000  HEM2000     0.0000
     21  C4B       34.7650   45.7370   30.6610 C.ar  2000  HEM2000     0.0000
     22  CMB       33.2620   46.4720   34.0030 C.3   2000  HEM2000     0.0000
     23  CAB       34.4900   48.0230   31.7290 C.3   2000  HEM2000     0.0000
     24  CBB       35.7260   48.7260   31.7740 C.3   2000  HEM2000     0.0000
     25  NC        35.6560   43.8650   28.5460 N.2   2000  HEM2000     0.0000
     26  C1C       35.8430   45.2480   28.5160 C.2   2000  HEM2000     0.0000
     27  C2C       36.9250   45.6060   27.6050 C.2   2000  HEM2000     0.0000
     28  C3C       37.4080   44.4440   27.0740 C.2   2000  HEM2000     0.0000
     29  C4C       36.6030   43.3630   27.6350 C.2   2000  HEM2000     0.0000
     30  CMC       36.9630   47.0060   27.2980 C.3   2000  HEM2000     0.0000
     31  CAC       38.8350   44.2600   27.1940 C.3   2000  HEM2000     0.0000
     32  CBC       40.0140   44.5960   27.9240 C.3   2000  HEM2000     0.0000
     33  ND        35.0230   41.1940   28.8080 N.ar  2000  HEM2000     0.0000
     34  C1D       35.9930   40.9940   27.8620 C.ar  2000  HEM2000     0.0000
     35  C2D       36.0070   39.6140   27.4160 C.ar  2000  HEM2000     0.0000
     36  C3D       35.0210   38.9610   28.0760 C.ar  2000  HEM2000     0.0000
     37  C4D       34.4340   39.9570   28.9610 C.ar  2000  HEM2000     0.0000
     38  CMD       36.9970   38.9810   26.4570 C.3   2000  HEM2000     0.0000
     39  CAD       34.6600   37.4590   28.0510 C.3   2000  HEM2000     0.0000
     40  CBD       35.7510   36.3850   28.1900 C.3   2000  HEM2000     0.0000
     41  CGD       36.1780   35.0040   28.6540 C.2   2000  HEM2000     0.0000
     42  O1D       36.8430   34.2900   27.8730 O.co2 2000  HEM2000     0.0000
     43  O2D       35.8480   34.6290   29.8020 O.co2 2000  HEM2000     0.0000
@<TRIPOS>BOND
     1    38    35    1
     2    28    31    1
     3    28    27    2
     4    28    29    1
     5    31    32    1
     6    30    27    1
     7     5    29    1
     8     5    34    2
     9    35    34   ar
    10    35    36   ar
    11    27    26    1
    12    29    25    2
    13    34    33   ar
    14    42    41   ar
    15    39    36    1
    16    39    40    1
    17    36    37   ar
    18    40    41    1
    19    26    25    1
    20    26     4    2
    21    25     1    1
    22    41    43   ar
    23    33    37   ar
    24    33     1    1
    25    37     2    2
    26     1    17    1
    27     1     6    1
    28     4    21    1
    29     2     7    1
    30    21    17   ar
    31    21    20   ar
    32    17    18   ar
    33     7     6    2
    34     7     8    1
    35     6    10    1
    36    13    12    2
    37    13    14    1
    38    23    20    1
    39    23    24    1
    40    20    19   ar
    41    12     8    2
    42     8     9    2
    43    18    19   ar
    44    18     3    1
    45    10     3    2
    46    10     9    1
    47    14    15   ar
    48    14    16   ar
    49    19    22    1
    50     9    11    1
