@<TRIPOS>MOLECULE
1th3_HEM_A_1.pdb
 43 50 0 0 0
SMALL
GASTEIGER

@<TRIPOS>ATOM
      1 FE         34.1480   42.2720   29.5790 Fe    2000  HEM2000     0.0000
      2  CHA       33.1700   39.0980   29.0440 C.2   2000  HEM2000     0.0000
      3  CHB       31.7710   42.6560   32.0470 C.2   2000  HEM2000     0.0000
      4  CHC       34.4500   45.7510   29.4730 C.2   2000  HEM2000     0.0000
      5  CHD       36.5220   42.0350   27.1500 C.2   2000  HEM2000     0.0000
      6  NA        32.7010   41.1670   30.3110 N.2   2000  HEM2000     0.0000
      7  C1A       32.5120   39.8130   30.0490 C.2   2000  HEM2000     0.0000
      8  C2A       31.5720   39.2220   30.9530 C.2   2000  HEM2000     0.0000
      9  C3A       31.1700   40.2090   31.7950 C.2   2000  HEM2000     0.0000
     10  C4A       31.8630   41.4280   31.3910 C.2   2000  HEM2000     0.0000
     11  CMA       30.2170   40.0510   32.9670 C.3   2000  HEM2000     0.0000
     12  CAA       31.1770   37.7560   30.9400 C.3   2000  HEM2000     0.0000
     13  CBA       32.2770   36.9640   31.6260 C.3   2000  HEM2000     0.0000
     14  CGA       31.9990   35.4770   31.6450 C.2   2000  HEM2000     0.0000
     15  O1A       30.8210   35.0870   31.7630 O.co2 2000  HEM2000     0.0000
     16  O2A       32.9640   34.7000   31.5490 O.co2 2000  HEM2000     0.0000
     17  NB        33.3420   43.8460   30.5660 N.ar  2000  HEM2000     0.0000
     18  C1B       32.4940   43.7810   31.6780 C.ar  2000  HEM2000     0.0000
     19  C2B       32.4040   45.0630   32.3420 C.ar  2000  HEM2000     0.0000
     20  C3B       33.1000   45.9320   31.5860 C.ar  2000  HEM2000     0.0000
     21  C4B       33.6940   45.1860   30.4900 C.ar  2000  HEM2000     0.0000
     22  CMB       31.6920   45.4170   33.6360 C.3   2000  HEM2000     0.0000
     23  CAB       33.0440   47.3100   31.7200 C.3   2000  HEM2000     0.0000
     24  CBB       34.0890   48.0790   32.2990 C.3   2000  HEM2000     0.0000
     25  NC        35.0480   43.6410   28.3530 N.2   2000  HEM2000     0.0000
     26  C1C       35.0920   45.0310   28.4830 C.2   2000  HEM2000     0.0000
     27  C2C       36.2420   45.5790   27.7770 C.2   2000  HEM2000     0.0000
     28  C3C       36.8930   44.5420   27.1950 C.2   2000  HEM2000     0.0000
     29  C4C       36.1630   43.3260   27.5500 C.2   2000  HEM2000     0.0000
     30  CMC       38.1510   44.4810   26.3500 C.3   2000  HEM2000     0.0000
     31  CAC       37.2750   46.6870   27.7730 C.3   2000  HEM2000     0.0000
     32  CBC       37.2390   47.9470   28.6210 C.3   2000  HEM2000     0.0000
     33  ND        34.6700   40.9110   28.2730 N.ar  2000  HEM2000     0.0000
     34  C1D       35.7710   40.9030   27.4600 C.ar  2000  HEM2000     0.0000
     35  C2D       35.9860   39.5870   26.8920 C.ar  2000  HEM2000     0.0000
     36  C3D       34.9940   38.7800   27.3410 C.ar  2000  HEM2000     0.0000
     37  C4D       34.1960   39.6160   28.2210 C.ar  2000  HEM2000     0.0000
     38  CMD       37.1550   39.1530   26.0300 C.3   2000  HEM2000     0.0000
     39  CAD       34.8020   37.2610   27.1160 C.3   2000  HEM2000     0.0000
     40  CBD       35.7690   36.4100   27.9560 C.3   2000  HEM2000     0.0000
     41  CGD       35.7350   34.9370   27.5890 C.2   2000  HEM2000     0.0000
     42  O1D       36.0490   34.6040   26.4270 O.co2 2000  HEM2000     0.0000
     43  O2D       35.3890   34.1100   28.4640 O.co2 2000  HEM2000     0.0000
@<TRIPOS>BOND
     1    38    35    1
     2    30    28    1
     3    42    41   ar
     4    35    36   ar
     5    35    34   ar
     6    39    36    1
     7    39    40    1
     8     5    34    2
     9     5    29    1
    10    28    29    1
    11    28    27    2
    12    36    37   ar
    13    34    33   ar
    14    29    25    2
    15    41    40    1
    16    41    43   ar
    17    31    27    1
    18    31    32    1
    19    27    26    1
    20    37    33   ar
    21    37     2    2
    22    33     1    1
    23    25    26    1
    24    25     1    1
    25    26     4    2
    26     2     7    1
    27     4    21    1
    28     1     6    1
    29     1    17    1
    30     7     6    2
    31     7     8    1
    32     6    10    1
    33    21    17   ar
    34    21    20   ar
    35    17    18   ar
    36    12     8    1
    37    12    13    1
    38     8     9    2
    39    10     9    1
    40    10     3    2
    41    16    14   ar
    42    20    23    1
    43    20    19   ar
    44    13    14    1
    45    14    15   ar
    46    18     3    1
    47    18    19   ar
    48    23    24    1
    49     9    11    1
    50    19    22    1
