@<TRIPOS>MOLECULE
1th4_HEM_A_1.pdb
 43 50 0 0 0
SMALL
GASTEIGER

@<TRIPOS>ATOM
      1 FE         34.3080   43.5650   29.7150 Fe    2000  HEM2000     0.0000
      2  CHA       33.5690   40.2780   29.1380 C.2   2000  HEM2000     0.0000
      3  CHB       32.0620   43.2860   32.6490 C.2   2000  HEM2000     0.0000
      4  CHC       35.5260   46.3940   31.3360 C.2   2000  HEM2000     0.0000
      5  CHD       37.5370   42.9860   28.5350 C.2   2000  HEM2000     0.0000
      6  NA        33.1180   42.0750   30.7690 N.2   2000  HEM2000     0.0000
      7  C1A       32.8230   40.8550   30.1690 C.2   2000  HEM2000     0.0000
      8  C2A       31.6660   40.2420   30.7500 C.2   2000  HEM2000     0.0000
      9  C3A       31.2330   41.0760   31.7290 C.2   2000  HEM2000     0.0000
     10  C4A       32.1300   42.2280   31.7410 C.2   2000  HEM2000     0.0000
     11  CMA       30.0660   40.8240   32.6670 C.3   2000  HEM2000     0.0000
     12  CAA       31.1110   38.8950   30.3250 C.3   2000  HEM2000     0.0000
     13  CBA       32.2740   37.9290   30.1740 C.3   2000  HEM2000     0.0000
     14  CGA       31.8340   36.5540   29.7240 C.2   2000  HEM2000     0.0000
     15  O1A       30.6390   36.2270   29.8640 O.co2 2000  HEM2000     0.0000
     16  O2A       32.6900   35.7950   29.2350 O.co2 2000  HEM2000     0.0000
     17  NB        34.0100   44.5040   31.7520 N.ar  2000  HEM2000     0.0000
     18  C1B       32.9710   44.3330   32.6770 C.ar  2000  HEM2000     0.0000
     19  C2B       32.9110   45.4410   33.6050 C.ar  2000  HEM2000     0.0000
     20  C3B       33.8340   46.3310   33.1950 C.ar  2000  HEM2000     0.0000
     21  C4B       34.5310   45.7520   32.0590 C.ar  2000  HEM2000     0.0000
     22  CMB       32.0150   45.6190   34.8190 C.3   2000  HEM2000     0.0000
     23  CAB       33.9180   47.6390   33.6440 C.3   2000  HEM2000     0.0000
     24  CBB       34.6530   48.0210   34.7990 C.3   2000  HEM2000     0.0000
     25  NC        36.0700   44.5060   29.8560 N.2   2000  HEM2000     0.0000
     26  C1C       36.2520   45.8120   30.3150 C.2   2000  HEM2000     0.0000
     27  C2C       37.5720   46.3090   29.9460 C.2   2000  HEM2000     0.0000
     28  C3C       38.2050   45.3140   29.2560 C.2   2000  HEM2000     0.0000
     29  C4C       37.2620   44.2030   29.1760 C.2   2000  HEM2000     0.0000
     30  CMC       38.0380   47.5270   30.7670 C.3   2000  HEM2000     0.0000
     31  CAC       39.4630   45.3460   28.6680 C.3   2000  HEM2000     0.0000
     32  CBC       40.1540   43.6230   28.9140 C.3   2000  HEM2000     0.0000
     33  ND        35.3900   41.9530   29.0630 N.ar  2000  HEM2000     0.0000
     34  C1D       36.6160   41.9440   28.4560 C.ar  2000  HEM2000     0.0000
     35  C2D       36.7760   40.7640   27.6290 C.ar  2000  HEM2000     0.0000
     36  C3D       35.6280   40.0480   27.7120 C.ar  2000  HEM2000     0.0000
     37  C4D       34.7840   40.7910   28.6310 C.ar  2000  HEM2000     0.0000
     38  CMD       38.0260   40.3440   26.8810 C.3   2000  HEM2000     0.0000
     39  CAD       35.3040   38.6610   27.1050 C.3   2000  HEM2000     0.0000
     40  CBD       35.9750   37.5070   27.8660 C.3   2000  HEM2000     0.0000
     41  CGD       35.8370   36.1710   27.1590 C.2   2000  HEM2000     0.0000
     42  O1D       36.8620   35.4810   26.9790 O.co2 2000  HEM2000     0.0000
     43  O2D       34.6990   35.8100   26.7780 O.co2 2000  HEM2000     0.0000
@<TRIPOS>BOND
     1    43    41   ar
     2    38    35    1
     3    42    41   ar
     4    39    36    1
     5    39    40    1
     6    41    40    1
     7    35    36   ar
     8    35    34   ar
     9    36    37   ar
    10    34     5    2
    11    34    33   ar
    12     5    29    1
    13    37    33   ar
    14    37     2    2
    15    31    32    1
    16    31    28    1
    17    33     1    1
    18     2     7    1
    19    29    28    1
    20    29    25    2
    21    16    14   ar
    22    28    27    2
    23     1    25    1
    24     1     6    1
    25     1    17    1
    26    14    15   ar
    27    14    13    1
    28    25    26    1
    29    27    26    1
    30    27    30    1
    31     7     8    1
    32     7     6    2
    33    13    12    1
    34    26     4    2
    35    12     8    1
    36     8     9    2
    37     6    10    1
    38     4    21    1
    39     9    10    1
    40     9    11    1
    41    10     3    2
    42    17    21   ar
    43    17    18   ar
    44    21    20   ar
    45     3    18    1
    46    18    19   ar
    47    20    19   ar
    48    20    23    1
    49    19    22    1
    50    23    24    1
