@<TRIPOS>MOLECULE
1th6_OIN_A_1.pdb
 21 24 0 0 0
SMALL
GASTEIGER

@<TRIPOS>ATOM
      1  C10       49.0160   40.4690    7.9810 C.3   401  OIN401      0.0896
      2  N         49.9270   40.0730    9.0650 N.3   401  OIN401     -0.2738
      3  C11       51.2860   40.3650    9.0160 C.3   401  OIN401      0.0611
      4  C17       51.7150   40.0940   10.4160 C.3   401  OIN401      0.0175
      5  C16       50.9390   38.7870   10.5860 C.3   401  OIN401      0.0175
      6  C15       50.2950   38.7510    9.2400 C.3   401  OIN401      0.0611
      7  C14       50.8180   37.8930    8.1220 C.3   401  OIN401      0.0596
      8  C13       52.0670   38.5330    7.5860 C.3   401  OIN401      0.1715
      9  C12       52.1750   40.0390    7.8390 C.3   401  OIN401      0.0596
     10  O2        52.9510   37.6940    6.7550 O.3   401  OIN401     -0.4519
     11  C7        52.3180   36.4600    6.2340 C.2   401  OIN401      0.3231
     12  O3        51.5970   36.5660    5.2480 O.2   401  OIN401     -0.2497
     13  C9        52.5790   35.0850    6.8530 C.3   401  OIN401      0.1541
     14  C8        52.4120   33.9770    5.8210 C.3   401  OIN401      0.1975
     15  OH        53.3620   34.0650    4.7730 O.3   401  OIN401     -0.2194
     16  C6        51.7400   34.8190    8.0660 C.ar  401  OIN401     -0.0094
     17  C5        52.3660   34.4830    9.2610 C.ar  401  OIN401     -0.0037
     18  C4        51.6240   34.2580   10.4110 C.ar  401  OIN401     -0.0003
     19  C3        50.2450   34.3590   10.3810 C.ar  401  OIN401     -0.0000
     20  C2        49.6110   34.6970    9.2000 C.ar  401  OIN401     -0.0003
     21  C1        50.3530   34.9200    8.0480 C.ar  401  OIN401     -0.0037
@<TRIPOS>BOND
     1    15    14    1
     2    12    11    2
     3    14    13    1
     4    11    10    1
     5    11    13    1
     6    10     8    1
     7    13    16    1
     8     8     9    1
     9     8     7    1
    10     9     3    1
    11     1     2    1
    12    21    16   ar
    13    21    20   ar
    14    16    17   ar
    15     7     6    1
    16     3     2    1
    17     3     6    1
    18     3     4    1
    19     2     6    1
    20    20    19   ar
    21     6     5    1
    22    17    18   ar
    23    19    18   ar
    24     4     5    1
