@<TRIPOS>MOLECULE
1th8_ADP_A_1.pdb
 27 29 0 0 0
SMALL
GASTEIGER

@<TRIPOS>ATOM
      1  PB        17.4850   97.7170  -19.0800 P.3   200  ADP200      0.5373
      2  O1B       18.7920   98.1260  -18.4460 O.3   200  ADP200     -0.1143
      3  O2B       16.9700   96.3850  -18.6500 O.3   200  ADP200     -0.1143
      4  O3B       16.4270   98.8410  -18.9100 O.2   200  ADP200     -0.2221
      5  PA        18.9990   97.6490  -21.5760 P.3   200  ADP200      0.2231
      6  O1A       19.9480   98.7150  -21.1160 O.3   200  ADP200     -0.4370
      7  O2A       18.6120   97.6650  -22.9880 O.2   200  ADP200     -0.5169
      8  O3A       17.6640   97.7070  -20.6390 O.3   200  ADP200     -0.2261
      9  O5'       19.6120   96.2460  -21.1250 O.3   200  ADP200     -0.3111
     10  C5'       18.8770   95.0440  -21.4300 C.3   200  ADP200      0.1813
     11  C4'       19.2760   93.8720  -20.5770 C.3   200  ADP200      0.1821
     12  O4'       20.6150   93.4310  -21.0320 O.3   200  ADP200     -0.3135
     13  C3'       19.5110   94.1090  -19.1010 C.3   200  ADP200      0.2184
     14  O3'       18.2710   94.0620  -18.3760 O.3   200  ADP200     -0.2174
     15  C2'       20.4760   92.9310  -18.7020 C.3   200  ADP200      0.2570
     16  O2'       19.7330   91.6890  -18.4770 O.3   200  ADP200     -0.2130
     17  C1'       21.3730   92.8270  -19.9540 C.3   200  ADP200      0.3186
     18  N9        22.7100   93.5840  -19.7740 N.pl3 200  ADP200     -0.1439
     19  C8        23.0960   94.6770  -20.4130 C.3   200  ADP200      0.3377
     20  N7        24.2570   95.0810  -20.0620 N.2   200  ADP200     -0.2095
     21  C5        24.6930   94.1650  -19.1120 C.2   200  ADP200      0.2526
     22  C6        25.9040   94.0170  -18.3010 C.2   200  ADP200      0.4393
     23  N6        26.9710   94.8720  -18.3880 N.pl3 200  ADP200      0.2180
     24  N1        25.9740   92.9570  -17.4430 N.2   200  ADP200      0.0021
     25  C2        24.9420   92.1080  -17.3510 C.3   200  ADP200      0.5254
     26  N3        23.7830   92.1730  -18.0510 N.2   200  ADP200     -0.0055
     27  C4        23.7200   93.2270  -18.9160 C.2   200  ADP200      0.3518
@<TRIPOS>BOND
     1     7     5    2
     2     5     9    1
     3     5     6    1
     4     5     8    1
     5    10     9    1
     6    10    11    1
     7    12    11    1
     8    12    17    1
     9     8     1    1
    10    11    13    1
    11    19    20    1
    12    19    18    1
    13    20    21    2
    14    17    18    1
    15    17    15    1
    16    18    27    1
    17    21    27    1
    18    21    22    1
    19    13    15    1
    20    13    14    1
    21     1     4    2
    22     1     3    1
    23     1     2    1
    24    27    26    2
    25    15    16    1
    26    23    22    1
    27    22    24    2
    28    26    25    1
    29    24    25    1
