@<TRIPOS>MOLECULE
1tha_T33_A_1.pdb
 22 23 0 0 0
SMALL
GASTEIGER

@<TRIPOS>ATOM
      1  C1        20.9440   42.4430    4.3060 C.ar  130  T33130     -0.0195
      2  C2        20.3030   43.5520    4.8970 C.ar  130  T33130      0.0046
      3  C3        20.8260   44.2970    5.9150 C.ar  130  T33130      0.0642
      4  I3        19.6180   45.8310    6.5910 I     130  T33130     -0.0394
      5  C4        22.1000   43.9760    6.4920 C.ar  130  T33130      0.1505
      6  O4        22.4990   44.8170    7.5290 O.3   130  T33130     -0.4531
      7  C5        22.7540   42.8930    5.9010 C.ar  130  T33130      0.0376
      8  C6        22.1960   42.1650    4.8770 C.ar  130  T33130     -0.0010
      9  C7        20.1850   41.7410    3.2760 C.3   130  T33130      0.0569
     10  C8        20.4570   41.5670    1.7990 C.3   130  T33130      0.1986
     11  N8        21.3710   42.5550    1.2340 N.3   130  T33130     -0.1205
     12  C9        19.0950   41.4290    1.1160 C.2   130  T33130      0.3822
     13  O9        18.6380   42.1830    0.2560 O.co2 130  T33130     -0.2440
     14  O10       18.3530   40.4760    1.4640 O.co2 130  T33130     -0.2440
     15  C1'       22.2930   44.6090    8.9540 C.ar  130  T33130      0.1459
     16  C2'       22.0380   43.2750    9.1180 C.ar  130  T33130      0.0465
     17  C3'       21.8100   42.6510   10.3260 C.ar  130  T33130      0.0720
     18  I3'       21.3570   40.5190   10.6480 I     130  T33130     -0.0391
     19  C4'       21.8580   43.6470   11.3500 C.ar  130  T33130      0.2012
     20  O4'       21.6430   43.1880   12.6300 O.3   130  T33130     -0.2861
     21  C5'       22.1440   45.0420   11.1600 C.ar  130  T33130      0.0456
     22  C6'       22.3940   45.6750    9.9910 C.ar  130  T33130      0.0408
@<TRIPOS>BOND
     1    13    12   ar
     2    12    14   ar
     3    12    10    1
     4    11    10    1
     5    10     9    1
     6     9     1    1
     7     1     8   ar
     8     1     2   ar
     9     8     7   ar
    10     2     3   ar
    11     7     5   ar
    12     3     5   ar
    13     3     4    1
    14     5     6    1
    15     6    15    1
    16    15    16   ar
    17    15    22   ar
    18    16    17   ar
    19    22    21   ar
    20    17    18    1
    21    17    19   ar
    22    21    19   ar
    23    19    20    1
