@<TRIPOS>MOLECULE
1thb_HEM_A_1.pdb
 43 50 0 0 0
SMALL
GASTEIGER

@<TRIPOS>ATOM
      1  CHA       17.4790   18.3630   16.4990 C.2   142  HEM142      0.0000
      2  CHB       17.9790   15.8270   12.3180 C.2   142  HEM142      0.0000
      3  CHC       13.8870   13.2970   13.3840 C.2   142  HEM142      0.0000
      4  CHD       13.2140   16.1560   17.3700 C.2   142  HEM142      0.0000
      5  C1A       17.9300   17.8520   15.2710 C.ar  142  HEM142      0.0000
      6  C2A       18.9870   18.4010   14.4990 C.ar  142  HEM142      0.0000
      7  C3A       19.1510   17.7460   13.3660 C.ar  142  HEM142      0.0000
      8  C4A       18.1700   16.6910   13.3840 C.ar  142  HEM142      0.0000
      9  CMA       20.1280   18.0240   12.2160 C.3   142  HEM142      0.0000
     10  CAA       19.7540   19.6350   15.0520 C.3   142  HEM142      0.0000
     11  CBA       20.9300   19.1120   15.9480 C.3   142  HEM142      0.0000
     12  CGA       21.9140   20.3070   15.9890 C.2   142  HEM142      0.0000
     13  O1A       21.6540   21.2550   16.7840 O.co2 142  HEM142      0.0000
     14  O2A       22.8640   20.2150   15.1500 O.co2 142  HEM142      0.0000
     15  C1B       16.8790   15.0020   12.2760 C.2   142  HEM142      0.0000
     16  C2B       16.6260   14.1460   11.1140 C.2   142  HEM142      0.0000
     17  C3B       15.5080   13.4260   11.4130 C.2   142  HEM142      0.0000
     18  C4B       15.0170   13.8280   12.7510 C.2   142  HEM142      0.0000
     19  CMB       17.6000   14.1450    9.8830 C.3   142  HEM142      0.0000
     20  CAB       14.7720   12.3260   10.5690 C.2   142  HEM142      0.0000
     21  CBB       15.3560   11.2430   10.0770 C.2   142  HEM142      0.0000
     22  C1C       13.2940   13.9050   14.5260 C.ar  142  HEM142      0.0000
     23  C2C       11.9600   13.6590   15.0350 C.ar  142  HEM142      0.0000
     24  C3C       11.7610   14.4660   16.0720 C.ar  142  HEM142      0.0000
     25  C4C       12.9860   15.2210   16.3160 C.ar  142  HEM142      0.0000
     26  CMC       10.9460   12.6880   14.4070 C.3   142  HEM142      0.0000
     27  CAC       10.5040   14.6650   17.0000 C.2   142  HEM142      0.0000
     28  CBC        9.2850   14.4930   16.4310 C.2   142  HEM142      0.0000
     29  C1D       14.2960   17.0110   17.4950 C.2   142  HEM142      0.0000
     30  C2D       14.4080   18.0920   18.4530 C.2   142  HEM142      0.0000
     31  C3D       15.5930   18.6300   18.1880 C.2   142  HEM142      0.0000
     32  C4D       16.2470   18.0100   17.0520 C.2   142  HEM142      0.0000
     33  CMD       13.3390   18.4140   19.5410 C.3   142  HEM142      0.0000
     34  CAD       16.3120   19.8430   18.8230 C.3   142  HEM142      0.0000
     35  CBD       15.5950   21.0880   18.3010 C.3   142  HEM142      0.0000
     36  CGD       16.1730   22.3080   19.0430 C.2   142  HEM142      0.0000
     37  O1D       16.7960   23.0470   18.2490 O.co2 142  HEM142      0.0000
     38  O2D       16.0480   22.4070   20.2850 O.co2 142  HEM142      0.0000
     39  NA        17.4200   16.8370   14.5300 N.ar  142  HEM142      0.0000
     40  NB        15.8990   14.7790   13.2320 N.2   142  HEM142      0.0000
     41  NC        13.9100   14.8690   15.3650 N.ar  142  HEM142      0.0000
     42  ND        15.4220   17.0060   16.6400 N.2   142  HEM142      0.0000
     43 FE         15.8280   15.6920   15.0760 Fe    142  HEM142      0.0000
@<TRIPOS>BOND
     1    19    16    1
     2    21    20    2
     3    20    17    1
     4    16    17    2
     5    16    15    1
     6    17    18    1
     7     9     7    1
     8    15     2    1
     9    15    40    2
    10     2     8    2
    11    18    40    1
    12    18     3    2
    13    40    43    1
    14     7     8   ar
    15     7     6   ar
    16     3    22    1
    17     8    39   ar
    18    26    23    1
    19     6    10    1
    20     6     5   ar
    21    22    23   ar
    22    22    41   ar
    23    39    43    1
    24    39     5   ar
    25    23    24   ar
    26    10    11    1
    27    43    41    1
    28    43    42    1
    29    14    12   ar
    30     5     1    2
    31    41    25   ar
    32    11    12    1
    33    12    13   ar
    34    24    25   ar
    35    24    27    1
    36    25     4    1
    37    28    27    2
    38     1    32    1
    39    42    32    2
    40    42    29    1
    41    32    31    1
    42     4    29    2
    43    29    30    1
    44    31    30    2
    45    31    34    1
    46    37    36   ar
    47    35    34    1
    48    35    36    1
    49    30    33    1
    50    36    38   ar
