@<TRIPOS>MOLECULE
1thb_IHP_B_1.pdb
 36 36 0 0 0
SMALL
GASTEIGER

@<TRIPOS>ATOM
      1  C1       -14.0440    4.3940   20.3140 C.3   315  IHP315      0.1863
      2  C2       -14.9670    5.5900   20.5130 C.3   315  IHP315      0.1863
      3  C3       -15.1590    6.4650   19.2900 C.3   315  IHP315      0.1863
      4  C4       -13.8420    6.9950   18.8220 C.3   315  IHP315      0.1863
      5  C5       -12.6810    5.9770   18.7110 C.3   315  IHP315      0.1863
      6  C6       -12.6330    4.9360   19.8710 C.3   315  IHP315      0.1863
      7  O11      -14.5520    3.4610   19.3460 O.3   315  IHP315     -0.2675
      8  P1       -14.5280    1.8670   19.6110 P.3   315  IHP315      0.5327
      9  O21      -15.8590    1.3100   19.1820 O.3   315  IHP315     -0.1145
     10  O31      -13.3660    1.4030   18.7370 O.2   315  IHP315     -0.2224
     11  O41      -14.2560    1.6520   21.0630 O.3   315  IHP315     -0.1145
     12  O12      -16.1990    5.1720   21.0310 O.3   315  IHP315     -0.2675
     13  P2       -16.4570    5.4340   22.6220 P.3   315  IHP315      0.5327
     14  O22      -16.1910    6.9000   22.9220 O.3   315  IHP315     -0.1145
     15  O32      -15.5220    4.5310   23.4190 O.3   315  IHP315     -0.1145
     16  O42      -17.8930    5.0550   22.7700 O.2   315  IHP315     -0.2224
     17  O13      -15.8260    5.7480   18.2160 O.3   315  IHP315     -0.2675
     18  P3       -17.1220    6.3660   17.4440 P.3   315  IHP315      0.5327
     19  O23      -18.1580    6.7030   18.4830 O.3   315  IHP315     -0.1145
     20  O33      -17.5390    5.2080   16.5540 O.2   315  IHP315     -0.2224
     21  O43      -16.6740    7.5720   16.6570 O.3   315  IHP315     -0.1145
     22  O14      -13.3680    7.9730   19.8120 O.3   315  IHP315     -0.2675
     23  P4       -13.3550    9.5870   19.4820 P.3   315  IHP315      0.5327
     24  O24      -14.7640   10.0980   19.5950 O.3   315  IHP315     -0.1145
     25  O34      -12.7830    9.5930   18.0750 O.2   315  IHP315     -0.2224
     26  O44      -12.3950   10.2280   20.4770 O.3   315  IHP315     -0.1145
     27  O15      -12.7380    5.2490   17.5120 O.3   315  IHP315     -0.2675
     28  P5       -11.8170    5.6720   16.2390 P.3   315  IHP315      0.5327
     29  O25      -12.5840    6.7700   15.5410 O.3   315  IHP315     -0.1145
     30  O35      -11.7930    4.3460   15.5100 O.2   315  IHP315     -0.2224
     31  O45      -10.4670    6.1680   16.6400 O.3   315  IHP315     -0.1145
     32  O16      -12.0740    5.6280   20.9960 O.3   315  IHP315     -0.2675
     33  P6       -10.7800    5.0180   21.7550 P.3   315  IHP315      0.5327
     34  O26       -9.7640    4.6300   20.7340 O.2   315  IHP315     -0.2224
     35  O36      -10.3880    6.1890   22.6370 O.3   315  IHP315     -0.1145
     36  O46      -11.2550    3.8190   22.5880 O.3   315  IHP315     -0.1145
@<TRIPOS>BOND
     1    30    28    2
     2    29    28    1
     3    28    31    1
     4    28    27    1
     5    20    18    2
     6    21    18    1
     7    18    17    1
     8    18    19    1
     9    27     5    1
    10    25    23    2
    11    17     3    1
    12     5     4    1
    13     5     6    1
    14    10     8    2
    15     4     3    1
    16     4    22    1
    17     9     8    1
    18     3     2    1
    19     7     8    1
    20     7     1    1
    21    23    24    1
    22    23    22    1
    23    23    26    1
    24     8    11    1
    25     6     1    1
    26     6    32    1
    27     1     2    1
    28     2    12    1
    29    34    33    2
    30    32    33    1
    31    12    13    1
    32    33    36    1
    33    33    35    1
    34    13    16    2
    35    13    14    1
    36    13    15    1
