@<TRIPOS>MOLECULE
1thc_FL9_A_1.pdb
 23 25 0 0 0
SMALL
GASTEIGER

@<TRIPOS>ATOM
      1  C2        20.9800   43.3880    5.1010 C.3   130  FL9130      0.2312
      2  C3        21.0630   43.1570    3.6320 C.2   130  FL9130      0.2191
      3  C3A       22.2950   43.8160    3.2550 C.ar  130  FL9130      0.1113
      4  C4        22.9560   43.9830    2.0390 C.ar  130  FL9130      0.2047
      5  C5        24.1390   44.6820    2.0000 C.ar  130  FL9130      0.0843
      6  C6        24.6560   45.1880    3.1860 C.ar  130  FL9130      0.2020
      7  C7        24.0330   45.0680    4.4250 C.ar  130  FL9130      0.0792
      8  C7A       22.8610   44.3720    4.4060 C.ar  130  FL9130      0.1481
      9  C21       20.2860   42.7000    6.0190 C.3   130  FL9130      0.0813
     10  C1'       20.7440   42.8380    7.4190 C.ar  130  FL9130      0.0220
     11  C2'       20.6590   41.6920    8.2330 C.ar  130  FL9130      0.2011
     12  C3'       21.0830   41.7790    9.5680 C.ar  130  FL9130      0.1124
     13  C4'       21.5770   42.9660   10.1060 C.ar  130  FL9130      0.2110
     14  C5'       21.6550   44.0720    9.2680 C.ar  130  FL9130      0.0738
     15  C6'       21.2550   44.0260    7.9430 C.ar  130  FL9130      0.0090
     16 BR1        20.9810   40.2850   10.6890 Br    130  FL9130     -0.0423
     17 BR2        22.3280   45.6850    9.9780 Br    130  FL9130     -0.0457
     18  O1        22.1010   44.1360    5.5090 O.3   130  FL9130     -0.4707
     19  O3        20.2590   42.5460    2.9460 O.2   130  FL9130     -0.2873
     20  O4        22.4230   43.4570    0.9000 O.3   130  FL9130     -0.2863
     21  O6        25.8390   45.8750    3.1280 O.3   130  FL9130     -0.2864
     22  O2'       20.1740   40.5820    7.6910 O.3   130  FL9130     -0.2863
     23  O4'       21.9720   42.9750   11.4000 O.3   130  FL9130     -0.2854
@<TRIPOS>BOND
     1    20     4    1
     2     5     4   ar
     3     5     6   ar
     4     4     3   ar
     5    19     2    2
     6    21     6    1
     7     6     7   ar
     8     3     2    1
     9     3     8   ar
    10     2     1    1
    11     8     7   ar
    12     8    18    1
    13     1    18    1
    14     1     9    1
    15     9    10    1
    16    10    15   ar
    17    10    11   ar
    18    22    11    1
    19    15    14   ar
    20    11    12   ar
    21    14    17    1
    22    14    13   ar
    23    12    13   ar
    24    12    16    1
    25    13    23    1
