@<TRIPOS>MOLECULE
1thl_0DB_A_1.pdb
 35 38 0 0 0
SMALL
GASTEIGER

@<TRIPOS>ATOM
      1  CA        35.8660   41.2060   -5.4970 C.3   320  0DB320      0.1042
      2  CB1       34.6530   40.5610   -6.1640 C.3   320  0DB320      0.0159
      3  CG        35.0120   39.3030   -6.8230 C.3   320  0DB320      0.0269
      4  CD        33.8400   38.6100   -7.4430 C.ar  320  0DB320     -0.0222
      5  CE1       33.6910   38.7090   -8.8210 C.ar  320  0DB320     -0.0043
      6  CE2       33.0350   37.7130   -6.7330 C.ar  320  0DB320     -0.0043
      7  CZ1       32.6850   38.0300   -9.4880 C.ar  320  0DB320     -0.0003
      8  CZ2       32.0530   36.9760   -7.3920 C.ar  320  0DB320     -0.0003
      9  CH        31.9210   37.0790   -8.7670 C.ar  320  0DB320     -0.0000
     10  CB2       35.9980   42.5270   -6.1730 C.2   320  0DB320      0.3643
     11  OG1       35.0420   43.3170   -6.0850 O.co2 320  0DB320     -0.2457
     12  OG2       36.9850   42.8650   -6.8590 O.co2 320  0DB320     -0.2457
     13  CH2       35.5430   41.3480   -3.9950 C.3   320  0DB320      0.0199
     14  CA1       36.7690   41.8790   -3.1930 C.3   320  0DB320      0.0710
     15 CB11       36.8410   43.4220   -3.1790 C.3   320  0DB320      0.0087
     16 CB21       36.4390   41.5760   -1.7150 C.3   320  0DB320      0.0087
     17  CG1       37.4030   43.8070   -1.8070 C.3   320  0DB320      0.0005
     18  CG2       36.8480   42.7470   -0.8270 C.3   320  0DB320      0.0005
     19  C         38.0990   41.2130   -3.5730 C.2   320  0DB320      0.2409
     20  O         39.1550   41.8490   -3.7420 O.2   320  0DB320     -0.2734
     21  N         38.0680   39.9010   -3.6690 N.am  320  0DB320     -0.1953
     22  CA2       39.2440   39.1310   -4.0280 C.3   320  0DB320      0.2018
     23  C1        38.9690   38.0440   -5.0410 C.2   320  0DB320      0.3845
     24  O1        37.7660   37.7520   -5.2970 O.co2 320  0DB320     -0.2437
     25  CB        40.0120   38.6450   -2.7810 C.3   320  0DB320      0.0575
     26  CG3       39.2220   37.6670   -1.9910 C.2   320  0DB320     -0.0136
     27  CD1       38.1730   37.9490   -1.1820 C.2   320  0DB320      0.0907
     28  CD2       39.2520   36.2640   -2.1610 C.3   320  0DB320      0.0819
     29  NE1       37.6390   36.7790   -0.7110 N.2   320  0DB320     -0.2482
     30 CE21       38.2530   35.7330   -1.3330 C.2   320  0DB320      0.0665
     31  CE3       39.9570   35.4100   -3.0130 C.2   320  0DB320     -0.0164
     32 CZ21       38.0250   34.3520   -1.2750 C.2   320  0DB320      0.0153
     33  CZ3       39.7140   34.0570   -2.9770 C.2   320  0DB320     -0.0038
     34 CH21       38.7550   33.5300   -2.1100 C.2   320  0DB320      0.0009
     35  OXT       39.9730   37.4780   -5.5770 O.co2 320  0DB320     -0.2437
@<TRIPOS>BOND
     1     7     5   ar
     2     7     9   ar
     3     5     4   ar
     4     9     8   ar
     5     4     3    1
     6     4     6   ar
     7     8     6   ar
     8    12    10   ar
     9     3     2    1
    10    10    11   ar
    11    10     1    1
    12     2     1    1
    13    35    23   ar
    14     1    13    1
    15    24    23   ar
    16    23    22    1
    17    22    21    1
    18    22    25    1
    19    13    14    1
    20    20    19    2
    21    21    19   am
    22    19    14    1
    23    14    15    1
    24    14    16    1
    25    15    17    1
    26    31    33    2
    27    31    28    1
    28    33    34    1
    29    25    26    1
    30    28    26    1
    31    28    30    1
    32    34    32    2
    33    26    27    2
    34    17    18    1
    35    16    18    1
    36    30    32    1
    37    30    29    2
    38    27    29    1
