@<TRIPOS>MOLECULE
1thn_ADP_A_1.pdb
 27 29 0 0 0
SMALL
GASTEIGER

@<TRIPOS>ATOM
      1  PB         4.5850   36.1000   42.3480 P.3   200  ADP200      0.5373
      2  O1B        4.5810   36.1830   43.8670 O.3   200  ADP200     -0.1143
      3  O2B        3.2750   35.8710   41.7300 O.2   200  ADP200     -0.2221
      4  O3B        5.3130   37.3470   41.7640 O.3   200  ADP200     -0.1143
      5  PA         5.9270   33.4930   42.5510 P.3   200  ADP200      0.2231
      6  O1A        6.2860   33.7530   43.9860 O.3   200  ADP200     -0.4370
      7  O2A        6.8830   32.7580   41.7070 O.2   200  ADP200     -0.5169
      8  O3A        5.5390   34.9390   41.8750 O.3   200  ADP200     -0.2261
      9  O5'        4.5270   32.7850   42.5360 O.3   200  ADP200     -0.3111
     10  C5'        3.9830   32.4540   41.2460 C.3   200  ADP200      0.1813
     11  C4'        2.5390   32.0900   41.3060 C.3   200  ADP200      0.1821
     12  O4'        2.4410   30.8530   42.1200 O.3   200  ADP200     -0.3135
     13  C3'        1.6190   33.0210   42.0410 C.3   200  ADP200      0.2184
     14  O3'        1.2440   34.1490   41.2210 O.3   200  ADP200     -0.2174
     15  C2'        0.4090   32.0720   42.3970 C.3   200  ADP200      0.2570
     16  O2'       -0.4900   31.8840   41.2540 O.3   200  ADP200     -0.2130
     17  C1'        1.1620   30.7540   42.7860 C.3   200  ADP200      0.3186
     18  N9         1.3310   30.6400   44.3470 N.pl3 200  ADP200     -0.1439
     19  C8         2.4470   30.7540   45.0700 C.3   200  ADP200      0.3377
     20  N7         2.2410   30.6320   46.3370 N.2   200  ADP200     -0.2095
     21  C5         0.8690   30.4140   46.4700 C.2   200  ADP200      0.2526
     22  C6        -0.0510   30.2090   47.5970 C.2   200  ADP200      0.4393
     23  N6         0.3510   30.1680   48.9090 N.pl3 200  ADP200      0.2180
     24  N1        -1.3770   30.0300   47.3170 N.2   200  ADP200      0.0021
     25  C2        -1.8050   30.0630   46.0520 C.3   200  ADP200      0.5254
     26  N3        -1.0380   30.2530   44.9570 N.2   200  ADP200     -0.0055
     27  C4         0.2920   30.4360   45.2310 C.2   200  ADP200      0.3518
@<TRIPOS>BOND
     1    14    13    1
     2    10    11    1
     3    10     9    1
     4    16    15    1
     5    11    13    1
     6    11    12    1
     7     7     5    2
     8     3     1    2
     9     4     1    1
    10     8     1    1
    11     8     5    1
    12    13    15    1
    13    12    17    1
    14     1     2    1
    15    15    17    1
    16     9     5    1
    17     5     6    1
    18    17    18    1
    19    18    19    1
    20    18    27    1
    21    26    27    2
    22    26    25    1
    23    19    20    1
    24    27    21    1
    25    25    24    1
    26    20    21    2
    27    21    22    1
    28    24    22    2
    29    22    23    1
