@<TRIPOS>MOLECULE
1thp_0G6_B_1.pdb
 30 31 0 0 0
SMALL
GASTEIGER

@<TRIPOS>ATOM
      1  N         31.7550   43.1940   20.9380 N.3   301  0G6301     -0.1228
      2  CA        31.6220   43.7110   22.3430 C.3   301  0G6301      0.1721
      3  C         30.5900   42.8700   23.0650 C.2   301  0G6301      0.2437
      4  O         30.5770   41.6500   22.9270 O.2   301  0G6301     -0.2733
      5  CB        33.0080   43.6450   22.9920 C.3   301  0G6301      0.0547
      6  CG        33.0280   44.2420   24.3840 C.ar  301  0G6301     -0.0202
      7  CD1       32.7770   45.6360   24.6080 C.ar  301  0G6301     -0.0042
      8  CD2       33.3200   43.4120   25.5080 C.ar  301  0G6301     -0.0042
      9  CE1       32.8170   46.1820   25.9210 C.ar  301  0G6301     -0.0003
     10  CE2       33.3630   43.9400   26.8200 C.ar  301  0G6301     -0.0003
     11  CZ        33.1110   45.3380   27.0260 C.ar  301  0G6301     -0.0000
     12  N1        29.6830   43.5110   23.8160 N.am  301  0G6301     -0.2718
     13  CA1       28.6760   42.7250   24.5340 C.3   301  0G6301      0.1535
     14  C1        27.7780   41.9030   23.5970 C.2   301  0G6301      0.2595
     15  O1        27.6100   42.2290   22.4210 O.2   301  0G6301     -0.2716
     16  CB1       27.8660   43.7760   25.3110 C.3   301  0G6301      0.0310
     17  CG1       28.6340   45.0440   25.2200 C.3   301  0G6301      0.0237
     18  CD        29.4870   44.9650   23.9930 C.3   301  0G6301      0.0939
     19  N2        27.1890   40.8400   24.1210 N.am  301  0G6301     -0.2032
     20  CA2       26.2970   40.0300   23.3160 C.3   301  0G6301      0.1257
     21  C2        24.9220   39.9940   23.9760 C.3   301  0G6301      0.1718
     22  O2        23.9900   39.7260   23.1630 O.3   301  0G6301     -0.2213
     23  CB2       26.9050   38.6320   23.0710 C.3   301  0G6301      0.0280
     24  CG2       28.0000   38.6590   21.9770 C.3   301  0G6301      0.0488
     25  CD3       28.7550   37.3370   21.8440 C.3   301  0G6301      0.2205
     26  NE        29.9430   37.2990   20.9960 N.pl3 301  0G6301     -0.0865
     27  CZ1       30.4830   36.1260   20.6750 C.cat 301  0G6301      0.5346
     28  NH1       30.3190   35.0000   21.3910 N.pl3 301  0G6301      0.1354
     29  NH2       31.2450   36.0930   19.5770 N.pl3 301  0G6301      0.1354
     30  C3        24.4020   41.2840   24.6840 C.3   301  0G6301      0.0373
@<TRIPOS>BOND
     1    29    27    1
     2    27    26    2
     3    27    28    1
     4     1     2    1
     5    26    25    1
     6    25    24    1
     7    24    23    1
     8     2     5    1
     9     2     3    1
    10    15    14    2
    11     4     3    2
    12     5     6    1
    13     3    12   am
    14    23    20    1
    15    22    21    1
    16    20    21    1
    17    20    19    1
    18    14    19   am
    19    14    13    1
    20    12    18    1
    21    12    13    1
    22    21    30    1
    23    18    17    1
    24     6     7   ar
    25     6     8   ar
    26    13    16    1
    27     7     9   ar
    28    17    16    1
    29     8    10   ar
    30     9    11   ar
    31    10    11   ar
