@<TRIPOS>MOLECULE
1thy_UMP_A_1.pdb
 20 21 0 0 0
SMALL
GASTEIGER

@<TRIPOS>ATOM
      1  N1        15.3100   46.7810  -52.3740 N.am  317  UMP317     -0.1790
      2  C2        16.0480   45.7200  -51.9040 C.1   317  UMP317      0.2844
      3  N3        15.3260   44.7270  -51.2910 N.2   317  UMP317     -0.2452
      4  C4        13.9700   44.6960  -51.1020 C.1   317  UMP317      0.2182
      5  C5        13.3040   45.8670  -51.5590 C.2   317  UMP317      0.1242
      6  C6        14.0300   46.8770  -52.1640 C.2   317  UMP317      0.0928
      7  O2        17.2820   45.6680  -51.9040 O.2   317  UMP317     -0.1918
      8  O4        13.4120   43.6230  -50.9120 O.2   317  UMP317     -0.2085
      9  C1'       15.8290   47.5330  -53.5180 C.3   317  UMP317      0.2090
     10  C2'       15.2150   47.2220  -54.8380 C.3   317  UMP317      0.0874
     11  C3'       16.4090   46.6340  -55.5700 C.3   317  UMP317      0.1857
     12  C4'       17.4660   47.6820  -55.1500 C.3   317  UMP317      0.1774
     13  O3'       16.7290   45.3250  -55.0430 O.3   317  UMP317     -0.2203
     14  O4'       17.0460   48.2550  -53.8450 O.3   317  UMP317     -0.3339
     15  C5'       17.6120   48.8050  -56.2480 C.3   317  UMP317      0.1858
     16  O5'       16.4030   49.5260  -56.6930 O.3   317  UMP317     -0.2675
     17  P         15.7740   49.4150  -58.1510 P.3   317  UMP317      0.5327
     18  OP1       16.7870   49.4260  -59.1980 O.2   317  UMP317     -0.2224
     19  OP2       15.0790   48.1240  -58.1160 O.3   317  UMP317     -0.1145
     20  OP3       14.8380   50.5030  -58.4170 O.3   317  UMP317     -0.1145
@<TRIPOS>BOND
     1    18    17    2
     2    20    17    1
     3    17    19    1
     4    17    16    1
     5    16    15    1
     6    15    12    1
     7    11    12    1
     8    11    13    1
     9    11    10    1
    10    12    14    1
    11    10     9    1
    12    14     9    1
    13     9     1    1
    14     1     6    1
    15     1     2   am
    16     6     5    2
    17     7     2    2
    18     2     3    2
    19     5     4    1
    20     3     4    2
    21     4     8    2
