@<TRIPOS>MOLECULE
1ti2_MGD_A_1.pdb
 47 52 0 0 0
SMALL
GASTEIGER

@<TRIPOS>ATOM
      1  PB        19.1640  -72.8500  -41.5230 P.3   900  MGD900      0.2189
      2  O1B       18.4890  -74.0840  -40.9990 O.2   900  MGD900     -0.5170
      3  O2B       18.8130  -71.5500  -40.8410 O.3   900  MGD900     -0.4371
      4  O3B       20.7530  -72.8490  -41.5080 O.3   900  MGD900     -0.2703
      5  O3A       22.9550  -74.4210  -40.9170 O.3   900  MGD900     -0.3112
      6  PA        21.7780  -74.0130  -41.8760 P.3   900  MGD900      0.2189
      7  O1A       21.8950  -74.5000  -43.3040 O.2   900  MGD900     -0.5170
      8  O2A       22.6400  -72.8360  -42.2010 O.3   900  MGD900     -0.4371
      9  O5'       18.8210  -72.6640  -43.0890 O.3   900  MGD900     -0.3112
     10  C5'       17.8930  -73.5890  -43.7750 C.3   900  MGD900      0.1813
     11  C4'       17.4220  -72.8280  -45.0170 C.3   900  MGD900      0.1799
     12  O4'       16.4390  -73.7180  -45.5970 O.3   900  MGD900     -0.3326
     13  C3'       16.6910  -71.5130  -44.6810 C.3   900  MGD900      0.2158
     14  O3'       17.2350  -70.4780  -45.5200 O.3   900  MGD900     -0.2175
     15  C2'       15.1990  -71.7810  -44.9900 C.3   900  MGD900      0.2310
     16  O2'       14.4390  -70.6300  -45.3800 O.3   900  MGD900     -0.2158
     17  C1'       15.2580  -72.9440  -46.0090 C.3   900  MGD900      0.2293
     18  N9        14.1130  -73.8300  -45.9180 N.pl3 900  MGD900     -0.2354
     19  C8        13.5940  -74.4790  -44.7640 C.3   900  MGD900      0.2246
     20  N7        12.5360  -75.2200  -45.0300 N.2   900  MGD900     -0.2322
     21  C5        12.3250  -75.0740  -46.4080 C.2   900  MGD900      0.2182
     22  C6        11.3300  -75.6230  -47.3000 C.1   900  MGD900      0.2372
     23  O6        10.3820  -76.4010  -46.9970 O.2   900  MGD900     -0.2069
     24  N1        11.4660  -75.2180  -48.6590 N.2   900  MGD900     -0.2485
     25  C2        12.4930  -74.3470  -49.0880 C.1   900  MGD900      0.2531
     26  N2        12.5210  -74.0390  -50.4240 N.pl3 900  MGD900     -0.0226
     27  N3        13.4340  -73.8160  -48.2860 N.2   900  MGD900     -0.3074
     28  C4        13.2830  -74.2210  -46.9770 C.2   900  MGD900      0.2300
     29  C10       23.0020  -74.0360  -39.5030 C.3   900  MGD900      0.1798
     30  C11       24.4320  -74.3980  -39.1970 C.3   900  MGD900      0.1623
     31  O11       25.0660  -73.2090  -38.5370 O.3   900  MGD900     -0.3309
     32  C12       24.5420  -75.5580  -38.1940 C.3   900  MGD900      0.1141
     33  S12       23.4610  -76.9980  -38.0670 S.3   900  MGD900     -0.0753
     34  C13       25.5010  -75.6050  -37.2470 C.2   900  MGD900      0.0309
     35  S13       25.3190  -76.9570  -36.2750 S.2   900  MGD900     -0.0569
     36  C14       26.5740  -74.5360  -37.0770 C.3   900  MGD900      0.1817
     37  N15       26.3690  -73.9000  -35.7100 N.2   900  MGD900     -0.2414
     38  C16       27.3260  -72.7840  -35.5360 C.2   900  MGD900      0.2467
     39  C17       27.7860  -72.4020  -34.2500 C.1   900  MGD900      0.2441
     40  O17       27.6120  -73.0450  -33.1730 O.2   900  MGD900     -0.2063
     41  N18       28.5050  -71.1520  -34.2010 N.2   900  MGD900     -0.2474
     42  C19       28.7480  -70.3570  -35.3260 C.1   900  MGD900      0.2608
     43  N19       29.4430  -69.1770  -35.1750 N.pl3 900  MGD900     -0.0220
     44  N20       28.3250  -70.7190  -36.5620 N.2   900  MGD900     -0.2682
     45  C21       27.6210  -71.9370  -36.6340 C.1   900  MGD900      0.1293
     46  N22       27.2090  -72.2720  -37.9250 N.2   900  MGD900     -0.1763
     47  C23       26.4610  -73.5200  -38.2390 C.3   900  MGD900      0.2567
@<TRIPOS>BOND
     1    26    25    1
     2    25    24    2
     3    25    27    2
     4    24    22    2
     5    27    28    2
     6    22    23    2
     7    22    21    1
     8    28    21    1
     9    28    18    1
    10    21    20    2
    11    17    18    1
    12    17    12    1
    13    17    15    1
    14    18    19    1
    15    12    11    1
    16    14    13    1
    17    16    15    1
    18    20    19    1
    19    11    13    1
    20    11    10    1
    21    15    13    1
    22    10     9    1
    23     7     6    2
    24     9     1    1
    25     8     6    1
    26     6     4    1
    27     6     5    1
    28     1     4    1
    29     1     2    2
    30     1     3    1
    31     5    29    1
    32    29    30    1
    33    30    31    1
    34    30    32    1
    35    31    47    1
    36    47    46    1
    37    47    36    1
    38    32    33    1
    39    32    34    1
    40    46    45    2
    41    34    36    1
    42    34    35    2
    43    36    37    1
    44    45    44    2
    45    45    38    1
    46    44    42    2
    47    37    38    2
    48    38    39    1
    49    42    43    1
    50    42    41    2
    51    39    41    2
    52    39    40    2
