@<TRIPOS>MOLECULE
1ti4_MGD_A_1.pdb
 47 52 0 0 0
SMALL
GASTEIGER

@<TRIPOS>ATOM
      1  PB        19.3770  -72.5300  -41.3730 P.3   900  MGD900      0.2189
      2  O1B       18.6730  -73.7640  -40.9100 O.2   900  MGD900     -0.5170
      3  O2B       18.9200  -71.2390  -40.7420 O.3   900  MGD900     -0.4371
      4  O3B       20.9150  -72.5150  -41.0420 O.3   900  MGD900     -0.2703
      5  O3A       23.5220  -73.3990  -40.8150 O.3   900  MGD900     -0.3109
      6  PA        22.2740  -73.1170  -41.7010 P.3   900  MGD900      0.2189
      7  O1A       22.6010  -72.8830  -43.1750 O.2   900  MGD900     -0.5170
      8  O2A       22.6090  -71.7100  -41.3890 O.3   900  MGD900     -0.4371
      9  O5'       19.2210  -72.2670  -42.9660 O.3   900  MGD900     -0.3112
     10  C5'       18.3390  -73.1230  -43.7840 C.3   900  MGD900      0.1813
     11  C4'       17.8950  -72.2090  -44.9440 C.3   900  MGD900      0.1799
     12  O4'       16.9120  -73.0530  -45.6190 O.3   900  MGD900     -0.3326
     13  C3'       17.1630  -70.9210  -44.4530 C.3   900  MGD900      0.2158
     14  O3'       17.7130  -69.7400  -45.1210 O.3   900  MGD900     -0.2175
     15  C2'       15.6700  -71.1880  -44.7830 C.3   900  MGD900      0.2310
     16  O2'       14.8390  -70.0680  -45.0640 O.3   900  MGD900     -0.2158
     17  C1'       15.6970  -72.2860  -45.8810 C.3   900  MGD900      0.2293
     18  N9        14.5640  -73.1990  -45.7450 N.pl3 900  MGD900     -0.2354
     19  C8        14.0990  -73.8070  -44.5630 C.3   900  MGD900      0.2246
     20  N7        13.0490  -74.5750  -44.7570 N.2   900  MGD900     -0.2322
     21  C5        12.7930  -74.4870  -46.1400 C.2   900  MGD900      0.2182
     22  C6        11.7600  -75.1050  -46.9350 C.1   900  MGD900      0.2372
     23  O6        10.8490  -75.8890  -46.5420 O.2   900  MGD900     -0.2069
     24  N1        11.8290  -74.7670  -48.3310 N.2   900  MGD900     -0.2485
     25  C2        12.8090  -73.8970  -48.8650 C.1   900  MGD900      0.2531
     26  N2        12.7520  -73.6640  -50.2130 N.pl3 900  MGD900     -0.0226
     27  N3        13.7830  -73.3030  -48.1240 N.2   900  MGD900     -0.3074
     28  C4        13.7010  -73.6420  -46.7800 C.2   900  MGD900      0.2300
     29  C10       23.4250  -73.6270  -39.3680 C.3   900  MGD900      0.1837
     30  C11       24.8640  -73.9570  -39.0000 C.3   900  MGD900      0.1762
     31  O11       25.4450  -72.7210  -38.3480 O.3   900  MGD900     -0.3271
     32  C12       24.9490  -75.0850  -37.9510 C.2   900  MGD900      0.0473
     33  S12       23.8650  -76.5140  -37.8880 S.3   900  MGD900     -0.0526
     34  C13       25.8920  -75.0830  -36.9190 C.2   900  MGD900      0.0449
     35  S13       25.7010  -76.4320  -35.8570 S.3   900  MGD900     -0.0530
     36  C14       26.9460  -73.9640  -36.7570 C.3   900  MGD900      0.1850
     37  N15       26.7320  -73.2750  -35.4280 N.2   900  MGD900     -0.2411
     38  C16       27.6970  -72.1550  -35.3030 C.2   900  MGD900      0.2467
     39  C17       28.1650  -71.7590  -34.0260 C.1   900  MGD900      0.2441
     40  O17       28.0210  -72.4030  -32.9420 O.2   900  MGD900     -0.2063
     41  N18       28.8560  -70.4960  -33.9930 N.2   900  MGD900     -0.2474
     42  C19       29.0680  -69.7090  -35.1220 C.1   900  MGD900      0.2608
     43  N19       29.7370  -68.5240  -34.9780 N.pl3 900  MGD900     -0.0220
     44  N20       28.6410  -70.0790  -36.3630 N.2   900  MGD900     -0.2682
     45  C21       27.9600  -71.3170  -36.4270 C.1   900  MGD900      0.1293
     46  N22       27.5460  -71.6870  -37.7140 N.2   900  MGD900     -0.1763
     47  C23       26.8420  -72.9770  -37.9820 C.3   900  MGD900      0.2573
@<TRIPOS>BOND
     1    26    25    1
     2    25    24    2
     3    25    27    2
     4    24    22    2
     5    27    28    2
     6    22    23    2
     7    22    21    1
     8    28    21    1
     9    28    18    1
    10    21    20    2
    11    17    18    1
    12    17    12    1
    13    17    15    1
    14    18    19    1
    15    12    11    1
    16    14    13    1
    17    16    15    1
    18    11    13    1
    19    11    10    1
    20    15    13    1
    21    20    19    1
    22    10     9    1
    23     7     6    2
    24     9     1    1
    25     6     8    1
    26     6     4    1
    27     6     5    1
    28     1     4    1
    29     1     2    2
    30     1     3    1
    31     5    29    1
    32    29    30    1
    33    30    31    1
    34    30    32    1
    35    31    47    1
    36    47    46    1
    37    47    36    1
    38    32    33    1
    39    32    34    2
    40    46    45    2
    41    34    36    1
    42    34    35    1
    43    36    37    1
    44    45    44    2
    45    45    38    1
    46    44    42    2
    47    37    38    2
    48    38    39    1
    49    42    43    1
    50    42    41    2
    51    39    41    2
    52    39    40    2
