@<TRIPOS>MOLECULE
1ti6_BTT_A_1.pdb
 10 10 0 0 0
SMALL
GASTEIGER

@<TRIPOS>ATOM
      1  C1        20.6830  -82.5040  -37.4550 C.2   950  BTT950      0.2330
      2  C2        20.6800  -82.7480  -39.0200 C.2   950  BTT950      0.2370
      3  C3        21.7350  -81.9300  -39.9170 C.2   950  BTT950      0.0858
      4  C4        22.6190  -81.0380  -39.3270 C.2   950  BTT950      0.2109
      5  C5        22.6080  -80.8180  -37.7970 C.3   950  BTT950      0.2383
      6  C6        21.5690  -81.6170  -36.9020 C.2   950  BTT950      0.0594
      7  O1        19.8660  -83.1070  -36.5740 O.2   950  BTT950     -0.2834
      8  O2        19.9020  -83.5200  -39.4520 O.2   950  BTT950     -0.2831
      9  O4        23.5290  -80.3160  -39.9900 O.2   950  BTT950     -0.2882
     10  O5        22.3880  -79.5720  -37.5070 O.3   950  BTT950     -0.2097
@<TRIPOS>BOND
     1     9     4    1
     2     3     4    2
     3     3     2    1
     4     8     2    2
     5     4     5    1
     6     2     1    1
     7     5    10    1
     8     5     6    1
     9     1     6    2
    10     1     7    1
