@<TRIPOS>MOLECULE
1ti6_MGD_A_1.pdb
 47 52 0 0 0
SMALL
GASTEIGER

@<TRIPOS>ATOM
      1  PB        19.2930  -72.6540  -41.4510 P.3   900  MGD900      0.2189
      2  O1B       18.7080  -73.8840  -40.8510 O.2   900  MGD900     -0.5170
      3  O2B       18.9380  -71.3260  -40.7980 O.3   900  MGD900     -0.4371
      4  O3B       20.8760  -72.6150  -41.4740 O.3   900  MGD900     -0.2703
      5  O3A       23.0780  -74.1870  -40.8120 O.3   900  MGD900     -0.3112
      6  PA        21.8500  -73.8520  -41.7190 P.3   900  MGD900      0.2189
      7  O1A       21.9090  -74.4700  -43.0770 O.2   900  MGD900     -0.5170
      8  O2A       22.7020  -72.7350  -42.1750 O.3   900  MGD900     -0.4371
      9  O5'       18.8930  -72.4770  -43.0270 O.3   900  MGD900     -0.3112
     10  C5'       17.9670  -73.3940  -43.7460 C.3   900  MGD900      0.1813
     11  C4'       17.5220  -72.5070  -44.9120 C.3   900  MGD900      0.1799
     12  O4'       16.5320  -73.3160  -45.5800 O.3   900  MGD900     -0.3326
     13  C3'       16.8250  -71.1970  -44.4210 C.3   900  MGD900      0.2158
     14  O3'       17.4090  -70.0110  -45.0180 O.3   900  MGD900     -0.2175
     15  C2'       15.3230  -71.4240  -44.7690 C.3   900  MGD900      0.2310
     16  O2'       14.5420  -70.2690  -45.0720 O.3   900  MGD900     -0.2158
     17  C1'       15.3490  -72.5250  -45.8620 C.3   900  MGD900      0.2293
     18  N9        14.2460  -73.4390  -45.7660 N.pl3 900  MGD900     -0.2354
     19  C8        13.7550  -74.0730  -44.6060 C.3   900  MGD900      0.2246
     20  N7        12.7290  -74.8570  -44.8590 N.2   900  MGD900     -0.2322
     21  C5        12.5220  -74.7420  -46.2440 C.2   900  MGD900      0.2182
     22  C6        11.5510  -75.3610  -47.1100 C.1   900  MGD900      0.2372
     23  O6        10.6390  -76.1720  -46.7790 O.2   900  MGD900     -0.2069
     24  N1        11.6710  -74.9830  -48.4890 N.2   900  MGD900     -0.2485
     25  C2        12.6580  -74.0880  -48.9570 C.1   900  MGD900      0.2531
     26  N2        12.6640  -73.8170  -50.3080 N.pl3 900  MGD900     -0.0226
     27  N3        13.5850  -73.4940  -48.1530 N.2   900  MGD900     -0.3074
     28  C4        13.4470  -73.8760  -46.8300 C.2   900  MGD900      0.2300
     29  C10       23.1980  -73.7280  -39.4400 C.3   900  MGD900      0.1798
     30  C11       24.6140  -74.1860  -39.1210 C.3   900  MGD900      0.1623
     31  O11       25.2590  -73.0180  -38.4790 O.3   900  MGD900     -0.3309
     32  C12       24.6720  -75.3350  -38.0850 C.3   900  MGD900      0.1141
     33  S12       23.5470  -76.7250  -38.0130 S.3   900  MGD900     -0.0753
     34  C13       25.6290  -75.3770  -37.0600 C.2   900  MGD900      0.0309
     35  S13       25.4110  -76.7040  -36.0010 S.2   900  MGD900     -0.0569
     36  C14       26.7010  -74.3050  -36.9070 C.3   900  MGD900      0.1817
     37  N15       26.4860  -73.5950  -35.5990 N.2   900  MGD900     -0.2414
     38  C16       27.4590  -72.5020  -35.4840 C.2   900  MGD900      0.2467
     39  C17       27.9110  -72.0870  -34.2080 C.1   900  MGD900      0.2441
     40  O17       27.7590  -72.7270  -33.1320 O.2   900  MGD900     -0.2063
     41  N18       28.5890  -70.8200  -34.1820 N.2   900  MGD900     -0.2474
     42  C19       28.7980  -70.0570  -35.3300 C.1   900  MGD900      0.2608
     43  N19       29.4440  -68.8640  -35.2240 N.pl3 900  MGD900     -0.0220
     44  N20       28.3870  -70.4550  -36.5590 N.2   900  MGD900     -0.2682
     45  C21       27.7260  -71.6820  -36.6060 C.1   900  MGD900      0.1293
     46  N22       27.3290  -72.0680  -37.8880 N.2   900  MGD900     -0.1763
     47  C23       26.6400  -73.3330  -38.1460 C.3   900  MGD900      0.2567
@<TRIPOS>BOND
     1    26    25    1
     2    25    24    2
     3    25    27    2
     4    24    22    2
     5    27    28    2
     6    22    23    2
     7    22    21    1
     8    28    21    1
     9    28    18    1
    10    21    20    2
    11    17    18    1
    12    17    12    1
    13    17    15    1
    14    18    19    1
    15    12    11    1
    16    16    15    1
    17    14    13    1
    18    11    13    1
    19    11    10    1
    20    20    19    1
    21    15    13    1
    22    10     9    1
    23     7     6    2
    24     9     1    1
    25     8     6    1
    26     6     4    1
    27     6     5    1
    28     4     1    1
    29     1     2    2
    30     1     3    1
    31     5    29    1
    32    29    30    1
    33    30    31    1
    34    30    32    1
    35    31    47    1
    36    47    46    1
    37    47    36    1
    38    32    33    1
    39    32    34    1
    40    46    45    2
    41    34    36    1
    42    34    35    2
    43    36    37    1
    44    45    44    2
    45    45    38    1
    46    44    42    2
    47    37    38    2
    48    38    39    1
    49    42    43    1
    50    42    41    2
    51    39    41    2
    52    39    40    2
