@<TRIPOS>MOLECULE
1ti7_NAP_A_1.pdb
 48 52 0 0 0
SMALL
GASTEIGER

@<TRIPOS>ATOM
      1  PA         1.8020   67.3510   33.7760 P.3   400  NAP400      0.2189
      2  O1A        2.5850   68.1540   34.7210 O.3   400  NAP400     -0.4371
      3  O2A        2.2260   67.3960   32.3890 O.2   400  NAP400     -0.5170
      4  O5B        0.2800   67.8700   33.7140 O.3   400  NAP400     -0.3112
      5  C5B       -0.5000   67.9700   34.9060 C.3   400  NAP400      0.1813
      6  C4B       -2.0210   67.5650   34.6670 C.3   400  NAP400      0.1820
      7  O4B       -3.0860   67.5240   35.6360 O.3   400  NAP400     -0.3136
      8  C3B       -2.5970   68.2840   33.4550 C.3   400  NAP400      0.2157
      9  O3B       -2.8530   67.3390   32.4110 O.3   400  NAP400     -0.2175
     10  C2B       -3.8660   68.9390   33.9450 C.3   400  NAP400      0.2314
     11  O2B       -4.9160   68.9210   32.9410 O.3   400  NAP400     -0.2630
     12  C1B       -4.2790   68.0870   35.0990 C.3   400  NAP400      0.3158
     13  N9A       -5.0380   68.7760   36.2100 N.pl3 400  NAP400     -0.1439
     14  C8A       -5.1070   70.1260   36.5560 C.3   400  NAP400      0.3377
     15  N7A       -5.8850   70.3480   37.5890 N.2   400  NAP400     -0.2095
     16  C5A       -6.3540   69.1060   37.9510 C.2   400  NAP400      0.2526
     17  C6A       -7.2310   68.6700   38.9770 C.2   400  NAP400      0.4393
     18  N6A       -7.7790   69.5160   39.8330 N.pl3 400  NAP400      0.2180
     19  N1A       -7.5050   67.3280   39.0700 N.2   400  NAP400      0.0021
     20  C2A       -6.9510   66.4540   38.2000 C.3   400  NAP400      0.5254
     21  N3A       -6.1160   66.7800   37.2030 N.2   400  NAP400     -0.0055
     22  C4A       -5.8550   68.1350   37.1300 C.2   400  NAP400      0.3518
     23  O3         1.6250   65.8260   34.2500 O.3   400  NAP400     -0.2703
     24  PN         2.7710   64.7250   34.2940 P.3   400  NAP400      0.2189
     25  O1N        4.0620   65.4100   34.1250 O.3   400  NAP400     -0.4371
     26  O2N        2.5160   63.7160   33.2810 O.2   400  NAP400     -0.5170
     27  O5D        2.5870   64.1270   35.7790 O.3   400  NAP400     -0.3112
     28  C5D        2.7440   64.8830   36.9340 C.3   400  NAP400      0.1813
     29  C4D        3.4810   64.0870   37.9550 C.3   400  NAP400      0.1799
     30  O4D        4.8260   63.9320   37.4250 O.3   400  NAP400     -0.3327
     31  C3D        3.7010   64.7780   39.2850 C.3   400  NAP400      0.2158
     32  O3D        3.1650   63.8970   40.2720 O.3   400  NAP400     -0.2175
     33  C2D        5.2520   65.0130   39.4330 C.3   400  NAP400      0.2309
     34  O2D        5.6540   64.8770   40.7870 O.3   400  NAP400     -0.2158
     35  C1D        5.7410   63.9180   38.5270 C.3   400  NAP400      0.2263
     36  N1N        7.1220   64.2010   38.0740 N.pl3 400  NAP400     -0.2787
     37  C2N        7.5160   65.4390   37.4190 C.3   400  NAP400      0.1244
     38  C3N        8.8770   65.6240   37.0200 C.2   400  NAP400      0.0544
     39  C7N        9.2970   66.9060   36.3560 C.2   400  NAP400      0.2818
     40  O7N       10.4200   67.2620   36.2680 O.2   400  NAP400     -0.2670
     41  N7N        8.2770   67.6790   35.8510 N.am  400  NAP400     -0.0839
     42  C4N        9.8420   64.5740   37.2720 C.2   400  NAP400      0.0033
     43  C5N        9.4580   63.3550   37.9150 C.2   400  NAP400      0.0157
     44  C6N        8.1030   63.1450   38.3270 C.2   400  NAP400      0.0633
     45  P2B       -5.4360   70.2160   32.1550 P.3   400  NAP400      0.5328
     46  O1X       -4.4330   71.3290   32.2370 O.3   400  NAP400     -0.1145
     47  O2X       -5.6410   69.6020   30.8280 O.2   400  NAP400     -0.2224
     48  O3X       -6.7070   70.5050   32.8360 O.3   400  NAP400     -0.1145
@<TRIPOS>BOND
     1    47    45    2
     2    45    46    1
     3    45    48    1
     4    45    11    1
     5     3     1    2
     6     9     8    1
     7    11    10    1
     8    26    24    2
     9     8    10    1
    10     8     6    1
    11     4     1    1
    12     4     5    1
    13     1    23    1
    14     1     2    1
    15    10    12    1
    16    25    24    1
    17    23    24    1
    18    24    27    1
    19     6     5    1
    20     6     7    1
    21    12     7    1
    22    12    13    1
    23    27    28    1
    24    41    39   am
    25    13    14    1
    26    13    22    1
    27    40    39    2
    28    39    38    1
    29    14    15    1
    30    28    29    1
    31    38    42    2
    32    38    37    1
    33    22    21    2
    34    22    16    1
    35    21    20    1
    36    42    43    1
    37    37    36    1
    38    30    29    1
    39    30    35    1
    40    15    16    2
    41    43    44    2
    42    16    17    1
    43    29    31    1
    44    36    44    1
    45    36    35    1
    46    20    19    1
    47    35    33    1
    48    17    19    2
    49    17    18    1
    50    31    33    1
    51    31    32    1
    52    33    34    1
