@<TRIPOS>MOLECULE
1tid_ATP_A_1.pdb
 31 33 0 0 0
SMALL
GASTEIGER

@<TRIPOS>ATOM
      1  PG        60.7930   -7.5980  -42.3180 P.3   200  ATP200      0.5373
      2  O1G       61.6110   -8.1880  -43.4060 O.2   200  ATP200     -0.2221
      3  O2G       59.6290   -6.8010  -42.7880 O.3   200  ATP200     -0.1143
      4  O3G       60.3790   -8.6280  -41.3550 O.3   200  ATP200     -0.1143
      5  PB        62.0280   -5.0950  -41.7110 P.3   200  ATP200      0.2277
      6  O1B       62.1580   -4.6890  -43.0690 O.2   200  ATP200     -0.5168
      7  O2B       62.0430   -4.1550  -40.6140 O.3   200  ATP200     -0.4368
      8  O3B       61.6930   -6.5920  -41.4780 O.3   200  ATP200     -0.2258
      9  PA        64.6770   -6.4910  -42.0510 P.3   200  ATP200      0.2189
     10  O1A       65.3520   -6.4160  -43.3180 O.2   200  ATP200     -0.5170
     11  O2A       64.9070   -7.5880  -41.1190 O.3   200  ATP200     -0.4371
     12  O3A       63.6500   -5.3740  -41.6920 O.3   200  ATP200     -0.2700
     13  O5'       65.7060   -5.5330  -41.6260 O.3   200  ATP200     -0.3112
     14  C5'       66.1240   -4.4860  -40.9910 C.3   200  ATP200      0.1813
     15  C4'       66.5450   -3.0630  -40.9150 C.3   200  ATP200      0.1821
     16  O4'       67.5820   -2.9870  -41.9160 O.3   200  ATP200     -0.3135
     17  C3'       65.3190   -2.4000  -41.4210 C.3   200  ATP200      0.2184
     18  O3'       64.3180   -2.0600  -40.4780 O.3   200  ATP200     -0.2174
     19  C2'       65.9550   -1.2270  -42.2140 C.3   200  ATP200      0.2570
     20  O2'       66.0260   -0.0740  -41.3840 O.3   200  ATP200     -0.2130
     21  C1'       67.3890   -1.7070  -42.6340 C.3   200  ATP200      0.3186
     22  N9        67.5500   -1.9790  -44.0940 N.pl3 200  ATP200     -0.1439
     23  C8        67.4830   -3.1980  -44.7900 C.3   200  ATP200      0.3377
     24  N7        67.6730   -3.1080  -46.0690 N.2   200  ATP200     -0.2095
     25  C5        67.8810   -1.7360  -46.2500 C.2   200  ATP200      0.2526
     26  C6        68.1530   -0.9180  -47.4280 C.2   200  ATP200      0.4393
     27  N6        68.2510   -1.4400  -48.6440 N.pl3 200  ATP200      0.2180
     28  N1        68.3140    0.4510  -47.2640 N.2   200  ATP200      0.0021
     29  C2        68.2190    1.0060  -46.0380 C.3   200  ATP200      0.5254
     30  N3        67.9690    0.3610  -44.8710 N.2   200  ATP200     -0.0055
     31  C4        67.8080   -1.0430  -45.0570 C.2   200  ATP200      0.3518
@<TRIPOS>BOND
     1    27    26    1
     2    26    28    2
     3    26    25    1
     4    28    29    1
     5    25    24    2
     6    25    31    1
     7    24    23    1
     8    29    30    1
     9    31    30    2
    10    31    22    1
    11    23    22    1
    12    22    21    1
    13     2     1    2
    14    10     9    2
    15     6     5    2
    16     3     1    1
    17    21    19    1
    18    21    16    1
    19     1     8    1
    20     1     4    1
    21    19    17    1
    22    19    20    1
    23     9    12    1
    24     9    13    1
    25     9    11    1
    26    16    15    1
    27     5    12    1
    28     5     8    1
    29     5     7    1
    30    13    14    1
    31    17    15    1
    32    17    18    1
    33    14    15    1
