@<TRIPOS>MOLECULE
1til_ATP_A_1.pdb
 31 33 0 0 0
SMALL
GASTEIGER

@<TRIPOS>ATOM
      1  PG        76.1090    9.9820  101.3050 P.3   200  ATP200      0.5373
      2  O1G       76.2080    8.5820  100.7790 O.2   200  ATP200     -0.2221
      3  O2G       75.6780   10.1130  102.7300 O.3   200  ATP200     -0.1143
      4  O3G       77.3840   10.7030  101.0750 O.3   200  ATP200     -0.1143
      5  PB        74.5090   12.2670  100.7630 P.3   200  ATP200      0.2277
      6  O1B       74.4520   12.7000  102.1210 O.3   200  ATP200     -0.4368
      7  O2B       74.3120   13.1650   99.6500 O.2   200  ATP200     -0.5168
      8  O3B       74.9790   10.8040  100.5400 O.3   200  ATP200     -0.2258
      9  PA        72.1100   10.5680  101.3560 P.3   200  ATP200      0.2189
     10  O1A       71.6030   10.5600  102.6910 O.3   200  ATP200     -0.4371
     11  O2A       71.9450    9.4340  100.4610 O.2   200  ATP200     -0.5170
     12  O3A       72.9150   11.8170  100.8930 O.3   200  ATP200     -0.2700
     13  O5'       70.8860   11.3070  101.0780 O.3   200  ATP200     -0.3112
     14  C5'       70.1410   12.1770  100.5060 C.3   200  ATP200      0.1813
     15  C4'       69.7190   13.5790  100.2060 C.3   200  ATP200      0.1821
     16  O4'       68.7470   13.8270  101.2520 O.3   200  ATP200     -0.3135
     17  C3'       70.9750   14.2920  100.5140 C.3   200  ATP200      0.2184
     18  O3'       71.9050   14.4680   99.4560 O.3   200  ATP200     -0.2174
     19  C2'       70.3940   15.5690  101.1620 C.3   200  ATP200      0.2570
     20  O2'       70.2000   16.5410  100.1620 O.3   200  ATP200     -0.2130
     21  C1'       69.0320   15.1510  101.8060 C.3   200  ATP200      0.3186
     22  N9        69.0660   15.0050  103.2890 N.pl3 200  ATP200     -0.1439
     23  C8        69.2890   13.8760  104.0990 C.3   200  ATP200      0.3377
     24  N7        69.2420   14.1140  105.3800 N.2   200  ATP200     -0.2095
     25  C5        68.9730   15.4710  105.4170 C.2   200  ATP200      0.2526
     26  C6        68.7860   16.4060  106.4990 C.2   200  ATP200      0.4393
     27  N6        68.8550   16.0360  107.7650 N.pl3 200  ATP200      0.2180
     28  N1        68.5230   17.7360  106.1960 N.2   200  ATP200      0.0021
     29  C2        68.4450   18.1440  104.9150 C.3   200  ATP200      0.5254
     30  N3        68.6000   17.3690  103.8160 N.2   200  ATP200     -0.0055
     31  C4        68.8670   16.0130  104.1560 C.2   200  ATP200      0.3518
@<TRIPOS>BOND
     1    18    17    1
     2     7     5    2
     3    20    19    1
     4    15    14    1
     5    15    17    1
     6    15    16    1
     7    11     9    2
     8    14    13    1
     9    17    19    1
    10     8     5    1
    11     8     1    1
    12     5    12    1
    13     5     6    1
    14     2     1    2
    15    12     9    1
    16     4     1    1
    17    13     9    1
    18    19    21    1
    19    16    21    1
    20     1     3    1
    21     9    10    1
    22    21    22    1
    23    22    23    1
    24    22    31    1
    25    30    31    2
    26    30    29    1
    27    23    24    1
    28    31    25    1
    29    29    28    1
    30    24    25    2
    31    25    26    1
    32    28    26    2
    33    26    27    1
