@<TRIPOS>MOLECULE
1tip_F6P_A_1.pdb
 16 16 0 0 0
SMALL
GASTEIGER

@<TRIPOS>ATOM
      1  O1        24.9670   13.9610   31.2730 O.3   401  F6P401     -0.2148
      2  C1        25.2690   12.7760   30.4970 C.3   401  F6P401      0.2434
      3  C2        26.7910   12.5870   30.1660 C.3   401  F6P401      0.2807
      4  O2        27.5920   13.3200   31.0540 O.3   401  F6P401     -0.1896
      5  C3        27.1460   12.9070   28.6870 C.3   401  F6P401      0.2409
      6  O3        28.2010   13.8710   28.5540 O.3   401  F6P401     -0.2149
      7  C4        27.5350   11.5300   28.0960 C.3   401  F6P401      0.2167
      8  O4        27.1090   11.3950   26.7170 O.3   401  F6P401     -0.2175
      9  C5        26.8190   10.6110   29.0830 C.3   401  F6P401      0.1808
     10  O5        27.1630   11.2100   30.3210 O.3   401  F6P401     -0.3254
     11  C6        27.1520    9.0990   29.0220 C.3   401  F6P401      0.1859
     12  O6        26.0290    8.3420   28.4840 O.3   401  F6P401     -0.2675
     13  P         24.4440    8.7330   28.5970 P.3   401  F6P401      0.5327
     14  O1P       23.7410    7.4350   28.8570 O.3   401  F6P401     -0.1145
     15  O2P       24.2900    9.8320   29.6250 O.3   401  F6P401     -0.1145
     16  O3P       23.9600    9.3000   27.1880 O.2   401  F6P401     -0.2224
@<TRIPOS>BOND
     1     8     7    1
     2    16    13    2
     3     7     5    1
     4     7     9    1
     5    12    13    1
     6    12    11    1
     7     6     5    1
     8    13    14    1
     9    13    15    1
    10     5     3    1
    11    11     9    1
    12     9    10    1
    13     3    10    1
    14     3     2    1
    15     3     4    1
    16     2     1    1
