@<TRIPOS>MOLECULE
1tiq_COA_A_1.pdb
 48 50 0 0 0
SMALL
GASTEIGER

@<TRIPOS>ATOM
      1  N1A       15.8020   70.0020   65.9690 N.2   301  COA301      0.0021
      2  C2A       17.1910   70.2640   66.2700 C.3   301  COA301      0.5254
      3  N3A       18.1110   69.5060   65.4480 N.2   301  COA301     -0.0055
      4  C4A       17.6420   68.5650   64.4230 C.2   301  COA301      0.3518
      5  C5A       16.2800   68.3260   64.1230 C.2   301  COA301      0.2526
      6  C6A       15.3310   69.0630   64.9410 C.2   301  COA301      0.4393
      7  N6A       13.9420   68.8860   64.7280 N.pl3 301  COA301      0.2180
      8  N7A       16.1590   67.3960   63.1090 N.2   301  COA301     -0.2095
      9  C8A       17.4760   67.0720   62.7760 C.3   301  COA301      0.3377
     10  N9A       18.3900   67.7890   63.5790 N.pl3 301  COA301     -0.1439
     11  C1B       19.8120   67.7740   63.5990 C.3   301  COA301      0.3185
     12  C2B       20.5230   66.5460   64.2340 C.3   301  COA301      0.2543
     13  O2B       20.7730   66.5980   65.6060 O.3   301  COA301     -0.2131
     14  C3B       21.7470   66.3200   63.3790 C.3   301  COA301      0.1928
     15  O3B       22.9110   66.8680   64.0490 O.3   301  COA301     -0.2673
     16  P3B       24.3920   66.5390   63.6630 P.3   301  COA301      0.5327
     17  O7A       24.6960   65.1160   63.6830 O.3   301  COA301     -0.1145
     18  O8A       24.7030   67.0540   62.3160 O.2   301  COA301     -0.2224
     19  O9A       25.2040   67.2940   64.6150 O.3   301  COA301     -0.1145
     20  C4B       21.4950   66.9870   62.1000 C.3   301  COA301      0.1795
     21  O4B       20.3970   67.9130   62.2770 O.3   301  COA301     -0.3136
     22  C5B       21.3020   65.6900   61.2920 C.3   301  COA301      0.1812
     23  O5B       19.9310   65.4670   60.9890 O.3   301  COA301     -0.3112
     24  P1A       19.3000   64.1000   60.3310 P.3   301  COA301      0.2189
     25  O1A       19.9320   63.7740   59.1060 O.2   301  COA301     -0.5170
     26  O2A       19.3640   62.9330   61.2650 O.3   301  COA301     -0.4371
     27  O3A       17.7970   64.5470   60.1890 O.3   301  COA301     -0.2703
     28  P2A       16.6730   63.6840   59.5540 P.3   301  COA301      0.2188
     29  O4A       17.1660   62.4000   59.0930 O.2   301  COA301     -0.5170
     30  O5A       15.6410   63.4660   60.5060 O.3   301  COA301     -0.4371
     31  O6A       15.9630   64.3510   58.5060 O.3   301  COA301     -0.3138
     32  CBP       14.3600   65.6470   57.3850 C.3   301  COA301      0.0645
     33  CCP       15.9210   65.5710   57.8270 C.3   301  COA301      0.1519
     34  CDP       14.7810   65.4880   55.8780 C.3   301  COA301      0.0056
     35  CEP       13.6790   67.0720   57.6150 C.3   301  COA301      0.0056
     36  CAP       13.4430   64.3090   57.9520 C.3   301  COA301      0.2312
     37  OAP       13.1910   64.7680   59.3220 O.3   301  COA301     -0.2131
     38  C9P       12.1350   64.2170   57.1570 C.2   301  COA301      0.2719
     39  O9P       12.1860   63.8170   56.0150 O.2   301  COA301     -0.2706
     40  N8P       10.9230   64.6000   57.7780 N.am  301  COA301     -0.2028
     41  C7P        9.5740   64.6040   57.2380 C.3   301  COA301      0.1248
     42  C6P        9.3350   65.4020   55.8950 C.3   301  COA301      0.1102
     43  C5P        9.8050   66.8490   55.8340 C.2   301  COA301      0.2432
     44  O5P        9.4850   67.6770   56.6960 O.2   301  COA301     -0.2733
     45  N4P       10.6280   67.1770   54.7250 N.am  301  COA301     -0.2044
     46  C3P       11.2130   68.4710   54.4150 C.3   301  COA301      0.1276
     47  C2P       10.1170   69.5720   54.0520 C.3   301  COA301      0.0920
     48  S1P        8.7310   68.8770   53.0750 S.3   301  COA301     -0.0802
@<TRIPOS>BOND
     1    48    47    1
     2    47    46    1
     3    46    45    1
     4    45    43   am
     5    43    42    1
     6    43    44    2
     7    34    32    1
     8    42    41    1
     9    39    38    2
    10    38    40   am
    11    38    36    1
    12    41    40    1
    13    32    35    1
    14    32    33    1
    15    32    36    1
    16    33    31    1
    17    36    37    1
    18    31    28    1
    19    29    28    2
    20    25    24    2
    21    28    27    1
    22    28    30    1
    23    27    24    1
    24    24    23    1
    25    24    26    1
    26    23    22    1
    27    22    20    1
    28    20    21    1
    29    20    14    1
    30    21    11    1
    31    18    16    2
    32     9     8    1
    33     9    10    1
    34     8     5    2
    35    14    15    1
    36    14    12    1
    37    10    11    1
    38    10     4    1
    39    11    12    1
    40    16    17    1
    41    16    15    1
    42    16    19    1
    43     5     4    1
    44     5     6    1
    45    12    13    1
    46     4     3    2
    47     7     6    1
    48     6     1    2
    49     3     2    1
    50     1     2    1
