@<TRIPOS>MOLECULE
1tj4_SUC_A_1.pdb
 23 24 0 0 0
SMALL
GASTEIGER

@<TRIPOS>ATOM
      1  C1        45.1650    1.9560   94.5350 C.3   245  SUC245      0.2713
      2  C2        44.2690    1.9970   93.2840 C.3   245  SUC245      0.2406
      3  C3        44.6130    0.8520   92.3180 C.3   245  SUC245      0.2198
      4  C4        46.0810    1.0210   91.9380 C.3   245  SUC245      0.2144
      5  C5        46.9620    0.9660   93.2090 C.3   245  SUC245      0.1835
      6  C6        48.4470    1.1530   92.9270 C.3   245  SUC245      0.2142
      7  O1        44.8590    0.7220   95.2290 O.3   245  SUC245     -0.3033
      8  O2        42.8970    1.9110   93.6780 O.3   245  SUC245     -0.2149
      9  O3        43.7890    0.9070   91.1530 O.3   245  SUC245     -0.2174
     10  O4        46.4350   -0.0190   91.0370 O.3   245  SUC245     -0.2176
     11  O5        46.5790    2.0040   94.1380 O.3   245  SUC245     -0.3256
     12  O6        48.7010    2.4930   92.5130 O.3   245  SUC245     -0.2176
     13  C1'       43.4400    1.4720   97.1740 C.3   245  SUC245      0.2406
     14  C2'       44.6740    0.7060   96.6730 C.3   245  SUC245      0.2516
     15  C3'       44.6940   -0.8000   97.0710 C.3   245  SUC245      0.2381
     16  C4'       46.1750   -1.0610   97.3010 C.3   245  SUC245      0.2167
     17  C5'       46.5350    0.2220   98.0210 C.3   245  SUC245      0.1835
     18  C6'       48.0200    0.5340   98.0160 C.3   245  SUC245      0.2142
     19  O1'       42.2560    0.9820   96.5540 O.3   245  SUC245     -0.2149
     20  O2'       45.8260    1.2640   97.3410 O.3   245  SUC245     -0.3272
     21  O3'       44.1970   -1.6610   96.0370 O.3   245  SUC245     -0.2150
     22  O4'       46.4180   -2.2210   98.1160 O.3   245  SUC245     -0.2175
     23  O6'       48.2250    1.8630   98.4940 O.3   245  SUC245     -0.2176
@<TRIPOS>BOND
     1    10     4    1
     2     9     3    1
     3     4     3    1
     4     4     5    1
     5     3     2    1
     6    12     6    1
     7     6     5    1
     8     5    11    1
     9     2     8    1
    10     2     1    1
    11    11     1    1
    12     1     7    1
    13     7    14    1
    14    21    15    1
    15    19    13    1
    16    14    15    1
    17    14    13    1
    18    14    20    1
    19    15    16    1
    20    16    17    1
    21    16    22    1
    22    20    17    1
    23    18    17    1
    24    18    23    1
