@<TRIPOS>MOLECULE
1tj5_SUC_A_1.pdb
 23 24 0 0 0
SMALL
GASTEIGER

@<TRIPOS>ATOM
      1  C1        45.5790    1.7840   95.5730 C.3   245  SUC245      0.2713
      2  C2        44.6510    1.8060   94.3370 C.3   245  SUC245      0.2406
      3  C3        45.0290    0.6750   93.3420 C.3   245  SUC245      0.2198
      4  C4        46.4880    0.9020   92.9300 C.3   245  SUC245      0.2144
      5  C5        47.4010    0.8750   94.1760 C.3   245  SUC245      0.1835
      6  C6        48.8680    1.1290   93.8350 C.3   245  SUC245      0.2142
      7  O1        45.3260    0.5200   96.2540 O.3   245  SUC245     -0.3033
      8  O2        43.2730    1.6640   94.7720 O.3   245  SUC245     -0.2149
      9  O3        44.1800    0.7130   92.1790 O.3   245  SUC245     -0.2174
     10  O4        46.8840   -0.1250   92.0090 O.3   245  SUC245     -0.2176
     11  O5        46.9970    1.8960   95.1340 O.3   245  SUC245     -0.3256
     12  O6        48.9660    2.2760   92.9780 O.3   245  SUC245     -0.2176
     13  C1'       43.5410    1.0020   97.9760 C.3   245  SUC245      0.2406
     14  C2'       44.9650    0.5030   97.6640 C.3   245  SUC245      0.2516
     15  C3'       45.2410   -0.9500   98.1300 C.3   245  SUC245      0.2381
     16  C4'       46.7340   -0.9060   98.4150 C.3   245  SUC245      0.2167
     17  C5'       46.7680    0.4000   99.1800 C.3   245  SUC245      0.1835
     18  C6'       48.1650    0.9870   99.2860 C.3   245  SUC245      0.2142
     19  O1'       42.5710    0.2610   97.2180 O.3   245  SUC245     -0.2149
     20  O2'       45.9010    1.2930   98.4470 O.3   245  SUC245     -0.3272
     21  O3'       44.9540   -1.9050   97.1060 O.3   245  SUC245     -0.2150
     22  O4'       47.2050   -2.0100   99.2200 O.3   245  SUC245     -0.2175
     23  O6'       48.0900    2.4040   99.1810 O.3   245  SUC245     -0.2176
@<TRIPOS>BOND
     1    10     4    1
     2     9     3    1
     3     4     3    1
     4     4     5    1
     5    12     6    1
     6     3     2    1
     7     6     5    1
     8     5    11    1
     9     2     8    1
    10     2     1    1
    11    11     1    1
    12     1     7    1
    13     7    14    1
    14    21    15    1
    15    19    13    1
    16    14    13    1
    17    14    15    1
    18    14    20    1
    19    15    16    1
    20    16    17    1
    21    16    22    1
    22    20    17    1
    23    17    18    1
    24    23    18    1
