@<TRIPOS>MOLECULE
1tj9_III_B_1.pdb
 30 29 0 0 0
SMALL
GASTEIGER

@<TRIPOS>ATOM
      1  N         49.9180   45.6070   11.2070 N.3     1  VAL1       -0.1231
      2  CA        50.3110   44.2180   10.8390 C.3     1  VAL1        0.1692
      3  C         50.7980   44.1750    9.4000 C.2     1  VAL1        0.2592
      4  O         50.0690   44.4780    8.4570 O.2     1  VAL1       -0.2718
      5  CB        49.1550   43.2210   11.0670 C.3     1  VAL1        0.0266
      6  CG1       47.8370   43.9500   11.0080 C.3     1  VAL1        0.0020
      7  CG2       49.2150   42.0450   10.0790 C.3     1  VAL1        0.0020
      8  N         52.0890   43.9240    9.2740 N.am    2  ALA2       -0.1966
      9  CA        52.7320   43.6760    8.0110 C.3     2  ALA2        0.1728
     10  C         53.5220   42.3980    8.2350 C.2     2  ALA2        0.2616
     11  O         53.4800   41.8510    9.3320 O.2     2  ALA2       -0.2715
     12  CB        53.6420   44.8120    7.7270 C.3     2  ALA2        0.0334
     13  N         54.2370   41.8900    7.2380 N.am    3  ARG3       -0.1963
     14  CA        55.0750   40.7330    7.5350 C.3     3  ARG3        0.1729
     15  C         56.5540   41.0430    7.6760 C.2     3  ARG3        0.2617
     16  O         57.1640   41.6910    6.8250 O.2     3  ARG3       -0.2715
     17  CB        54.8680   39.5900    6.5780 C.3     3  ARG3        0.0348
     18  CG        54.3030   38.4100    7.2930 C.3     3  ARG3        0.0492
     19  CD        52.8180   38.4520    7.3270 C.3     3  ARG3        0.2205
     20  NE        52.3000   38.1240    6.0110 N.pl3   3  ARG3       -0.0865
     21  CZ        52.1190   36.8920    5.5780 C.cat   3  ARG3        0.5346
     22  NH1       51.6540   36.6860    4.3610 N.pl3   3  ARG3        0.1354
     23  NH2       52.4000   35.8620    6.3610 N.pl3   3  ARG3        0.1354
     24  N         57.1180   40.5440    8.7700 N.am    4  SER4       -0.1914
     25  CA        58.5020   40.8190    9.1150 C.3     4  SER4        0.2304
     26  C         59.1660   39.6510    9.8350 C.2     4  SER4        0.3869
     27  O         60.1440   39.8300   10.5630 O.co2   4  SER4       -0.2437
     28  CB        58.5560   42.0690    9.9900 C.3     4  SER4        0.2152
     29  OG        57.3780   42.1940   10.7690 O.3     4  SER4       -0.2179
     30  OXT       58.7480   38.5020    9.7030 O.co2   4  SER4       -0.2437
@<TRIPOS>BOND
     1    22    21    1
     2    21    20    2
     3    21    23    1
     4    20    19    1
     5    17    18    1
     6    17    14    1
     7    16    15    2
     8    13    14    1
     9    13    10   am
    10    18    19    1
    11    14    15    1
    12    15    24   am
    13    12     9    1
    14     9    10    1
    15     9     8    1
    16    10    11    2
    17     4     3    2
    18    24    25    1
    19    25    26    1
    20    25    28    1
    21     8     3   am
    22     3     2    1
    23    30    26   ar
    24    26    27   ar
    25    28    29    1
    26     7     5    1
    27     2     5    1
    28     2     1    1
    29     6     5    1
