@<TRIPOS>MOLECULE
1tjk_III_I_1.pdb
 41 41 0 0 0
SMALL
GASTEIGER

@<TRIPOS>ATOM
      1  N         41.0050   27.5450   10.3320 N.3     1  PHE1       -0.1227
      2  CA        40.3450   28.8330   10.1420 C.3     1  PHE1        0.1736
      3  C         41.2970   29.9850   10.4400 C.2     1  PHE1        0.2595
      4  O         40.9020   31.1490   10.4180 O.2     1  PHE1       -0.2718
      5  CB        39.0960   28.9010   10.9900 C.3     1  PHE1        0.0547
      6  CG        37.8730   29.5450   10.3780 C.ar    1  PHE1       -0.0202
      7  CD1       37.3750   29.2380    9.1020 C.ar    1  PHE1       -0.0042
      8  CD2       37.2050   30.5060   11.1260 C.ar    1  PHE1       -0.0042
      9  CE1       36.2130   29.8630    8.6440 C.ar    1  PHE1       -0.0003
     10  CE2       36.0640   31.1150   10.6770 C.ar    1  PHE1       -0.0003
     11  CZ        35.5640   30.7840    9.4390 C.ar    1  PHE1       -0.0000
     12  N         42.5340   29.6610   10.7260 N.am    2  LEU2       -0.1966
     13  CA        43.5870   30.6330   10.7790 C.3     2  LEU2        0.1728
     14  C         44.5640   29.8270    9.9800 C.2     2  LEU2        0.2617
     15  O         44.2940   28.6610    9.7010 O.2     2  LEU2       -0.2715
     16  CB        44.1430   31.0010   12.1590 C.3     2  LEU2        0.0311
     17  CG        45.0100   32.2820   12.1930 C.3     2  LEU2        0.0022
     18  CD1       45.0900   32.9000   10.8080 C.3     2  LEU2        0.0001
     19  CD2       44.4670   33.2910   13.1940 C.3     2  LEU2        0.0001
     20  N         45.6860   30.3890    9.5860 N.am    3  SER3       -0.1936
     21  CA        46.5630   29.5400    8.7860 C.3     3  SER3        0.2055
     22  C         47.7600   30.2430    8.1960 C.2     3  SER3        0.2644
     23  O         48.6740   29.5620    7.7450 O.2     3  SER3       -0.2714
     24  CB        45.7610   28.8960    7.6520 C.3     3  SER3        0.2130
     25  OG        46.4100   29.0730    6.4070 O.3     3  SER3       -0.2179
     26  N         47.8080   31.5610    8.1770 N.am    4  THR4       -0.1936
     27  CA        48.9380   32.1190    7.4820 C.3     4  THR4        0.2028
     28  C         49.5070   33.3810    8.1070 C.2     4  THR4        0.2642
     29  O         48.8680   34.4300    8.1230 O.2     4  THR4       -0.2714
     30  CB        48.5600   32.3870    6.0320 C.3     4  THR4        0.1808
     31  OG1       48.0050   31.1980    5.4570 O.3     4  THR4       -0.2208
     32  CG2       49.7700   32.8310    5.2290 C.3     4  THR4        0.0379
     33  N         50.7140   33.2630    8.6090 N.am    5  LYS5       -0.1977
     34  CA        51.3670   34.4640    9.0130 C.3     5  LYS5        0.1596
     35  C         52.0830   34.9630    7.7710 C.2     5  LYS5        0.2287
     36  O         52.2520   34.2350    6.7980 O.2     5  LYS5       -0.2864
     37  CB        52.3950   34.2530   10.1030 C.3     5  LYS5        0.0298
     38  CG        53.2290   35.4840   10.3970 C.3     5  LYS5        0.0038
     39  CD        52.8870   36.0600   11.7490 C.3     5  LYS5        0.0206
     40  CE        54.1550   36.4450   12.4950 C.3     5  LYS5        0.1093
     41  NZ        55.0060   35.2710   12.8070 N.3     5  LYS5       -0.1314
@<TRIPOS>BOND
     1    32    30    1
     2    31    30    1
     3    30    27    1
     4    25    24    1
     5    36    35    2
     6    27    28    1
     7    27    26    1
     8    24    21    1
     9    23    22    2
    10    35    34    1
    11    28    29    2
    12    28    33   am
    13    26    22   am
    14    22    21    1
    15    33    34    1
    16     9     7   ar
    17     9    11   ar
    18    21    20    1
    19    34    37    1
    20     7     6   ar
    21    11    10   ar
    22    20    14   am
    23    15    14    2
    24    14    13    1
    25    37    38    1
    26     2     1    1
    27     2     3    1
    28     2     5    1
    29     6     5    1
    30     6     8   ar
    31    38    39    1
    32     4     3    2
    33     3    12   am
    34    10     8   ar
    35    12    13    1
    36    13    16    1
    37    18    17    1
    38    39    40    1
    39    16    17    1
    40    17    19    1
    41    40    41    1
