@<TRIPOS>MOLECULE
1tjp_PLP_B_1.pdb
 15 15 0 0 0
SMALL
GASTEIGER

@<TRIPOS>ATOM
      1  N1        84.5880   13.9310   11.9060 N.ar  1002  PLP1002    -0.2452
      2  C2        84.5270   14.3920   10.6400 C.ar  1002  PLP1002     0.0978
      3  C2A       85.7790   14.3180    9.7630 C.3   1002  PLP1002     0.0555
      4  C3        83.3540   14.9460   10.1820 C.ar  1002  PLP1002     0.2049
      5  O3        83.2690   15.3650    8.8680 O.3   1002  PLP1002    -0.2857
      6  C4        82.2480   15.0490   11.0220 C.ar  1002  PLP1002     0.0182
      7  C4A       80.8890   15.5340   10.4600 C.3   1002  PLP1002     0.0342
      8  C5        82.3580   14.5940   12.3290 C.ar  1002  PLP1002     0.0261
      9  C6        83.5140   14.0310   12.7300 C.ar  1002  PLP1002     0.0965
     10  C5A       81.2130   14.8080   13.3710 C.3   1002  PLP1002     0.1815
     11  O4P       79.9690   14.0630   13.1140 O.3   1002  PLP1002    -0.2653
     12  P         79.6840   12.7050   13.8610 P.3   1002  PLP1002     0.5329
     13  O1P       78.3050   12.4260   13.4350 O.2   1002  PLP1002    -0.2224
     14  O2P       79.7460   12.9860   15.3180 O.3   1002  PLP1002    -0.1145
     15  O3P       80.6740   11.6660   13.4900 O.3   1002  PLP1002    -0.1145
@<TRIPOS>BOND
     1     5     4    1
     2     3     2    1
     3     4     2   ar
     4     4     6   ar
     5     7     6    1
     6     2     1   ar
     7     6     8   ar
     8     1     9   ar
     9     8     9   ar
    10     8    10    1
    11    11    10    1
    12    11    12    1
    13    13    12    2
    14    15    12    1
    15    12    14    1
