@<TRIPOS>MOLECULE
1tjp_HPF_A_1.pdb
 18 18 0 0 0
SMALL
GASTEIGER

@<TRIPOS>ATOM
      1  C1        52.2250   25.4770   14.7920 C.ar  1001  HPF1001     0.0434
      2  C2        51.6320   24.1490   14.7880 C.ar  1001  HPF1001     0.0034
      3  C3        50.2200   24.1300   15.0820 C.ar  1001  HPF1001     0.0015
      4  C4        49.4300   25.2790   15.3400 C.ar  1001  HPF1001     0.0194
      5  C5        50.0820   26.5240   15.3170 C.ar  1001  HPF1001     0.1068
      6  C6        51.4380   26.6300   15.0600 C.ar  1001  HPF1001     0.2104
      7  O7        52.0340   27.8570   15.0600 O.3   1001  HPF1001    -0.2852
      8  N8        49.3050   27.7450   15.5810 N.pl3 1001  HPF1001    -0.2027
      9  C9        48.1960   28.0580   14.6470 C.3   1001  HPF1001     0.2771
     10  C10       48.5990   28.0510   13.1640 C.3   1001  HPF1001     0.2328
     11  C11       47.4480   28.3470   12.2370 C.3   1001  HPF1001     0.1910
     12  O12       47.9160   28.0600   10.8770 O.3   1001  HPF1001    -0.2674
     13  P13       48.2440   29.3420    9.9520 P.3   1001  HPF1001     0.5327
     14  O14       46.8860   30.2140    9.8770 O.3   1001  HPF1001    -0.1145
     15  O15       49.4720   30.1970   10.6130 O.3   1001  HPF1001    -0.1145
     16  O16       48.5940   28.7010    8.6560 O.2   1001  HPF1001    -0.2224
     17  O17       47.1100   27.1640   14.8710 O.3   1001  HPF1001    -0.1962
     18  O18       49.5380   29.1630   13.0860 O.3   1001  HPF1001    -0.2157
@<TRIPOS>BOND
     1    16    13    2
     2    14    13    1
     3    13    15    1
     4    13    12    1
     5    12    11    1
     6    11    10    1
     7    18    10    1
     8    10     9    1
     9     9    17    1
    10     9     8    1
    11     2     1   ar
    12     2     3   ar
    13     1     6   ar
    14     7     6    1
    15     6     5   ar
    16     3     4   ar
    17     5     4   ar
    18     5     8    1
