@<TRIPOS>MOLECULE
1tjy_PAV_A_1.pdb
 10 10 0 0 0
SMALL
GASTEIGER

@<TRIPOS>ATOM
      1  O3        29.4660   30.5250   26.1210 O.3   400  PAV400     -0.1870
      2  C4        30.3820   30.1110   27.1330 C.3   400  PAV400      0.2996
      3  C11       31.0240   31.4100   27.6280 C.3   400  PAV400      0.0726
      4  O5        31.4770   29.3410   26.6760 O.3   400  PAV400     -0.3236
      5  C6        31.8450   28.3190   27.6250 C.3   400  PAV400      0.1858
      6  C7        30.8420   28.3880   28.7750 C.3   400  PAV400      0.2697
      7  O12       30.3410   27.1390   29.2140 O.3   400  PAV400     -0.2120
      8  C8        29.8020   29.3890   28.3200 C.3   400  PAV400      0.4288
      9  O1        28.7930   28.5620   27.7310 O.2   400  PAV400     -0.2670
     10  O13       29.2040   30.1890   29.3270 O.2   400  PAV400     -0.2670
@<TRIPOS>BOND
     1     1     2    1
     2     4     2    1
     3     4     5    1
     4     2     3    1
     5     2     8    1
     6     5     6    1
     7     9     8    1
     8     8     6    1
     9     8    10    1
    10     6     7    1
