@<TRIPOS>MOLECULE
1tk0_DCT_A_1.pdb
 27 28 0 0 0
SMALL
GASTEIGER

@<TRIPOS>ATOM
      1  N1        43.7680   81.2090   50.7450 N.am  823  DCT823     -0.1803
      2  C2        43.3230   80.7070   49.5060 C.1   823  DCT823      0.2756
      3  N3        42.6850   79.5100   49.4450 N.2   823  DCT823     -0.3024
      4  C4        42.4750   78.8080   50.5590 C.2   823  DCT823      0.2346
      5  C5        42.8770   79.3020   51.8490 C.2   823  DCT823      0.0687
      6  C6        43.5200   80.5000   51.8940 C.2   823  DCT823      0.0835
      7  O2        43.5220   81.3760   48.4900 O.2   823  DCT823     -0.1925
      8  N4        41.8820   77.6000   50.4360 N.pl3 823  DCT823     -0.0921
      9  C1'       44.5070   82.5030   50.7510 C.3   823  DCT823      0.2063
     10  C2'       43.6290   83.7390   50.9680 C.3   823  DCT823      0.0545
     11  C3'       43.8120   83.9810   52.4700 C.3   823  DCT823      0.0366
     12  C4'       45.2800   83.6130   52.6680 C.3   823  DCT823      0.1472
     13  O4'       45.4990   82.4960   51.7640 O.3   823  DCT823     -0.3366
     14  C5'       45.6740   83.1610   54.0500 C.3   823  DCT823      0.1785
     15  O5'       44.9520   81.9990   54.4060 O.3   823  DCT823     -0.3113
     16  PA        44.2240   81.9320   55.8100 P.3   823  DCT823      0.2189
     17  O1A       43.8830   80.5160   55.9680 O.2   823  DCT823     -0.5170
     18  O2A       45.0880   82.6130   56.8270 O.3   823  DCT823     -0.4371
     19  O3A       42.8900   82.7770   55.5590 O.3   823  DCT823     -0.2700
     20  PB        42.3020   84.0410   56.3310 P.3   823  DCT823      0.2277
     21  O1B       41.2430   84.6170   55.4660 O.2   823  DCT823     -0.5168
     22  O2B       43.4310   84.9010   56.7810 O.3   823  DCT823     -0.4368
     23  O3B       41.6360   83.2970   57.5780 O.3   823  DCT823     -0.2258
     24  PG        41.9920   83.5550   59.1130 P.3   823  DCT823      0.5373
     25  O1G       43.4690   83.5070   59.2680 O.2   823  DCT823     -0.2221
     26  O2G       41.2430   84.7570   59.5680 O.3   823  DCT823     -0.1143
     27  O3G       41.4390   82.3550   59.8670 O.3   823  DCT823     -0.1143
@<TRIPOS>BOND
     1     7     2    2
     2     3     2    2
     3     3     4    2
     4     2     1   am
     5     8     4    1
     6     4     5    1
     7     1     9    1
     8     1     6    1
     9     9    10    1
    10     9    13    1
    11    10    11    1
    12    13    12    1
    13     5     6    2
    14    11    12    1
    15    12    14    1
    16    14    15    1
    17    15    16    1
    18    21    20    2
    19    19    16    1
    20    19    20    1
    21    16    17    2
    22    16    18    1
    23    20    22    1
    24    20    23    1
    25    23    24    1
    26    24    25    2
    27    24    26    1
    28    24    27    1
