@<TRIPOS>MOLECULE
1tk3_NAG_A_1.pdb
 14 14 0 0 0
SMALL
GASTEIGER

@<TRIPOS>ATOM
      1  C1        49.8390   48.3770  115.1930 C.3   767  NAG767      0.1665
      2  C2        50.3280   47.3870  114.1260 C.3   767  NAG767      0.1576
      3  C3        49.2180   47.1300  113.1000 C.3   767  NAG767      0.2069
      4  C4        47.9230   46.7100  113.8060 C.3   767  NAG767      0.2134
      5  C5        47.5550   47.7300  114.8830 C.3   767  NAG767      0.1809
      6  C6        46.3450   47.2980  115.6830 C.3   767  NAG767      0.2141
      7  C7        52.7170   47.4310  113.7690 C.2   767  NAG767      0.2420
      8  C8        53.9030   48.0140  113.0130 C.3   767  NAG767      0.0964
      9  N2        51.5100   47.8990  113.4550 N.am  767  NAG767     -0.2019
     10  O3        49.6300   46.1030  112.2120 O.3   767  NAG767     -0.2184
     11  O4        46.8440   46.5970  112.8560 O.3   767  NAG767     -0.2176
     12  O5        48.6470   47.8800  115.8150 O.3   767  NAG767     -0.3489
     13  O6        46.1930   48.1580  116.8250 O.3   767  NAG767     -0.2176
     14  O7        52.9050   46.5690  114.6330 O.2   767  NAG767     -0.2733
@<TRIPOS>BOND
     1    10     3    1
     2    11     4    1
     3     8     7    1
     4     3     4    1
     5     3     2    1
     6     9     7   am
     7     9     2    1
     8     7    14    2
     9     4     5    1
    10     2     1    1
    11     5     6    1
    12     5    12    1
    13     1    12    1
    14     6    13    1
