@<TRIPOS>MOLECULE
1tk4_III_B_1.pdb
 30 29 0 0 0
SMALL
GASTEIGER

@<TRIPOS>ATOM
      1  N          0.4700   16.0580  -10.1540 N.3     1  ALA1       -0.1231
      2  CA         1.6810   15.2230  -10.3910 C.3     1  ALA1        0.1694
      3  C          2.9410   15.9640   -9.9500 C.2     1  ALA1        0.2592
      4  O          3.8660   15.3650   -9.4000 O.2     1  ALA1       -0.2718
      5  CB         1.7760   14.8450  -11.8610 C.3     1  ALA1        0.0304
      6  N          2.9640   17.2700  -10.1910 N.am    2  ILE2       -0.1966
      7  CA         4.1040   18.1090   -9.8390 C.3     2  ILE2        0.1727
      8  C          3.6550   19.1390   -8.8040 C.2     2  ILE2        0.2616
      9  O          2.8180   19.9860   -9.0840 O.2     2  ILE2       -0.2715
     10  CB         4.6580   18.7920  -11.1120 C.3     2  ILE2        0.0290
     11  CG1        5.2450   17.7420  -12.0730 C.3     2  ILE2        0.0022
     12  CG2        5.6760   19.8890  -10.7720 C.3     2  ILE2        0.0023
     13  CD1        6.5620   17.1080  -11.6220 C.3     2  ILE2        0.0001
     14  N          4.2090   19.0650   -7.6010 N.am    3  ARG3       -0.1963
     15  CA         3.6300   19.7900   -6.4780 C.3     3  ARG3        0.1729
     16  C          4.4720   20.8570   -5.8240 C.2     3  ARG3        0.2616
     17  O          5.2010   21.6150   -6.4640 O.2     3  ARG3       -0.2715
     18  CB         3.2570   18.7890   -5.3850 C.3     3  ARG3        0.0348
     19  CG         4.4040   18.0890   -4.6810 C.3     3  ARG3        0.0492
     20  CD         4.2050   16.5790   -4.5690 C.3     3  ARG3        0.2205
     21  NE         2.8800   16.2280   -4.0450 N.pl3   3  ARG3       -0.0865
     22  CZ         2.5300   15.0360   -3.5660 C.cat   3  ARG3        0.5346
     23  NH1        3.3990   14.0310   -3.5200 N.pl3   3  ARG3        0.1354
     24  NH2        1.2910   14.8500   -3.1220 N.pl3   3  ARG3        0.1354
     25  N          4.2830   20.9200   -4.5130 N.am    4  SER4       -0.1950
     26  CA         5.1770   21.6060   -3.6090 C.3     4  SER4        0.1924
     27  C          5.7780   20.5520   -2.6910 C.2     4  SER4        0.2314
     28  O          5.6580   19.3500   -2.9390 O.2     4  SER4       -0.2863
     29  CB         4.4200   22.6620   -2.8030 C.3     4  SER4        0.2116
     30  OG         5.1770   23.8530   -2.6760 O.3     4  SER4       -0.2180
@<TRIPOS>BOND
     1    11    13    1
     2    11    10    1
     3     5     2    1
     4    10    12    1
     5    10     7    1
     6     2     1    1
     7     2     3    1
     8     6     3   am
     9     6     7    1
    10     3     4    2
    11     7     8    1
    12     9     8    2
    13     8    14   am
    14    14    15    1
    15    15    16    1
    16    15    18    1
    17    17    16    2
    18    16    25   am
    19    18    19    1
    20    19    20    1
    21    20    21    1
    22    25    26    1
    23    21    22    2
    24    26    29    1
    25    26    27    1
    26    22    23    1
    27    22    24    1
    28    28    27    2
    29    29    30    1
