@<TRIPOS>MOLECULE
1tk8_D3T_A_1.pdb
 28 29 0 0 0
SMALL
GASTEIGER

@<TRIPOS>ATOM
      1  PA        62.4900  190.1460   22.3300 P.3   823  D3T823      0.2189
      2  O1A       62.8400  188.7160   22.1190 O.3   823  D3T823     -0.4371
      3  O2A       61.6770  190.8690   21.3170 O.2   823  D3T823     -0.5170
      4  O5'       61.8150  190.2390   23.7730 O.3   823  D3T823     -0.3113
      5  C5'       61.1020  191.4010   24.1840 C.3   823  D3T823      0.1785
      6  C4'       61.4940  191.7830   25.5970 C.3   823  D3T823      0.1472
      7  O4'       61.2290  190.6750   26.4990 O.3   823  D3T823     -0.3366
      8  C1'       62.1900  190.6710   27.5450 C.3   823  D3T823      0.2063
      9  N1        62.8960  189.3670   27.5550 N.am  823  D3T823     -0.1795
     10  C6        63.0200  188.6030   26.4100 C.2   823  D3T823      0.0877
     11  C2        63.4360  188.9440   28.7530 C.1   823  D3T823      0.2844
     12  O2        63.3570  189.5860   29.7850 O.2   823  D3T823     -0.1918
     13  N3        64.0780  187.7360   28.6980 N.2   823  D3T823     -0.2455
     14  C4        64.2410  186.9210   27.5980 C.1   823  D3T823      0.2134
     15  O4        64.8440  185.8530   27.7130 O.2   823  D3T823     -0.2088
     16  C5        63.6610  187.4220   26.3700 C.2   823  D3T823      0.0891
     17  C5M       63.8040  186.6140   25.1170 C.3   823  D3T823      0.0462
     18  C2'       63.1290  191.8530   27.3090 C.3   823  D3T823      0.0545
     19  C3'       62.9680  192.0810   25.8090 C.3   823  D3T823      0.0366
     20  O3A       63.8170  190.9750   22.6390 O.3   823  D3T823     -0.2700
     21  PB        64.3580  192.2440   21.8460 P.3   823  D3T823      0.2277
     22  O1B       65.4210  192.8710   22.6640 O.3   823  D3T823     -0.4368
     23  O2B       63.2080  193.0610   21.3840 O.2   823  D3T823     -0.5168
     24  O3B       65.0450  191.5010   20.6110 O.3   823  D3T823     -0.2258
     25  PG        64.5550  191.7020   19.1060 P.3   823  D3T823      0.5373
     26  O1G       63.0690  191.5960   19.0630 O.3   823  D3T823     -0.1143
     27  O2G       65.2150  192.9050   18.5510 O.3   823  D3T823     -0.1143
     28  O3G       65.0960  190.4090   18.5210 O.2   823  D3T823     -0.2221
@<TRIPOS>BOND
     1    28    25    2
     2    27    25    1
     3    26    25    1
     4    25    24    1
     5    24    21    1
     6     3     1    2
     7    23    21    2
     8    21    20    1
     9    21    22    1
    10     2     1    1
    11     1    20    1
    12     1     4    1
    13     4     5    1
    14     5     6    1
    15    17    16    1
    16     6    19    1
    17     6     7    1
    18    19    18    1
    19    16    10    2
    20    16    14    1
    21    10     9    1
    22     7     8    1
    23    18     8    1
    24     8     9    1
    25     9    11   am
    26    14    15    2
    27    14    13    2
    28    13    11    2
    29    11    12    2
