@<TRIPOS>MOLECULE
1tka_N3T_A_1.pdb
 26 27 0 0 0
SMALL
GASTEIGER

@<TRIPOS>ATOM
      1  N1'       -3.2320   60.8370   19.8970 N.2   681  N3T681     -0.2740
      2  C2'       -2.3830   59.9170   20.3880 C.2   681  N3T681      0.0380
      3  CM2       -1.1050   60.3640   20.9750 C.3   681  N3T681      0.0472
      4  C3'       -2.7080   58.5800   20.3080 C.3   681  N3T681      0.0850
      5  C4'       -4.0350   58.2650   19.9290 C.2   681  N3T681      0.0679
      6  N4'       -4.3140   56.9930   19.8450 N.pl3 681  N3T681     -0.1329
      7  C5'       -4.8760   59.2250   19.3500 C.2   681  N3T681      0.0126
      8  C6'       -4.4510   60.4920   19.3840 C.3   681  N3T681      0.1495
      9  C7'       -6.1160   58.8440   18.5940 C.3   681  N3T681      0.1168
     10  N3        -5.8050   58.2460   17.2260 N.pl3 681  N3T681     -0.2973
     11  C2        -5.6930   56.9310   16.9760 C.3   681  N3T681      0.1543
     12  S1        -5.4750   56.5790   15.3350 S.3   681  N3T681     -0.0951
     13  C5        -5.5800   58.2520   14.9830 C.2   681  N3T681      0.0164
     14  C4        -5.8110   58.9910   16.1300 C.2   681  N3T681      0.0279
     15  CM4       -6.2060   60.4420   16.2110 C.3   681  N3T681      0.0473
     16  C6        -5.6950   58.7380   13.5630 C.3   681  N3T681      0.0661
     17  C7        -5.4940   57.7980   12.4230 C.3   681  N3T681      0.1544
     18  O7        -4.0890   57.4670   12.3610 O.3   681  N3T681     -0.3134
     19  PA        -3.6290   56.3160   11.3770 P.3   681  N3T681      0.2230
     20  O1A       -2.3340   55.7430   11.8510 O.3   681  N3T681     -0.4370
     21  O2A       -3.6030   56.8090    9.9410 O.2   681  N3T681     -0.5169
     22  O3A       -4.7410   55.1390   11.3460 O.3   681  N3T681     -0.2261
     23  PB        -5.6430   54.5090   10.1780 P.3   681  N3T681      0.5373
     24  O1B       -4.6650   54.5610    9.0580 O.2   681  N3T681     -0.2221
     25  O2B       -6.7270   55.4710    9.9490 O.3   681  N3T681     -0.1143
     26  O3B       -6.0780   53.2010   10.6490 O.3   681  N3T681     -0.1143
@<TRIPOS>BOND
     1    24    23    2
     2    21    19    2
     3    25    23    1
     4    23    26    1
     5    23    22    1
     6    22    19    1
     7    19    20    1
     8    19    18    1
     9    18    17    1
    10    17    16    1
    11    16    13    1
    12    13    12    1
    13    13    14    2
    14    12    11    1
    15    14    15    1
    16    14    10    1
    17    11    10    1
    18    10     9    1
    19     9     7    1
    20     7     8    1
    21     7     5    2
    22     8     1    1
    23     6     5    1
    24     1     2    2
    25     5     4    1
    26     4     2    1
    27     2     3    1
