@<TRIPOS>MOLECULE
1tkb_N1T_A_1.pdb
 26 27 0 0 0
SMALL
GASTEIGER

@<TRIPOS>ATOM
      1  C1'       -3.3420   60.8180   20.0020 C.3   681  N1T681      0.0803
      2  C2'       -2.3030   59.8280   20.1920 C.2   681  N1T681      0.0932
      3  CM2       -0.9790   60.2700   20.6550 C.3   681  N1T681      0.0619
      4  N3'       -2.6320   58.5300   20.1390 N.2   681  N1T681     -0.3924
      5  C4'       -3.9140   58.1540   19.8090 C.2   681  N1T681      0.2157
      6  N4'       -4.1040   56.8390   19.7270 N.pl3 681  N1T681     -0.0935
      7  C5'       -4.8910   59.0870   19.3250 C.2   681  N1T681      0.0407
      8  C6'       -4.6620   60.3770   19.5560 C.2   681  N1T681     -0.0177
      9  C7'       -6.1760   58.6820   18.6790 C.3   681  N1T681      0.1218
     10  N3        -5.8980   58.1280   17.2980 N.pl3 681  N1T681     -0.2970
     11  C2        -5.7970   56.8270   17.0490 C.3   681  N1T681      0.1543
     12  S1        -5.3960   56.4740   15.4640 S.3   681  N1T681     -0.0951
     13  C5        -5.3900   58.1350   15.1120 C.2   681  N1T681      0.0164
     14  C4        -5.7140   58.8870   16.2210 C.2   681  N1T681      0.0279
     15  CM4       -5.8330   60.3870   16.2890 C.3   681  N1T681      0.0473
     16  C6        -5.1060   58.5940   13.7120 C.3   681  N1T681      0.0661
     17  C7        -5.6030   57.5710   12.7420 C.3   681  N1T681      0.1544
     18  O7        -4.6080   57.5850   11.7280 O.3   681  N1T681     -0.3134
     19  PA        -3.7830   56.3020   11.3420 P.3   681  N1T681      0.2230
     20  O1A       -2.5320   56.0480   12.1020 O.3   681  N1T681     -0.4370
     21  O2A       -3.5020   56.6650    9.9050 O.2   681  N1T681     -0.5169
     22  O3A       -4.8120   55.1120   11.3510 O.3   681  N1T681     -0.2261
     23  PB        -5.5270   54.3440   10.1980 P.3   681  N1T681      0.5373
     24  O1B       -4.6920   54.6320    8.9840 O.2   681  N1T681     -0.2221
     25  O2B       -6.8630   54.9420   10.0820 O.3   681  N1T681     -0.1143
     26  O3B       -5.5250   52.9780   10.6630 O.3   681  N1T681     -0.1143
@<TRIPOS>BOND
     1    24    23    2
     2    21    19    2
     3    25    23    1
     4    23    26    1
     5    23    22    1
     6    19    22    1
     7    19    18    1
     8    19    20    1
     9    18    17    1
    10    17    16    1
    11    16    13    1
    12    13    12    1
    13    13    14    2
    14    12    11    1
    15    14    15    1
    16    14    10    1
    17    11    10    1
    18    10     9    1
    19     9     7    1
    20     7     8    2
    21     7     5    1
    22     8     1    1
    23     6     5    1
    24     5     4    2
    25     1     2    1
    26     4     2    2
    27     2     3    1
