@<TRIPOS>MOLECULE
1tkc_M6T_A_1.pdb
 27 28 0 0 0
SMALL
GASTEIGER

@<TRIPOS>ATOM
      1  N1'       -3.1110   60.8210   20.0640 N.2   681  M6T681     -0.3518
      2  C2'       -2.2410   59.8510   20.3770 C.1   681  M6T681      0.1149
      3  CM2       -0.9040   60.2640   20.8210 C.3   681  M6T681      0.1429
      4  N3'       -2.6100   58.6010   20.4550 N.2   681  M6T681     -0.3296
      5  C4'       -3.8200   58.2460   19.9370 C.2   681  M6T681      0.2158
      6  N4'       -4.1140   56.9790   19.9830 N.pl3 681  M6T681     -0.0965
      7  C5'       -4.7520   59.2210   19.5070 C.3   681  M6T681      0.1357
      8  C6'       -4.3600   60.5140   19.6490 C.2   681  M6T681      0.1083
      9  C7'       -6.1640   58.8600   19.0910 C.3   681  M6T681      0.0882
     10  N3        -6.1310   58.1430   17.7710 N.3   681  M6T681     -0.2632
     11  C2        -6.3140   56.8190   17.6510 C.3   681  M6T681      0.1313
     12  S1        -6.2360   56.3020   16.0380 S.3   681  M6T681     -0.1221
     13  C5        -5.7800   57.9030   15.5890 C.3   681  M6T681      0.0661
     14  C4        -6.0540   58.7710   16.5980 C.3   681  M6T681      0.0684
     15  CM4       -6.0810   60.2520   16.4930 C.3   681  M6T681      0.0183
     16  CM6       -5.3130   61.6350   19.5000 C.3   681  M6T681      0.0630
     17  C6        -5.4280   58.2380   14.1720 C.3   681  M6T681      0.0447
     18  C7        -5.4060   57.0280   13.2610 C.3   681  M6T681      0.1501
     19  O7        -4.8170   57.3960   12.0080 O.3   681  M6T681     -0.3138
     20  PA        -3.8790   56.3640   11.3290 P.3   681  M6T681      0.2230
     21  O1A       -2.5620   56.2070   11.9780 O.3   681  M6T681     -0.4370
     22  O2A       -3.7860   56.8060    9.8990 O.2   681  M6T681     -0.5169
     23  O3A       -4.5840   54.9270   11.2820 O.3   681  M6T681     -0.2261
     24  PB        -5.4840   54.1750   10.2220 P.3   681  M6T681      0.5373
     25  O1B       -4.7440   54.4600    8.9500 O.2   681  M6T681     -0.2221
     26  O2B       -6.7200   54.9390   10.3400 O.3   681  M6T681     -0.1143
     27  O3B       -5.5960   52.7730   10.5960 O.3   681  M6T681     -0.1143
@<TRIPOS>BOND
     1    25    24    2
     2    22    20    2
     3    24    26    1
     4    24    27    1
     5    24    23    1
     6    23    20    1
     7    20    21    1
     8    20    19    1
     9    19    18    1
    10    18    17    1
    11    17    13    1
    12    13    12    1
    13    13    14    1
    14    12    11    1
    15    15    14    1
    16    14    10    1
    17    11    10    1
    18    10     9    1
    19     9     7    1
    20    16     8    1
    21     7     8    1
    22     7     5    1
    23     8     1    2
    24     5     6    1
    25     5     4    2
    26     1     2    2
    27     2     4    2
    28     2     3    1
