@<TRIPOS>MOLECULE
1tkd_D3T_A_1.pdb
 28 29 0 0 0
SMALL
GASTEIGER

@<TRIPOS>ATOM
      1  PA        62.0460  189.3090   22.5180 P.3   823  D3T823      0.2189
      2  O1A       62.3520  187.8660   22.3530 O.3   823  D3T823     -0.4371
      3  O2A       61.1810  190.0030   21.5280 O.2   823  D3T823     -0.5170
      4  O5'       61.4520  189.4870   23.9870 O.3   823  D3T823     -0.3113
      5  C5'       60.7370  190.6600   24.3620 C.3   823  D3T823      0.1785
      6  C4'       61.1000  191.0690   25.7770 C.3   823  D3T823      0.1472
      7  O4'       60.8250  189.9710   26.6870 O.3   823  D3T823     -0.3366
      8  C1'       61.7670  189.9850   27.7490 C.3   823  D3T823      0.2063
      9  N1        62.4800  188.6860   27.7880 N.am  823  D3T823     -0.1795
     10  C6        62.6240  187.9160   26.6510 C.2   823  D3T823      0.0877
     11  C2        63.0030  188.2750   28.9980 C.1   823  D3T823      0.2844
     12  O2        62.9090  188.9230   30.0280 O.2   823  D3T823     -0.1918
     13  N3        63.6490  187.0710   28.9600 N.2   823  D3T823     -0.2455
     14  C4        63.8330  186.2530   27.8670 C.1   823  D3T823      0.2134
     15  O4        64.4420  185.1910   27.9960 O.2   823  D3T823     -0.2088
     16  C5        63.2690  186.7430   26.6270 C.2   823  D3T823      0.0891
     17  C5M       63.4310  185.9260   25.3830 C.3   823  D3T823      0.0462
     18  C2'       62.7030  191.1710   27.5180 C.3   823  D3T823      0.0545
     19  C3'       62.5680  191.3800   26.0150 C.3   823  D3T823      0.0366
     20  O3A       63.4130  190.1130   22.6860 O.3   823  D3T823     -0.2700
     21  PB        63.8640  191.4330   21.9160 P.3   823  D3T823      0.2277
     22  O1B       64.9470  192.0870   22.6890 O.3   823  D3T823     -0.4368
     23  O2B       62.6720  192.2220   21.5150 O.2   823  D3T823     -0.5168
     24  O3B       64.5010  190.7010   20.6480 O.3   823  D3T823     -0.2258
     25  PG        64.1010  190.9490   19.1210 P.3   823  D3T823      0.5373
     26  O1G       62.6200  191.0280   19.0160 O.3   823  D3T823     -0.1143
     27  O2G       64.9340  192.0540   18.5730 O.2   823  D3T823     -0.2221
     28  O3G       64.5290  189.5960   18.5780 O.3   823  D3T823     -0.1143
@<TRIPOS>BOND
     1    27    25    2
     2    28    25    1
     3    26    25    1
     4    25    24    1
     5    24    21    1
     6    23    21    2
     7     3     1    2
     8    21    20    1
     9    21    22    1
    10     2     1    1
    11     1    20    1
    12     1     4    1
    13     4     5    1
    14     5     6    1
    15    17    16    1
    16     6    19    1
    17     6     7    1
    18    19    18    1
    19    16    10    2
    20    16    14    1
    21    10     9    1
    22     7     8    1
    23    18     8    1
    24     8     9    1
    25     9    11   am
    26    14    15    2
    27    14    13    2
    28    13    11    2
    29    11    12    2
