@<TRIPOS>MOLECULE
1tkf_DTR_A_1.pdb
 15 16 0 0 0
SMALL
GASTEIGER

@<TRIPOS>ATOM
      1  N         12.5370   44.2540  -56.0580 N.3   913  DTR913     -0.1205
      2  CA        13.1170   44.7260  -57.3090 C.3   913  DTR913      0.1984
      3  CB        12.0450   44.9170  -58.3820 C.3   913  DTR913      0.0549
      4  CG        11.1200   46.0690  -58.1240 C.2   913  DTR913     -0.0138
      5  CD1        9.8330   46.0130  -57.6710 C.2   913  DTR913      0.0907
      6  NE1        9.3270   47.3020  -57.5620 N.2   913  DTR913     -0.2482
      7  CE2       10.3070   48.1830  -57.9600 C.2   913  DTR913      0.0665
      8  CZ2       10.2510   49.5770  -58.0240 C.2   913  DTR913      0.0153
      9  CH2       11.3880   50.2220  -58.4530 C.2   913  DTR913      0.0009
     10  CZ3       12.5420   49.5030  -58.8200 C.2   913  DTR913     -0.0038
     11  CE3       12.5900   48.1260  -58.7620 C.2   913  DTR913     -0.0164
     12  CD2       11.4540   47.4430  -58.3130 C.3   913  DTR913      0.0819
     13  C         14.1440   43.6970  -57.7850 C.2   913  DTR913      0.3822
     14  O         14.8700   43.9850  -58.7420 O.co2 913  DTR913     -0.2440
     15  OXT       14.1480   42.5770  -57.2390 O.co2 913  DTR913     -0.2440
@<TRIPOS>BOND
     1    10    11    2
     2    10     9    1
     3    11    12    1
     4    14    13   ar
     5     9     8    2
     6     3     4    1
     7     3     2    1
     8    12     4    1
     9    12     7    1
    10     4     5    2
    11     8     7    1
    12     7     6    2
    13    13     2    1
    14    13    15   ar
    15     5     6    1
    16     2     1    1
