@<TRIPOS>MOLECULE
1tkg_SSA_A_1.pdb
 29 31 0 0 0
SMALL
GASTEIGER

@<TRIPOS>ATOM
      1  N10       -3.0580    0.2270   18.4480 N.3   500  SSA500     -0.1202
      2  CA        -3.2980   -0.5200   17.2180 C.3   500  SSA500      0.2036
      3  CB        -2.0050   -1.2070   16.7600 C.3   500  SSA500      0.2104
      4  OG        -1.4830   -2.0500   17.7730 O.3   500  SSA500     -0.2182
      5  C9        -4.4100   -1.5540   17.3610 C.2   500  SSA500      0.2825
      6  O9        -5.0680   -1.8930   16.3790 O.2   500  SSA500     -0.2700
      7  N8        -4.6000   -2.0680   18.5820 N.am  500  SSA500     -0.0576
      8  S1        -5.8270   -3.0110   18.9560 S.3   500  SSA500      0.0852
      9  O1S       -5.9420   -4.1230   17.9850 O.3   500  SSA500     -0.0508
     10  O2S       -5.7390   -3.3290   20.3990 O.3   500  SSA500     -0.0508
     11  O5'       -7.1030   -2.1000   18.6990 O.3   500  SSA500     -0.2230
     12  C5'       -7.3190   -0.8970   19.4230 C.3   500  SSA500      0.2064
     13  C4'       -8.7380   -0.4490   19.2040 C.3   500  SSA500      0.1842
     14  O4'       -9.3720   -0.1200   20.4580 O.3   500  SSA500     -0.3135
     15  C3'       -8.9950    0.7840   18.3560 C.3   500  SSA500      0.2185
     16  O3'       -8.8640    0.5060   16.9640 O.3   500  SSA500     -0.2174
     17  C2'      -10.4520    1.0840   18.7030 C.3   500  SSA500      0.2570
     18  O2'      -11.3330    0.2860   17.9380 O.3   500  SSA500     -0.2130
     19  C1'      -10.5310    0.6360   20.1680 C.3   500  SSA500      0.3186
     20  N9       -10.6740    1.7230   21.1340 N.pl3 500  SSA500     -0.1439
     21  C8       -11.6870    1.8450   22.0540 C.3   500  SSA500      0.3377
     22  N7       -11.6260    2.9440   22.7650 N.2   500  SSA500     -0.2095
     23  C5       -10.4900    3.5860   22.2930 C.2   500  SSA500      0.2526
     24  C6        -9.8860    4.8080   22.6370 C.2   500  SSA500      0.4393
     25  N6       -10.3780    5.6390   23.5640 N.pl3 500  SSA500      0.2180
     26  N1        -8.7550    5.1580   21.9860 N.2   500  SSA500      0.0021
     27  C2        -8.2840    4.3370   21.0410 C.3   500  SSA500      0.5254
     28  N3        -8.7670    3.1650   20.6210 N.2   500  SSA500     -0.0055
     29  C4        -9.8830    2.8400   21.2970 C.2   500  SSA500      0.3518
@<TRIPOS>BOND
     1     6     5    2
     2     3     2    1
     3     3     4    1
     4    16    15    1
     5     2     5    1
     6     2     1    1
     7     5     7   am
     8    18    17    1
     9     9     8    1
    10    15    17    1
    11    15    13    1
    12     7     8    1
    13    11     8    1
    14    11    12    1
    15    17    19    1
    16     8    10    1
    17    13    12    1
    18    13    14    1
    19    19    14    1
    20    19    20    1
    21    28    27    1
    22    28    29    2
    23    27    26    1
    24    20    29    1
    25    20    21    1
    26    29    23    1
    27    26    24    2
    28    21    22    1
    29    23    24    1
    30    23    22    2
    31    24    25    1
