@<TRIPOS>MOLECULE
1tkh_DPN_A_1.pdb
 12 12 0 0 0
SMALL
GASTEIGER

@<TRIPOS>ATOM
      1  N         41.1420    8.6380  -76.8610 N.3   911  DPN911     -0.1205
      2  CA        39.6880    8.4330  -76.9780 C.3   911  DPN911      0.1986
      3  C         38.9780    9.7170  -77.3690 C.2   911  DPN911      0.3822
      4  O         39.5930   10.7670  -77.4620 O.co2 911  DPN911     -0.2440
      5  OXT       37.7450    9.7050  -77.6230 O.co2 911  DPN911     -0.2440
      6  CB        39.3430    7.3490  -78.0080 C.3   911  DPN911      0.0569
      7  CG        39.9500    6.0220  -77.6420 C.ar  911  DPN911     -0.0202
      8  CD1       39.4660    5.3610  -76.5120 C.ar  911  DPN911     -0.0042
      9  CD2       40.9680    5.4560  -78.4000 C.ar  911  DPN911     -0.0042
     10  CE1       39.9900    4.1280  -76.1200 C.ar  911  DPN911     -0.0003
     11  CE2       41.5020    4.2380  -78.0070 C.ar  911  DPN911     -0.0003
     12  CZ        41.0200    3.5750  -76.8860 C.ar  911  DPN911     -0.0000
@<TRIPOS>BOND
     1     9    11   ar
     2     9     7   ar
     3     6     7    1
     4     6     2    1
     5    11    12   ar
     6     7     8   ar
     7     5     3   ar
     8     4     3   ar
     9     3     2    1
    10     2     1    1
    11    12    10   ar
    12     8    10   ar
