@<TRIPOS>MOLECULE
1tkr_DFP_A_1.pdb
 10 9 0 0 0
SMALL
GASTEIGER

@<TRIPOS>ATOM
      1  C1        82.0560   74.2620  101.0530 C.3     1  DFP1        0.1236
      2  C2        82.3550   73.3330  102.2350 C.3     1  DFP1        0.0325
      3  C3        80.9400   73.7160  100.1510 C.3     1  DFP1        0.0325
      4  C1'       83.7460   77.4990   98.2150 C.3     1  DFP1        0.1236
      5  C2'       82.2220   77.6110   98.3880 C.3     1  DFP1        0.0325
      6  C3'       84.1110   77.5960   96.7490 C.3     1  DFP1        0.0325
      7  P         83.9830   75.8760  100.3010 P.3     1  DFP1        0.3659
      8  O1P       83.2310   74.4260  100.2720 O.3     1  DFP1       -0.2993
      9  O2P       84.1760   76.2360   98.7160 O.3     1  DFP1       -0.2993
     10  O3P       83.4130   76.8570  101.0870 O.3     1  DFP1       -0.1446
@<TRIPOS>BOND
     1     6     4    1
     2     4     5    1
     3     4     9    1
     4     9     7    1
     5     3     1    1
     6     8     7    1
     7     8     1    1
     8     7    10    1
     9     1     2    1
