@<TRIPOS>MOLECULE
1tkr_NAG_A_1.pdb
 14 14 0 0 0
SMALL
GASTEIGER

@<TRIPOS>ATOM
      1  C1        49.7860   49.0660  116.6670 C.3   767  NAG767      0.1665
      2  C2        50.2260   48.0930  115.5830 C.3   767  NAG767      0.1576
      3  C3        49.1090   47.8930  114.5410 C.3   767  NAG767      0.2069
      4  C4        47.6560   47.8670  115.0970 C.3   767  NAG767      0.2134
      5  C5        47.4710   48.6630  116.4090 C.3   767  NAG767      0.1809
      6  C6        46.2610   48.2170  117.2020 C.3   767  NAG767      0.2141
      7  C7        52.6200   48.2210  115.2840 C.2   767  NAG767      0.2420
      8  C8        53.7890   48.8070  114.5160 C.3   767  NAG767      0.0964
      9  N2        51.4060   48.6090  114.9100 N.am  767  NAG767     -0.2019
     10  O3        49.3650   46.6810  113.8500 O.3   767  NAG767     -0.2184
     11  O4        46.7830   48.4830  114.1180 O.3   767  NAG767     -0.2176
     12  O5        48.6130   48.5470  117.2810 O.3   767  NAG767     -0.3489
     13  O6        46.0320   49.1350  118.2880 O.3   767  NAG767     -0.2176
     14  O7        52.8190   47.4280  116.2090 O.2   767  NAG767     -0.2733
@<TRIPOS>BOND
     1    10     3    1
     2    11     4    1
     3     8     7    1
     4     3     4    1
     5     3     2    1
     6     9     7   am
     7     9     2    1
     8     4     5    1
     9     7    14    2
    10     2     1    1
    11     5     6    1
    12     5    12    1
    13     1    12    1
    14     6    13    1
