@<TRIPOS>MOLECULE
1tkt_H12_A_1.pdb
 22 24 0 0 0
SMALL
GASTEIGER

@<TRIPOS>ATOM
      1  CA         2.1270  -36.3630   22.7920 C.3   999  H12999      0.1655
      2  CB         3.6500  -35.9490   23.0730 C.3   999  H12999      0.0435
      3  CC         3.8040  -34.7460   24.0390 C.3   999  H12999      0.0037
      4  CD         3.1210  -35.0430   25.3880 C.3   999  H12999      0.0002
      5  CE         1.5990  -35.2470   25.1920 C.3   999  H12999      0.0037
      6  CF         1.2820  -36.3820   24.1780 C.3   999  H12999      0.0435
      7  N1         1.2040  -36.9740   17.8230 N.2   999  H12999     -0.3360
      8  C6         2.4610  -37.4150   18.2550 C.1   999  H12999      0.1864
      9  O2         3.3780  -37.6170   17.4450 O.2   999  H12999     -0.2138
     10  C5         2.6810  -37.5850   19.6970 C.3   999  H12999      0.1746
     11  C4         1.6630  -37.2820   20.5980 C.2   999  H12999      0.1345
     12  O4         1.8900  -37.5100   21.9700 O.2   999  H12999     -0.4822
     13  C2         0.1980  -36.7050   18.7310 C.ar  999  H12999      0.1467
     14  C3         0.4270  -36.8460   20.1360 C.ar  999  H12999      0.0622
     15  C7        -0.6410  -36.5600   21.0330 C.ar  999  H12999      0.0167
     16  C8        -1.8890  -36.1390   20.5620 C.ar  999  H12999      0.0579
     17  C9        -2.1070  -36.0100   19.1860 C.ar  999  H12999      0.0141
     18  C10       -1.0520  -36.2930   18.2630 C.ar  999  H12999      0.0340
     19 CL         -3.1250  -35.7350   21.6560 Cl    999  H12999     -0.0822
     20  C11        3.9630  -38.2680   20.1630 C.3   999  H12999      0.0254
     21  C12        3.8270  -39.7790   20.0660 C.3   999  H12999      0.0016
     22  C13        3.3490  -40.3840   21.3790 C.3   999  H12999      0.0000
@<TRIPOS>BOND
     1     9     8    2
     2     7     8    2
     3     7    13    2
     4     8    10    1
     5    18    13   ar
     6    18    17   ar
     7    13    14   ar
     8    17    16   ar
     9    10    20    1
    10    10    11    1
    11    21    20    1
    12    21    22    1
    13    14    11    2
    14    14    15   ar
    15    16    15   ar
    16    16    19    1
    17    11    12    1
    18    12     1    1
    19     1     2    1
    20     1     6    1
    21     2     3    1
    22     3     4    1
    23     6     5    1
    24     5     4    1
