@<TRIPOS>MOLECULE
1tku_5RP_A_1.pdb
 14 13 0 0 0
SMALL
GASTEIGER

@<TRIPOS>ATOM
      1  C2       -10.6110   -0.5390   -6.1500 C.3   701  5RP701      0.2486
      2  C3        -9.5530   -0.9680   -7.1380 C.2   701  5RP701      0.2165
      3  C5        -8.3260   -1.7190   -6.6260 C.3   701  5RP701      0.2439
      4  O13       -7.0830   -1.3680   -7.2740 O.3   701  5RP701     -0.2122
      5  C6        -8.5470   -3.2820   -6.6800 C.3   701  5RP701      0.2194
      6  O14       -7.3460   -3.9730   -6.2780 O.3   701  5RP701     -0.2172
      7  C7        -8.9570   -3.8240   -8.0870 C.3   701  5RP701      0.1896
      8  O8       -10.3690   -3.6430   -8.2630 O.3   701  5RP701     -0.2674
      9  P9       -11.3620   -4.8160   -8.7350 P.3   701  5RP701      0.5327
     10  O12      -11.6060   -5.8940   -7.5700 O.3   701  5RP701     -0.1145
     11  O11      -10.7860   -5.5670  -10.0340 O.2   701  5RP701     -0.2224
     12  O10      -12.7280   -4.0880   -9.1490 O.3   701  5RP701     -0.1145
     13  O4        -9.6560   -0.7280   -8.3320 O.2   701  5RP701     -0.2905
     14  O1       -11.9260   -0.5430   -6.7430 O.3   701  5RP701     -0.2118
@<TRIPOS>BOND
     1    11     9    2
     2    12     9    1
     3     9     8    1
     4     9    10    1
     5    13     2    2
     6     8     7    1
     7     7     5    1
     8     4     3    1
     9     2     3    1
    10     2     1    1
    11    14     1    1
    12     5     3    1
    13     5     6    1
