@<TRIPOS>MOLECULE
1tkx_GWB_A_1.pdb
 21 23 0 0 0
SMALL
GASTEIGER

@<TRIPOS>ATOM
      1  CA         0.7730  -34.6330   26.1380 C.1   999  GWB999      0.1174
      2  CB         1.2680  -33.7150   26.6210 C.1   999  GWB999     -0.0497
      3  CC         1.9960  -32.3710   27.3240 C.3   999  GWB999      0.0675
      4  CD         2.0490  -31.3850   26.2340 C.3   999  GWB999      0.0141
      5  CE         0.9700  -31.3220   27.2890 C.3   999  GWB999      0.0141
      6  N1        -0.7720  -35.3280   21.4040 N.2   999  GWB999     -0.3367
      7  C6         0.3650  -36.0650   21.7680 C.1   999  GWB999      0.2029
      8  O2         1.0670  -36.5610   20.8800 O.2   999  GWB999     -0.2095
      9  C5         0.6740  -36.2230   23.2290 C.2   999  GWB999      0.1040
     10  C4        -0.1910  -35.6460   24.1620 C.2   999  GWB999      0.1534
     11  O4         0.1220  -35.7660   25.5290 O.2   999  GWB999     -0.4083
     12  C2        -1.6080  -34.7560   22.3360 C.2   999  GWB999      0.1330
     13  C3        -1.3290  -34.9200   23.7460 C.3   999  GWB999      0.1361
     14  C7        -2.1850  -34.2800   24.6860 C.2   999  GWB999      0.0179
     15  C8        -3.2750  -33.4880   24.2510 C.2   999  GWB999      0.1368
     16  C9        -3.5390  -33.3250   22.8610 C.2   999  GWB999      0.0317
     17  C10       -2.7080  -33.9620   21.9050 C.2   999  GWB999      0.0316
     18  F         -4.0710  -32.8640   25.1850 F     999  GWB999     -0.2045
     19  C11        1.9570  -36.9190   23.7480 C.3   999  GWB999      0.0373
     20  C12        3.2490  -36.4900   23.0410 C.3   999  GWB999      0.0056
     21  C13        1.8240  -38.4430   23.8350 C.3   999  GWB999      0.0056
@<TRIPOS>BOND
     1     8     7    2
     2     6     7    2
     3     6    12    2
     4     7     9    1
     5    17    12    1
     6    17    16    2
     7    12    13    1
     8    16    15    1
     9    20    19    1
    10     9    19    1
    11     9    10    2
    12    13    10    1
    13    13    14    1
    14    19    21    1
    15    10    11    1
    16    15    14    2
    17    15    18    1
    18    11     1    1
    19     1     2    3
    20     4     5    1
    21     4     3    1
    22     2     3    1
    23     5     3    1
