@<TRIPOS>MOLECULE
1tky_A3S_A_1.pdb
 25 27 0 0 0
SMALL
GASTEIGER

@<TRIPOS>ATOM
      1  O5'       13.7840   12.8870   43.5390 O.3   500  A3S500     -0.2176
      2  C5'       14.1450   12.0350   42.4550 C.3   500  A3S500      0.2134
      3  C4'       15.1180   10.9770   42.9240 C.3   500  A3S500      0.1747
      4  O4'       16.3210   11.6280   43.4200 O.3   500  A3S500     -0.3143
      5  C1'       16.5420   11.2580   44.7670 C.3   500  A3S500      0.3177
      6  N9        17.0460   12.4270   45.4860 N.pl3 500  A3S500     -0.1439
      7  C4        18.1330   12.4630   46.3260 C.2   500  A3S500      0.3518
      8  N3        18.9500   11.4460   46.6470 N.2   500  A3S500     -0.0055
      9  C2        19.8930   11.8500   47.4970 C.3   500  A3S500      0.5254
     10  N1        20.0960   13.0660   48.0240 N.2   500  A3S500      0.0021
     11  C6        19.2550   14.0670   47.6810 C.2   500  A3S500      0.4393
     12  N6        19.4520   15.2770   48.2090 N.pl3 500  A3S500      0.2180
     13  C5        18.2140   13.7670   46.7830 C.2   500  A3S500      0.2526
     14  N7        17.2000   14.5420   46.2350 N.2   500  A3S500     -0.2095
     15  C8        16.5390   13.7040   45.4740 C.3   500  A3S500      0.3377
     16  C2'       15.1960   10.7700   45.2970 C.3   500  A3S500      0.2466
     17  O2'       15.3860    9.8800   46.3800 O.3   500  A3S500     -0.2139
     18  C3'       14.6160   10.0920   44.0610 C.3   500  A3S500      0.1621
     19  N8        15.1400    8.7690   44.0210 N.am  500  A3S500     -0.2004
     20  N         16.0670    6.2570   44.1320 N.3   500  A3S500     -0.1202
     21  CA        15.3730    6.5570   42.8840 C.3   500  A3S500      0.2020
     22  CB        14.2940    5.5020   42.6240 C.3   500  A3S500      0.2103
     23  OG        13.5400    5.2460   43.7960 O.3   500  A3S500     -0.2182
     24  C         14.7510    7.9500   42.9250 C.2   500  A3S500      0.2616
     25  O         13.9680    8.3210   42.0490 O.2   500  A3S500     -0.2717
@<TRIPOS>BOND
     1    25    24    2
     2     2     3    1
     3     2     1    1
     4    22    21    1
     5    22    23    1
     6    21    24    1
     7    21    20    1
     8     3     4    1
     9     3    18    1
    10    24    19   am
    11     4     5    1
    12    19    18    1
    13    18    16    1
    14     5    16    1
    15     5     6    1
    16    16    17    1
    17    15     6    1
    18    15    14    1
    19     6     7    1
    20    14    13    2
    21     7     8    2
    22     7    13    1
    23     8     9    1
    24    13    11    1
    25     9    10    1
    26    11    10    2
    27    11    12    1
