@<TRIPOS>MOLECULE
1tkz_H16_A_1.pdb
 22 24 0 0 0
SMALL
GASTEIGER

@<TRIPOS>ATOM
      1  CA         2.5250  -36.1120   23.0990 C.3   999  H16999      0.0520
      2  CB         4.0300  -36.1670   23.4990 C.3   999  H16999      0.0111
      3  CC         4.4440  -34.9640   24.3630 C.3   999  H16999      0.0009
      4  CD         3.6640  -34.9480   25.6650 C.3   999  H16999      0.0001
      5  CE         2.1580  -34.7830   25.4080 C.3   999  H16999      0.0009
      6  CF         1.5800  -35.8180   24.3620 C.3   999  H16999      0.0111
      7  N1         1.3350  -37.0170   17.8490 N.2   999  H16999     -0.3331
      8  C6         2.5640  -37.5470   18.2750 C.1   999  H16999      0.2010
      9  O2         3.4380  -37.8530   17.4410 O.2   999  H16999     -0.2096
     10  C5         2.7660  -37.7600   19.7400 C.2   999  H16999      0.0781
     11  C4         1.7600  -37.4150   20.6290 C.2   999  H16999      0.0353
     12  S4         2.0220  -37.7240   22.4120 S.3   999  H16999     -0.1140
     13  C2         0.3410  -36.6970   18.7630 C.2   999  H16999      0.1443
     14  C3         0.5560  -36.8940   20.1720 C.2   999  H16999      0.0339
     15  C7        -0.4910  -36.5890   21.0750 C.2   999  H16999     -0.0028
     16  C8        -1.7240  -36.1110   20.6050 C.3   999  H16999      0.1239
     17  C9        -1.9320  -35.9280   19.2310 C.2   999  H16999     -0.0032
     18  C10       -0.8920  -36.2220   18.3010 C.2   999  H16999      0.0300
     19 CL         -2.9710  -35.7450   21.7040 Cl    999  H16999     -0.1054
     20  C11        4.0150  -38.4670   20.2460 C.3   999  H16999      0.0398
     21  C12        3.8790  -40.0000   20.0820 C.3   999  H16999      0.0055
     22  C13        3.5340  -40.7230   21.4070 C.3   999  H16999      0.0004
@<TRIPOS>BOND
     1     9     8    2
     2     7     8    2
     3     7    13    2
     4     8    10    1
     5    18    13    1
     6    18    17    2
     7    13    14    1
     8    17    16    1
     9    10    20    1
    10    10    11    2
    11    21    20    1
    12    21    22    1
    13    14    11    1
    14    14    15    2
    15    16    15    1
    16    16    19    1
    17    11    12    1
    18    12     1    1
    19     1     2    1
    20     1     6    1
    21     2     3    1
    22     6     5    1
    23     3     4    1
    24     5     4    1
