@<TRIPOS>MOLECULE
1tl1_H18_A_1.pdb
 23 25 0 0 0
SMALL
GASTEIGER

@<TRIPOS>ATOM
      1  CA         2.2930  -35.9620   23.6580 C.3   999  H18999      0.1049
      2  CB         3.8350  -35.7750   23.6930 C.3   999  H18999      0.0185
      3  CC         4.1540  -34.4270   24.3520 C.3   999  H18999      0.0060
      4  CD         3.8590  -34.5640   25.8570 C.3   999  H18999      0.0258
      5  CE         2.3780  -34.9640   26.1940 C.2   999  H18999     -0.0298
      6  CF         1.5870  -35.7850   25.0900 C.2   999  H18999     -0.0173
      7  N1         0.9710  -36.8560   18.4110 N.2   999  H18999     -0.3361
      8  C6         2.2840  -37.3580   18.7650 C.1   999  H18999      0.1838
      9  O2         3.1610  -37.5850   17.8380 O.2   999  H18999     -0.2138
     10  C5         2.5520  -37.5950   20.2560 C.3   999  H18999      0.1486
     11  C4         1.5140  -37.3110   21.2090 C.2   999  H18999      0.0530
     12  S4         1.8440  -37.5910   22.9300 S.O   999  H18999      0.0651
     13  C2        -0.0350  -36.5870   19.3760 C.ar  999  H18999      0.1444
     14  C3         0.2350  -36.8180   20.8120 C.ar  999  H18999      0.0365
     15  C7        -0.8230  -36.5280   21.7690 C.ar  999  H18999      0.0142
     16  C8        -2.0790  -36.0420   21.3060 C.ar  999  H18999      0.0578
     17  C9        -2.3090  -35.8320   19.9150 C.ar  999  H18999      0.0140
     18  C10       -1.2970  -36.1010   18.9500 C.ar  999  H18999      0.0339
     19 CL         -3.3250  -35.7010   22.3840 Cl    999  H18999     -0.0822
     20  C11        3.9230  -38.1300   20.7180 C.3   999  H18999      0.0227
     21  C12        3.9100  -39.6550   20.5600 C.3   999  H18999      0.0015
     22  C13        3.4550  -40.4250   21.8220 C.3   999  H18999      0.0000
     23  OS         0.6250  -38.1530   23.6120 O.2   999  H18999     -0.2514
@<TRIPOS>BOND
     1     9     8    2
     2     7     8    2
     3     7    13    2
     4     8    10    1
     5    18    13   ar
     6    18    17   ar
     7    13    14   ar
     8    17    16   ar
     9    10    20    1
    10    10    11    1
    11    21    20    1
    12    21    22    1
    13    14    11    2
    14    14    15   ar
    15    11    12    1
    16    16    15   ar
    17    16    19    1
    18    12    23    2
    19    12     1    1
    20     1     2    1
    21     1     6    1
    22     2     3    1
    23     3     4    1
    24     6     5    2
    25     4     5    1
