@<TRIPOS>MOLECULE
1tl2_NDG_A_1.pdb
 15 15 0 0 0
SMALL
GASTEIGER

@<TRIPOS>ATOM
      1  C1        12.6080   30.9290   17.7100 C.3   237  NDG237      0.2917
      2  C2        11.0870   31.0850   17.5680 C.3   237  NDG237      0.1871
      3  C3        10.4680   29.8160   18.0890 C.3   237  NDG237      0.2095
      4  C4        10.9470   28.6320   17.2770 C.3   237  NDG237      0.2136
      5  C5        12.4850   28.5820   17.2740 C.3   237  NDG237      0.1835
      6  C6        12.9950   27.5680   16.2410 C.3   237  NDG237      0.2142
      7  C7        10.4770   33.3870   17.8860 C.2   237  NDG237      0.2421
      8  C8         9.9650   34.4270   18.8630 C.3   237  NDG237      0.0964
      9  O         13.0090   29.8620   16.8690 O.3   237  NDG237     -0.3242
     10  O3         9.0350   29.8390   18.0880 O.3   237  NDG237     -0.2183
     11  O4        10.4470   27.4390   17.8560 O.3   237  NDG237     -0.2176
     12  O6        14.4120   27.4390   16.4030 O.3   237  NDG237     -0.2176
     13  O7        10.6910   33.6460   16.7070 O.2   237  NDG237     -0.2733
     14  N2        10.6320   32.1870   18.4280 N.am  237  NDG237     -0.1991
     15  O1L       13.0430   30.9260   18.7950 O.3   237  NDG237     -0.1879
@<TRIPOS>BOND
     1     6    12    1
     2     6     5    1
     3    13     7    2
     4     9     5    1
     5     9     1    1
     6     5     4    1
     7     4    11    1
     8     4     3    1
     9     2     1    1
    10     2     3    1
    11     2    14    1
    12     1    15    1
    13     7    14   am
    14     7     8    1
    15    10     3    1
