@<TRIPOS>MOLECULE
1tl3_H20_A_1.pdb
 22 24 0 0 0
SMALL
GASTEIGER

@<TRIPOS>ATOM
      1  CA         1.7470  -36.2970   22.9900 C.3   999  H20999      0.1659
      2  CB         3.2980  -36.2200   23.4220 C.3   999  H20999      0.0435
      3  CC         3.6290  -35.0170   24.2910 C.3   999  H20999      0.0037
      4  CD         2.8810  -35.1160   25.5880 C.3   999  H20999      0.0002
      5  CE         1.3810  -34.9300   25.3560 C.3   999  H20999      0.0037
      6  CF         0.7790  -35.9160   24.2690 C.3   999  H20999      0.0435
      7  N1         0.7080  -37.0310   18.0430 N.2   999  H20999     -0.3370
      8  C6         1.8470  -37.6930   18.4820 C.1   999  H20999      0.2032
      9  O2         2.6940  -38.0800   17.6570 O.2   999  H20999     -0.2095
     10  C5         2.0490  -37.8820   19.9320 C.2   999  H20999      0.1059
     11  C4         1.1080  -37.3450   20.8310 C.2   999  H20999      0.1483
     12  O4         1.3080  -37.4730   22.2570 O.2   999  H20999     -0.4787
     13  C2        -0.2180  -36.5540   18.9210 C.2   999  H20999      0.1292
     14  C3        -0.0300  -36.7040   20.3290 C.2   999  H20999      0.0619
     15  C7        -1.0810  -36.2930   21.1840 C.2   999  H20999      0.0164
     16  C8        -2.2680  -35.7640   20.6700 C.2   999  H20999      0.0540
     17  C9        -2.4410  -35.6230   19.2960 C.2   999  H20999     -0.0072
     18  C10       -1.4090  -36.0190   18.4150 C.3   999  H20999      0.0869
     19 CL         -3.4920  -35.2840   21.7150 Cl    999  H20999     -0.0826
     20  C11        3.1660  -38.8600   20.3430 C.3   999  H20999      0.0375
     21  C12        4.5290  -38.2030   20.6020 C.3   999  H20999      0.0056
     22  C13        2.7580  -39.9620   21.3560 C.3   999  H20999      0.0056
@<TRIPOS>BOND
     1     9     8    2
     2     7     8    2
     3     7    13    2
     4    18    13    1
     5    18    17    1
     6     8    10    1
     7    13    14    1
     8    17    16    2
     9    10    20    1
    10    10    11    2
    11    14    11    1
    12    14    15    2
    13    20    21    1
    14    20    22    1
    15    16    15    1
    16    16    19    1
    17    11    12    1
    18    12     1    1
    19     1     2    1
    20     1     6    1
    21     2     3    1
    22     6     5    1
    23     3     4    1
    24     5     4    1
