@<TRIPOS>MOLECULE
1tl7_FOK_A_1.pdb
 29 31 0 0 0
SMALL
GASTEIGER

@<TRIPOS>ATOM
      1  C1        42.6620  -12.6140   52.0420 C.3   101  FOK101      0.1544
      2  O2        42.2440  -13.6850   51.1750 O.3   101  FOK101     -0.2231
      3  C2        43.6180  -13.2290   53.0770 C.3   101  FOK101      0.0330
      4  C3        44.9430  -13.5450   52.4430 C.3   101  FOK101      0.0027
      5  C4        45.7560  -12.3940   51.7220 C.3   101  FOK101      0.0027
      6  C5        44.8450  -11.9050   50.6340 C.3   101  FOK101      0.0390
      7  C6        45.5000  -10.7700   49.7350 C.3   101  FOK101      0.1942
      8  O3        45.8760   -9.5880   50.4460 O.3   101  FOK101     -0.2192
      9  C7        44.5310  -10.3950   48.5450 C.3   101  FOK101      0.2257
     10  O4        45.1180   -9.3370   47.7090 O.3   101  FOK101     -0.4470
     11  C8        43.0730   -9.9020   48.9360 C.3   101  FOK101      0.1599
     12  O1        42.3590   -9.8230   47.6540 O.3   101  FOK101     -0.3531
     13  C9        42.4650  -11.0640   49.8440 C.3   101  FOK101      0.1825
     14  O6        42.4950  -12.1980   48.9550 O.3   101  FOK101     -0.2204
     15  C10       43.3300  -11.4590   51.1810 C.3   101  FOK101      0.0612
     16  C11       40.9330  -10.6860   49.9880 C.3   101  FOK101      0.1848
     17  O7        40.2680  -10.6370   51.2540 O.3   101  FOK101     -0.2203
     18  C12       40.1350  -10.4850   48.6910 C.3   101  FOK101      0.0669
     19  C13       40.8830   -9.8200   47.4920 C.3   101  FOK101      0.1138
     20  C14       40.5760  -10.6420   46.2710 C.2   101  FOK101      0.0003
     21  C15       41.0840  -11.7080   45.9130 C.2   101  FOK101     -0.0025
     22  C16       40.3360   -8.4340   47.2790 C.3   101  FOK101      0.0343
     23  C17       43.1570   -8.4550   49.5410 C.3   101  FOK101      0.0361
     24  C18       47.0070  -13.0920   51.1410 C.3   101  FOK101      0.0001
     25  C19       46.2920  -11.4280   52.8100 C.3   101  FOK101      0.0001
     26  C20       43.3150  -10.2700   52.2000 C.3   101  FOK101      0.0052
     27  C21       45.4600   -9.6680   46.4200 C.2   101  FOK101      0.3176
     28  O5        44.6370   -9.8570   45.5550 O.2   101  FOK101     -0.2501
     29  C22       46.9790   -9.7630   46.2330 C.3   101  FOK101      0.1212
@<TRIPOS>BOND
     1    28    27    2
     2    21    20    2
     3    29    27    1
     4    20    19    1
     5    27    10    1
     6    22    19    1
     7    19    12    1
     8    19    18    1
     9    12    11    1
    10    10     9    1
    11     9    11    1
    12     9     7    1
    13    18    16    1
    14    11    23    1
    15    11    13    1
    16    14    13    1
    17     7     8    1
    18     7     6    1
    19    13    16    1
    20    13    15    1
    21    16    17    1
    22     6    15    1
    23     6     5    1
    24    24     5    1
    25     2     1    1
    26    15     1    1
    27    15    26    1
    28     5     4    1
    29     5    25    1
    30     1     3    1
    31     4     3    1
