@<TRIPOS>MOLECULE
1tl7_ONM_A_1.pdb
 42 45 0 0 0
SMALL
GASTEIGER

@<TRIPOS>ATOM
      1  CA7       66.8560  -14.3330   54.3330 C.3   100  ONM100      0.1355
      2  NA1       65.4090  -14.6420   54.4560 N.pl3 100  ONM100     -0.2355
      3  CA6       64.8280  -15.8410   54.7390 C.ar  100  ONM100      0.0716
      4  CA5       65.6550  -17.0950   54.9760 C.ar  100  ONM100      0.0163
      5  CA4       65.0000  -18.5110   55.3150 C.ar  100  ONM100      0.0013
      6  CA3       63.5650  -18.4920   55.3720 C.ar  100  ONM100      0.0003
      7  CA2       62.7670  -17.1650   55.1170 C.ar  100  ONM100      0.0077
      8  CA1       63.4020  -15.9260   54.8190 C.ar  100  ONM100      0.0904
      9  CA        62.4580  -14.7050   54.5980 C.2   100  ONM100      0.3425
     10  OA        62.7550  -13.4230   55.2390 O.2   100  ONM100     -0.2448
     11  O3'       61.3290  -14.8290   53.8160 O.3   100  ONM100     -0.4437
     12  C3'       60.2560  -13.8150   53.6790 C.3   100  ONM100      0.2329
     13  C2'       59.2730  -14.3570   52.6570 C.3   100  ONM100      0.2406
     14  O2'       59.9000  -15.1470   51.6340 O.3   100  ONM100     -0.2146
     15  C4'       59.3130  -13.5710   54.9060 C.3   100  ONM100      0.1895
     16  C5'       58.4910  -12.2710   55.1490 C.3   100  ONM100      0.1824
     17  O5'       58.4950  -11.2170   54.1710 O.3   100  ONM100     -0.3111
     18  PA        57.5890   -9.8810   54.3680 P.3   100  ONM100      0.2189
     19  O3A       58.0320   -9.0460   53.0520 O.2   100  ONM100     -0.5170
     20  O2A       56.1680  -10.3070   54.3430 O.3   100  ONM100     -0.4371
     21  O1A       58.2520   -9.1530   55.6070 O.3   100  ONM100     -0.2700
     22  PB        57.3980   -8.9610   56.9440 P.3   100  ONM100      0.2277
     23  O3B       56.4720  -10.2900   57.0640 O.3   100  ONM100     -0.4368
     24  O2B       56.3530   -7.9190   56.8260 O.2   100  ONM100     -0.5168
     25  O1B       58.2200   -9.0260   58.2070 O.3   100  ONM100     -0.2258
     26  PG        59.0980   -7.7540   58.1750 P.3   100  ONM100      0.5373
     27  O2G       60.6860   -7.9010   58.2930 O.3   100  ONM100     -0.1143
     28  O3G       58.4960   -6.2610   58.0930 O.2   100  ONM100     -0.2221
     29  O1G       58.6010   -7.4670   59.5330 O.3   100  ONM100     -0.1143
     30  O4'       58.3930  -14.6750   54.8900 O.3   100  ONM100     -0.3314
     31  C1'       58.3650  -15.1930   53.5330 C.3   100  ONM100      0.2305
     32  N9        56.9770  -15.3780   53.0210 N.pl3 100  ONM100     -0.2353
     33  C8        55.9640  -14.5140   52.8930 C.3   100  ONM100      0.2246
     34  N7        54.9260  -15.1130   52.2970 N.2   100  ONM100     -0.2322
     35  C5        55.2900  -16.3550   52.0120 C.2   100  ONM100      0.2182
     36  C4        56.6020  -16.5170   52.4590 C.2   100  ONM100      0.2300
     37  N3        57.2810  -17.7020   52.3020 N.2   100  ONM100     -0.3074
     38  C2        56.7240  -18.7940   51.7060 C.1   100  ONM100      0.2531
     39  N2        57.4210  -19.9170   51.5840 N.pl3 100  ONM100     -0.0226
     40  N1        55.3930  -18.7010   51.2300 N.2   100  ONM100     -0.2485
     41  C6        54.6800  -17.4770   51.3830 C.1   100  ONM100      0.2372
     42  O6        53.5320  -17.4460   50.9480 O.2   100  ONM100     -0.2069
@<TRIPOS>BOND
     1    42    41    2
     2    40    41    2
     3    40    38    2
     4    41    35    1
     5    39    38    1
     6    14    13    1
     7    38    37    2
     8    35    34    2
     9    35    36    1
    10    34    33    1
    11    37    36    2
    12    36    32    1
    13    13    31    1
    14    13    12    1
    15    33    32    1
    16    32    31    1
    17    19    18    2
    18    31    30    1
    19    12    11    1
    20    12    15    1
    21    11     9    1
    22    17    18    1
    23    17    16    1
    24     1     2    1
    25    20    18    1
    26    18    21    1
    27     2     3    1
    28     9     8    1
    29     9    10    2
    30     3     8   ar
    31     3     4   ar
    32     8     7   ar
    33    30    15    1
    34    15    16    1
    35     4     5   ar
    36     7     6   ar
    37     5     6   ar
    38    21    22    1
    39    24    22    2
    40    22    23    1
    41    22    25    1
    42    28    26    2
    43    26    25    1
    44    26    27    1
    45    26    29    1
