@<TRIPOS>MOLECULE
1tl7_GSP_C_1.pdb
 32 34 0 0 0
SMALL
GASTEIGER

@<TRIPOS>ATOM
      1  PG        23.4400    3.8130   28.6050 P.3   405  GSP405      0.4340
      2  O3B       22.6610    3.4770   27.2020 O.3   405  GSP405     -0.2405
      3  S1G       25.0460    4.5590   27.9780 S.3   405  GSP405      0.0416
      4  O2G       22.3930    4.6280   29.2710 O.3   405  GSP405     -0.1305
      5  O3G       23.9610    2.5720   29.2600 O.2   405  GSP405     -0.2423
      6  PB        21.1480    2.7910   27.1360 P.3   405  GSP405      0.2262
      7  O1B       21.4450    1.6130   26.3470 O.2   405  GSP405     -0.5168
      8  O2B       20.4270    2.4920   28.4020 O.3   405  GSP405     -0.4369
      9  PA        18.9480    4.5280   27.0000 P.3   405  GSP405      0.2189
     10  O1A       17.9310    3.5020   27.3240 O.2   405  GSP405     -0.5170
     11  O2A       19.4630    5.4740   28.0250 O.3   405  GSP405     -0.4371
     12  O3A       20.1940    3.8400   26.3550 O.3   405  GSP405     -0.2701
     13  O5'       18.3410    5.4580   25.7800 O.3   405  GSP405     -0.3112
     14  C5'       19.0760    6.5870   25.2000 C.3   405  GSP405      0.1813
     15  C4'       18.0750    7.4710   24.4760 C.3   405  GSP405      0.1799
     16  O4'       17.3960    6.7030   23.4140 O.3   405  GSP405     -0.3326
     17  C3'       16.8950    7.9820   25.3870 C.3   405  GSP405      0.2158
     18  O3'       16.7560    9.4080   25.1440 O.3   405  GSP405     -0.2175
     19  C2'       15.6310    7.1870   24.8470 C.3   405  GSP405      0.2310
     20  O2'       14.3900    7.8950   25.0230 O.3   405  GSP405     -0.2158
     21  C1'       15.9820    6.9910   23.3500 C.3   405  GSP405      0.2293
     22  N9        15.3720    5.7880   22.7070 N.pl3 405  GSP405     -0.2354
     23  C8        15.2980    4.4620   23.0690 C.3   405  GSP405      0.2246
     24  N7        14.6750    3.6810   22.2410 N.2   405  GSP405     -0.2322
     25  C5        14.2910    4.5530   21.2260 C.2   405  GSP405      0.2182
     26  C6        13.5550    4.2480   20.0170 C.1   405  GSP405      0.2372
     27  O6        13.1710    3.1180   19.7430 O.2   405  GSP405     -0.2069
     28  N1        13.3720    5.4110   19.2590 N.2   405  GSP405     -0.2485
     29  C2        13.8160    6.7100   19.5790 C.1   405  GSP405      0.2531
     30  N2        13.5650    7.7280   18.7580 N.pl3 405  GSP405     -0.0226
     31  N3        14.5130    6.9760   20.7300 N.2   405  GSP405     -0.3074
     32  C4        14.7110    5.8460   21.5030 C.2   405  GSP405      0.2300
@<TRIPOS>BOND
     1    30    29    1
     2    28    29    2
     3    28    26    2
     4    29    31    2
     5    27    26    2
     6    26    25    1
     7    31    32    2
     8    25    32    1
     9    25    24    2
    10    32    22    1
    11    24    23    1
    12    22    23    1
    13    22    21    1
    14    21    16    1
    15    21    19    1
    16    16    15    1
    17    15    14    1
    18    15    17    1
    19    19    20    1
    20    19    17    1
    21    18    17    1
    22    14    13    1
    23    13     9    1
    24     7     6    2
    25    12     9    1
    26    12     6    1
    27     9    10    2
    28     9    11    1
    29     6     2    1
    30     6     8    1
    31     2     1    1
    32     3     1    1
    33     1     5    2
    34     1     4    1
