@<TRIPOS>MOLECULE
1tl8_AI3_D_1.pdb
 24 28 0 0 0
SMALL
GASTEIGER

@<TRIPOS>ATOM
      1  C1        23.9740   -3.2140   27.8250 C.ar  901  AI3901      0.0398
      2  C2        22.6200   -3.4000   27.6960 C.ar  901  AI3901      0.0026
      3  C3        21.6840   -2.2210   27.7450 C.ar  901  AI3901      0.0053
      4  C4        22.1500   -0.9900   27.8960 C.ar  901  AI3901      0.0377
      5  C5        23.6170   -0.7370   28.0240 C.ar  901  AI3901      0.1721
      6  C6        24.4990   -1.7620   28.0050 C.ar  901  AI3901      0.1724
      7  C13       20.1980   -2.4360   27.6150 C.3   901  AI3901      0.1519
      8  N14       19.7190   -3.6320   27.4410 N.2   901  AI3901     -0.2656
      9  C15       20.6050   -4.7620   27.3780 C.2   901  AI3901      0.0764
     10  C16       21.9750   -4.6900   27.5050 C.2   901  AI3901      0.0171
     11  C22       22.6180   -6.0640   27.4070 C.2   901  AI3901      0.0016
     12  C23       21.3020   -6.8710   27.1860 C.ar  901  AI3901      0.0047
     13  C24       20.2240   -6.1110   27.1750 C.ar  901  AI3901      0.0205
     14  C29       18.8830   -6.6680   26.9770 C.ar  901  AI3901      0.0417
     15  C30       18.8130   -8.0180   26.8050 C.ar  901  AI3901      0.1765
     16  C31       19.9470   -8.8040   26.8200 C.ar  901  AI3901      0.1764
     17  C32       21.1640   -8.3160   26.9960 C.ar  901  AI3901      0.0402
     18  O38       19.6640  -10.1030   26.6360 O.3   901  AI3901     -0.4346
     19  C39       18.1700  -10.1630   26.4780 C.3   901  AI3901      0.4294
     20  O40       17.6390   -8.7850   26.5900 O.3   901  AI3901     -0.4346
     21  O45       25.8770   -1.3850   28.1600 O.3   901  AI3901     -0.4684
     22  C47       26.8510   -2.4690   28.1620 C.3   901  AI3901      0.2526
     23  O49       24.1130    0.5440   28.1700 O.3   901  AI3901     -0.4684
     24  C51       23.0500    1.5240   28.1800 C.3   901  AI3901      0.2526
@<TRIPOS>BOND
     1    19    20    1
     2    19    18    1
     3    20    15    1
     4    18    16    1
     5    15    16   ar
     6    15    14   ar
     7    16    17   ar
     8    14    13   ar
     9    17    12   ar
    10    13    12   ar
    11    13     9    1
    12    12    11    1
    13     9     8    2
    14     9    10    1
    15    11    10    2
    16     8     7    1
    17    10     2    1
    18     7     3    1
    19     2     3   ar
    20     2     1   ar
    21     3     4   ar
    22     1     6   ar
    23     4     5   ar
    24     6     5   ar
    25     6    21    1
    26     5    23    1
    27    21    22    1
    28    23    24    1
