@<TRIPOS>MOLECULE
1tl9_III_B_1.pdb
 30 29 0 0 0
SMALL
GASTEIGER

@<TRIPOS>ATOM
      1  C         37.3180   21.4640   37.1170 C.2   355  ACE355      0.2423
      2  O         37.2960   20.3850   36.5090 O.2   355  ACE355     -0.2733
      3  CH3       38.5750   22.2710   37.1810 C.3   355  ACE355      0.0964
      4  N         36.2640   21.9710   37.7650 N.am  356  LEU356     -0.1978
      5  CA        34.9630   21.3030   37.7850 C.3   356  LEU356      0.1727
      6  C         34.3090   21.3980   36.4170 C.2   356  LEU356      0.2616
      7  O         34.3570   22.4410   35.7560 O.2   356  LEU356     -0.2715
      8  CB        34.0460   21.9010   38.8580 C.3   356  LEU356      0.0311
      9  CG        34.5150   21.8090   40.3170 C.3   356  LEU356      0.0022
     10  CD1       33.5760   22.6050   41.1970 C.3   356  LEU356      0.0001
     11  CD2       34.5980   20.3630   40.7980 C.3   356  LEU356      0.0001
     12  N         33.7890   20.2620   35.9670 N.am  357  LEU357     -0.1963
     13  CA        33.1490   20.1560   34.6660 C.3   357  LEU357      0.1728
     14  C         31.6410   20.0940   34.8260 C.2   357  LEU357      0.2616
     15  O         31.1330   19.5310   35.7990 O.2   357  LEU357     -0.2715
     16  CB        33.6580   18.9070   33.9270 C.3   357  LEU357      0.0311
     17  CG        35.1790   18.6790   33.8550 C.3   357  LEU357      0.0022
     18  CD1       35.4780   17.3340   33.2600 C.3   357  LEU357      0.0001
     19  CD2       35.8730   19.7860   33.0730 C.3   357  LEU357      0.0001
     20  N         30.9380   20.7050   33.8780 N.am  358  AR7358     -0.1977
     21  CA        29.4810   20.7220   33.8810 C.3   358  AR7358      0.1597
     22  C         28.8010   19.7290   32.7490 C.2   358  AR7358      0.2287
     23  O         27.6190   19.4090   32.4930 O.2   358  AR7358     -0.2864
     24  CB        28.9370   22.1390   33.7810 C.3   358  AR7358      0.0334
     25  CG        28.7760   22.8230   35.1170 C.3   358  AR7358      0.0492
     26  CD        28.0290   24.1320   34.9590 C.3   358  AR7358      0.2205
     27  NE        26.6650   23.9540   34.4680 N.pl3 358  AR7358     -0.0865
     28  CZ        25.5760   24.0550   35.2260 C.cat 358  AR7358      0.5346
     29  NH1       24.3790   23.8740   34.6860 N.pl3 358  AR7358      0.1354
     30  NH2       25.6790   24.3290   36.5210 N.pl3 358  AR7358      0.1354
@<TRIPOS>BOND
     1    23    22    2
     2    22    21    1
     3    19    17    1
     4    18    17    1
     5    24    21    1
     6    24    25    1
     7    17    16    1
     8    20    21    1
     9    20    14   am
    10    16    13    1
    11    27    26    1
    12    27    28    2
    13    13    14    1
    14    13    12    1
    15    29    28    1
    16    14    15    2
    17    26    25    1
    18    28    30    1
    19     7     6    2
    20    12     6   am
    21     6     5    1
    22     2     1    2
    23     1     3    1
    24     1     4   am
    25     4     5    1
    26     5     8    1
    27     8     9    1
    28     9    11    1
    29     9    10    1
