@<TRIPOS>MOLECULE
1tlc_DGP_A_1.pdb
 23 25 0 0 0
SMALL
GASTEIGER

@<TRIPOS>ATOM
      1  P         14.9410   24.0870   26.2700 P.3   265  DGP265      0.5327
      2  OP1       13.9820   25.0230   25.6830 O.3   265  DGP265     -0.1145
      3  OP2       15.9390   24.8060   27.0850 O.3   265  DGP265     -0.1145
      4  OP3       15.7440   23.4260   25.1350 O.2   265  DGP265     -0.2224
      5  O5'       14.4870   22.9320   27.2240 O.3   265  DGP265     -0.2675
      6  C5'       14.9460   21.9570   27.9230 C.3   265  DGP265      0.1858
      7  C4'       14.1060   22.0670   29.3720 C.3   265  DGP265      0.1774
      8  O4'       14.5820   20.8850   30.0190 O.3   265  DGP265     -0.3347
      9  C3'       14.7180   23.1580   30.2630 C.3   265  DGP265      0.1857
     10  O3'       13.8360   23.3500   31.3760 O.3   265  DGP265     -0.2203
     11  C2'       16.0320   22.6300   30.6180 C.3   265  DGP265      0.0865
     12  C1'       15.4820   21.2210   31.0730 C.3   265  DGP265      0.1981
     13  N9        16.4490   20.1990   31.0080 N.pl3 265  DGP265     -0.2374
     14  C8        16.6460   19.3210   29.9780 C.3   265  DGP265      0.2245
     15  N7        17.7000   18.4630   30.1290 N.2   265  DGP265     -0.2322
     16  C5        18.1860   18.8170   31.3630 C.2   265  DGP265      0.2182
     17  C6        19.2480   18.3250   32.1090 C.1   265  DGP265      0.2372
     18  O6        20.0560   17.3940   31.9500 O.2   265  DGP265     -0.2069
     19  N1        19.3500   18.9560   33.2650 N.2   265  DGP265     -0.2485
     20  C2        18.6490   19.9900   33.7870 C.1   265  DGP265      0.2531
     21  N2        18.8300   20.5360   34.9430 N.pl3 265  DGP265     -0.0226
     22  N3        17.6640   20.4810   33.1090 N.2   265  DGP265     -0.3074
     23  C4        17.4820   19.8560   31.9170 C.2   265  DGP265      0.2299
@<TRIPOS>BOND
     1     4     1    2
     2     2     1    1
     3     1     3    1
     4     1     5    1
     5     5     6    1
     6     6     7    1
     7     7     8    1
     8     7     9    1
     9    14    15    1
    10    14    13    1
    11     8    12    1
    12    15    16    2
    13     9    11    1
    14     9    10    1
    15    11    12    1
    16    13    12    1
    17    13    23    1
    18    16    23    1
    19    16    17    1
    20    23    22    2
    21    18    17    2
    22    17    19    2
    23    22    20    2
    24    19    20    2
    25    20    21    1
