@<TRIPOS>MOLECULE
1tlc_F89_A_1.pdb
 37 41 0 0 0
SMALL
GASTEIGER

@<TRIPOS>ATOM
      1  C1        14.5970   18.0220   33.1070 C.1   266  F89266      0.2000
      2  O1A       15.2650   17.9870   34.1200 O.2   266  F89266     -0.2127
      3  N2        13.5940   18.8780   33.0200 N.2   266  F89266     -0.2741
      4  C3        12.7370   19.0270   31.8610 C.1   266  F89266      0.1262
      5  C3M       11.6510   20.0310   31.8050 C.3   266  F89266      0.1438
      6  N4        12.9420   18.2450   30.8540 N.2   266  F89266     -0.3457
      7  C4A       13.9520   17.2200   30.7560 C.2   266  F89266      0.1415
      8  C5        14.1250   16.4770   29.5930 C.2   266  F89266      0.0300
      9  C6        15.0760   15.4810   29.5170 C.2   266  F89266      0.0021
     10  C6A       15.9410   15.2370   30.5960 C.ar  266  F89266     -0.0025
     11  C7        16.9550   14.2940   30.5070 C.ar  266  F89266     -0.0005
     12  C8        17.7750   14.0230   31.5550 C.ar  266  F89266     -0.0026
     13  C9        17.7200   14.7850   32.7260 C.ar  266  F89266     -0.0009
     14  C10       16.7640   15.8260   32.8420 C.ar  266  F89266     -0.0053
     15  C1B       15.8440   16.0400   31.7750 C.ar  266  F89266      0.0005
     16  C1A       14.8470   17.0480   31.8600 C.3   266  F89266      0.1939
     17  C11       18.7750   14.6410   33.8410 C.3   266  F89266      0.1385
     18  N12       19.1060   13.3080   34.3070 N.pl3 266  F89266     -0.2328
     19  C13       18.2750   12.2550   34.8210 C.ar  266  F89266      0.0654
     20  C14       17.0330   12.7220   35.2820 C.ar  266  F89266      0.0136
     21  C15       16.1490   11.7450   35.8150 C.ar  266  F89266      0.0033
     22  C16       16.5070   10.3870   35.8950 C.ar  266  F89266      0.0513
     23  C17       17.7600    9.9490   35.4280 C.ar  266  F89266      0.0056
     24  C18       18.6350   10.8930   34.9150 C.ar  266  F89266      0.0162
     25  C19       14.8240   11.9090   36.4900 C.3   266  F89266      0.1211
     26  C         15.3680    9.6440   36.5100 C.2   266  F89266      0.2494
     27  O         15.4780    8.4190   36.5190 O.2   266  F89266     -0.2699
     28  N         14.4560   10.5030   36.9310 N.am  266  F89266     -0.2636
     29  CA        13.1950   10.5890   37.6880 C.3   266  F89266      0.1800
     30  CT        12.9550   10.8550   39.2170 C.2   266  F89266      0.3825
     31  O1        13.8020   10.0530   40.0390 O.co2 266  F89266     -0.2438
     32  O2        12.0390   11.6260   39.6770 O.co2 266  F89266     -0.2438
     33  CB        12.0590    9.6950   37.1280 C.3   266  F89266      0.0433
     34  CG        11.2840   10.2780   35.9320 C.3   266  F89266      0.1163
     35  CD        11.3720    9.1390   34.8710 C.2   266  F89266      0.3649
     36  OE1       10.6390    9.2250   33.8580 O.co2 266  F89266     -0.2457
     37  OE2       12.2860    8.1820   35.3080 O.co2 266  F89266     -0.2457
@<TRIPOS>BOND
     1     9     8    2
     2     9    10    1
     3     8     7    1
     4    11    10   ar
     5    11    12   ar
     6    10    15   ar
     7     7     6    2
     8     7    16    1
     9     6     4    2
    10    12    13   ar
    11    15    16    1
    12    15    14   ar
    13     5     4    1
    14    16     1    1
    15     4     3    2
    16    13    14   ar
    17    13    17    1
    18     3     1    2
    19     1     2    2
    20    17    18    1
    21    36    35   ar
    22    18    19    1
    23    19    24   ar
    24    19    20   ar
    25    35    37   ar
    26    35    34    1
    27    24    23   ar
    28    20    21   ar
    29    23    22   ar
    30    21    22   ar
    31    21    25    1
    32    22    26    1
    33    34    33    1
    34    25    28    1
    35    26    27    2
    36    26    28   am
    37    28    29    1
    38    33    29    1
    39    29    30    1
    40    30    32   ar
    41    30    31   ar
