@<TRIPOS>MOLECULE
1tlf_IPT_A_1.pdb
 26 26 0 0 0
SMALL
GASTEIGER

@<TRIPOS>ATOM
      1  C1        36.7630   26.0290   50.5550 C.3   998  IPT998      0.1336
      2  C2        36.9810   26.9310   49.3380 C.3   998  IPT998      0.1189
      3  O2        37.5490   26.1550   48.2990 O.3   998  IPT998     -0.3857
      4  C3        37.9080   28.1260   49.6290 C.3   998  IPT998      0.1126
      5  O3        37.7790   29.1000   48.6110 O.3   998  IPT998     -0.3865
      6  C4        37.6130   28.7910   50.9710 C.3   998  IPT998      0.1118
      7  O4        36.4100   29.5310   50.8890 O.3   998  IPT998     -0.3865
      8  C5        37.5080   27.7150   52.0340 C.3   998  IPT998      0.1115
      9  O5        36.4630   26.8110   51.7000 O.3   998  IPT998     -0.3553
     10  C6        37.2280   28.1950   53.4360 C.3   998  IPT998      0.0730
     11  O6        37.3730   27.1160   54.3560 O.3   998  IPT998     -0.3924
     12  S1        35.3180   25.0180   50.2680 S.3   998  IPT998     -0.1177
     13  C1'       35.3510   23.7690   51.5910 C.3   998  IPT998      0.0496
     14  C2'       34.1630   22.8530   51.4800 C.3   998  IPT998      0.0117
     15  C3'       36.6370   22.9580   51.5930 C.3   998  IPT998      0.0117
     16  H1        37.6700   25.4220   50.7140 H     998  IPT998      0.0740
     17  H2        36.0230   27.2660   48.9710 H     998  IPT998      0.0655
     18  HO2       37.7330   26.7180   47.5420 H     998  IPT998      0.2100
     19  H3        38.9090   27.6990   49.6420 H     998  IPT998      0.0647
     20  HO3       36.9100   29.5030   48.7330 H     998  IPT998      0.2100
     21  H4        38.4090   29.4980   51.2220 H     998  IPT998      0.0647
     22  HO4       36.2370   29.9080   51.7590 H     998  IPT998      0.2100
     23  H5        38.4840   27.1970   52.0740 H     998  IPT998      0.0646
     24  H61       36.2190   28.6170   53.5250 H     998  IPT998      0.0584
     25  H62       37.9480   28.9770   53.7150 H     998  IPT998      0.0584
     26  HO6       36.5100   26.8840   54.7230 H     998  IPT998      0.2095
@<TRIPOS>BOND
     1    18     3    1
     2     3     2    1
     3     5    20    1
     4     5     4    1
     5    17     2    1
     6     2     4    1
     7     2     1    1
     8     4    19    1
     9     4     6    1
    10    12     1    1
    11    12    13    1
    12     1    16    1
    13     1     9    1
    14     7     6    1
    15     7    22    1
    16     6    21    1
    17     6     8    1
    18    14    13    1
    19    13    15    1
    20     9     8    1
    21     8    23    1
    22     8    10    1
    23    10    24    1
    24    10    25    1
    25    10    11    1
    26    11    26    1
