@<TRIPOS>MOLECULE
1tlg_GAL_A_1.pdb
 12 12 0 0 0
SMALL
GASTEIGER

@<TRIPOS>ATOM
      1  C1         6.6030   38.8230   11.1110 C.3   126  GAL126      0.3024
      2  C2         5.8070   37.6400   10.5550 C.3   126  GAL126      0.2434
      3  C3         5.9080   36.4680   11.5100 C.3   126  GAL126      0.2199
      4  C4         7.3810   36.1240   11.8940 C.3   126  GAL126      0.2144
      5  C5         8.0960   37.4040   12.3850 C.3   126  GAL126      0.1836
      6  C6         9.5850   37.2490   12.7470 C.3   126  GAL126      0.2142
      7  O1         6.6110   39.8380   10.1740 O.3   126  GAL126     -0.1869
      8  O2         4.4270   38.0080   10.4700 O.3   126  GAL126     -0.2148
      9  O3         5.3150   35.3880   10.8830 O.3   126  GAL126     -0.2174
     10  O4         7.9720   35.5150   10.7870 O.3   126  GAL126     -0.2176
     11  O5         7.9590   38.4460   11.3810 O.3   126  GAL126     -0.3236
     12  O6        10.0700   38.4630   13.3010 O.3   126  GAL126     -0.2176
@<TRIPOS>BOND
     1     7     1    1
     2     8     2    1
     3     2     1    1
     4     2     3    1
     5    10     4    1
     6     9     3    1
     7     1    11    1
     8    11     5    1
     9     3     4    1
    10     4     5    1
    11     5     6    1
    12     6    12    1
