@<TRIPOS>MOLECULE
1tll_NAP_A_1.pdb
 48 53 0 0 0
SMALL
GASTEIGER

@<TRIPOS>ATOM
      1  PA       -12.6470    7.0020  -11.3960 P.3   1453  NAP1453     0.5105
      2  O1A      -14.0580    6.9710  -11.8330 O.2   1453  NAP1453    -0.2244
      3  O2A      -11.6670    6.0490  -12.0080 O.3   1453  NAP1453    -0.1249
      4  O5B      -12.1080    8.4890  -11.6490 O.3   1453  NAP1453    -0.2688
      5  C5B      -12.0750    9.4550  -10.5750 C.3   1453  NAP1453     0.1859
      6  C4B      -12.3920   10.7330  -11.3280 C.3   1453  NAP1453     0.1822
      7  O4B      -11.1230   11.4190  -11.2380 O.3   1453  NAP1453    -0.3136
      8  C3B      -12.7010   10.6430  -12.8520 C.3   1453  NAP1453     0.2157
      9  O3B      -13.5980   11.6510  -13.3230 O.3   1453  NAP1453    -0.2175
     10  C2B      -11.3520   10.7940  -13.5080 C.3   1453  NAP1453     0.2314
     11  O2B      -11.4250   11.2450  -14.8910 O.3   1453  NAP1453    -0.2630
     12  C1B      -10.6700   11.7530  -12.5770 C.3   1453  NAP1453     0.3158
     13  N9A       -9.2000   11.7510  -12.7920 N.pl3 1453  NAP1453    -0.1439
     14  C8A       -8.5460   10.7890  -13.4830 C.3   1453  NAP1453     0.3377
     15  N7A       -7.2380   11.0300  -13.5180 N.2   1453  NAP1453    -0.2095
     16  C5A       -7.1070   12.1710  -12.8420 C.2   1453  NAP1453     0.2526
     17  C6A       -5.8940   12.8120  -12.6080 C.2   1453  NAP1453     0.4393
     18  N6A       -4.7640   12.2900  -13.1060 N.pl3 1453  NAP1453     0.2180
     19  N1A       -5.9610   13.9940  -11.8860 N.2   1453  NAP1453     0.0021
     20  C2A       -7.1420   14.4350  -11.4180 C.3   1453  NAP1453     0.5254
     21  N3A       -8.2680   13.7770  -11.6600 N.2   1453  NAP1453    -0.0055
     22  C4A       -8.3010   12.6270  -12.3460 C.2   1453  NAP1453     0.3518
     23  O3       -12.5060    6.7860   -9.7810 O.3   1453  NAP1453    -0.2276
     24  PN       -12.7990    5.7310   -8.5960 P.3   1453  NAP1453     0.2230
     25  O1N      -14.2150    5.7970   -8.2450 O.2   1453  NAP1453    -0.5169
     26  O2N      -11.8220    6.0960   -7.5360 O.3   1453  NAP1453    -0.4370
     27  O5D      -12.6370    4.3340   -9.3390 O.3   1453  NAP1453    -0.3111
     28  C5D      -11.7550    3.3170   -8.8270 C.3   1453  NAP1453     0.1813
     29  C4D      -10.6370    3.0260   -9.8090 C.3   1453  NAP1453     0.1799
     30  O4D      -10.4350    1.5950  -10.0130 O.3   1453  NAP1453    -0.3327
     31  C3D      -11.0560    3.6140  -11.1210 C.3   1453  NAP1453     0.2164
     32  O3D      -10.8470    5.0020  -11.2070 O.3   1453  NAP1453    -0.2087
     33  C2D      -10.3370    2.8090  -12.1050 C.3   1453  NAP1453     0.2309
     34  O2D       -9.0530    3.3260  -12.4130 O.3   1453  NAP1453    -0.2158
     35  C1D      -10.2760    1.5060  -11.4540 C.3   1453  NAP1453     0.2263
     36  N1N      -11.1580    0.5130  -12.0300 N.pl3 1453  NAP1453    -0.2787
     37  C2N      -11.1690    0.3590  -13.4560 C.3   1453  NAP1453     0.1244
     38  C3N      -11.9850   -0.6380  -14.0050 C.2   1453  NAP1453     0.0544
     39  C7N      -12.0170   -0.8240  -15.5330 C.2   1453  NAP1453     0.2818
     40  O7N      -12.7710   -1.7010  -15.9800 O.2   1453  NAP1453    -0.2670
     41  N7N      -11.2200   -0.0690  -16.3070 N.am  1453  NAP1453    -0.0839
     42  C4N      -12.8620   -1.3700  -13.1460 C.2   1453  NAP1453     0.0033
     43  C5N      -12.8680   -1.2230  -11.7620 C.2   1453  NAP1453     0.0157
     44  C6N      -12.0500   -0.2510  -11.1960 C.2   1453  NAP1453     0.0633
     45  P2B      -11.5400   10.1880  -16.1960 P.3   1453  NAP1453     0.5328
     46  O1X      -12.8550   10.4940  -16.8940 O.3   1453  NAP1453    -0.1145
     47  O2X      -10.3540   10.5730  -16.9750 O.2   1453  NAP1453    -0.2224
     48  O3X      -11.5530    8.7630  -15.7170 O.3   1453  NAP1453    -0.1145
@<TRIPOS>BOND
     1    47    45    2
     2    46    45    1
     3    41    39   am
     4    45    48    1
     5    45    11    1
     6    40    39    2
     7    39    38    1
     8    11    10    1
     9    38    37    1
    10    38    42    2
    11    15    14    1
    12    15    16    2
    13    10     8    1
    14    10    12    1
    15    14    13    1
    16    37    36    1
    17     9     8    1
    18    42    43    1
    19    18    17    1
    20     8     6    1
    21    16    17    1
    22    16    22    1
    23    13    12    1
    24    13    22    1
    25    17    19    2
    26    12     7    1
    27    34    33    1
    28    22    21    2
    29    33    35    1
    30    33    31    1
    31    36    35    1
    32    36    44    1
    33     3     1    1
    34     3    32    1
    35    19    20    1
    36     2     1    2
    37    43    44    2
    38    21    20    1
    39     4     1    1
    40     4     5    1
    41    35    30    1
    42     1    23    1
    43     6     7    1
    44     6     5    1
    45    32    31    1
    46    31    29    1
    47    30    29    1
    48    29    28    1
    49    23    24    1
    50    27    28    1
    51    27    24    1
    52    24    25    2
    53    24    26    1
