@<TRIPOS>MOLECULE
1tll_FMN_A_1.pdb
 31 33 0 0 0
SMALL
GASTEIGER

@<TRIPOS>ATOM
      1  N1         7.3540    3.9690   -4.3360 N.2   1451  FMN1451    -0.2890
      2  C2         8.2010    5.0010   -4.3980 C.1   1451  FMN1451     0.3669
      3  O2         9.3130    5.0980   -4.9730 O.2   1451  FMN1451    -0.1744
      4  N3         7.7540    6.2140   -3.6890 N.2   1451  FMN1451    -0.2300
      5  C4         6.4620    6.3380   -2.9560 C.1   1451  FMN1451     0.2513
      6  O4         6.3070    7.4790   -2.4480 O.2   1451  FMN1451    -0.2057
      7  C4A        5.6610    5.2710   -2.9570 C.2   1451  FMN1451     0.2700
      8  N5         4.4800    5.3110   -2.3690 N.2   1451  FMN1451    -0.3878
      9  C5A        3.5140    4.1740   -2.3850 C.2   1451  FMN1451     0.1320
     10  C6         2.1800    4.2440   -1.7970 C.2   1451  FMN1451     0.0250
     11  C7         1.2540    3.0720   -1.9020 C.2   1451  FMN1451    -0.0238
     12  C7M       -0.0060    3.4350   -1.2560 C.3   1451  FMN1451     0.0308
     13  C8         1.6650    1.7790   -2.5990 C.2   1451  FMN1451    -0.0280
     14  C8M        0.7640    0.5920   -2.7380 C.3   1451  FMN1451     0.0304
     15  C9         2.9440    1.7090   -3.1450 C.2   1451  FMN1451    -0.0041
     16  C9A        3.9620    2.9070   -3.0890 C.3   1451  FMN1451     0.1497
     17  N10        5.2760    2.7820   -3.7330 N.pl3 1451  FMN1451    -0.2691
     18  C10        6.1410    3.9570   -3.7070 C.2   1451  FMN1451     0.2416
     19  C1'        5.7280    1.6070   -4.4040 C.3   1451  FMN1451     0.1294
     20  C2'        6.3830    0.6380   -3.4120 C.3   1451  FMN1451     0.2044
     21  O2'        7.4310    1.2760   -2.8470 O.3   1451  FMN1451    -0.2185
     22  C3'        6.7600   -0.4810   -4.1990 C.3   1451  FMN1451     0.2164
     23  O3'        5.4860   -1.1270   -4.7480 O.3   1451  FMN1451    -0.2175
     24  C4'        7.4760   -1.6190   -3.5160 C.3   1451  FMN1451     0.2147
     25  O4'        7.7370   -2.5940   -4.5030 O.3   1451  FMN1451    -0.2176
     26  C5'        6.7120   -2.3280   -2.3480 C.3   1451  FMN1451     0.1892
     27  O5'        7.7610   -2.9220   -1.6390 O.3   1451  FMN1451    -0.2674
     28  P          7.4570   -3.7190   -0.3400 P.3   1451  FMN1451     0.5327
     29  O1P        8.6990   -4.1930    0.1470 O.3   1451  FMN1451    -0.1145
     30  O2P        6.9070   -2.8000    0.7410 O.3   1451  FMN1451    -0.1145
     31  O3P        6.6790   -4.8720   -0.7920 O.2   1451  FMN1451    -0.2224
@<TRIPOS>BOND
     1     3     2    2
     2    23    22    1
     3    25    24    1
     4    19    17    1
     5    19    20    1
     6     2     1    2
     7     2     4    2
     8     1    18    2
     9    22    24    1
    10    22    20    1
    11    17    18    1
    12    17    16    1
    13    18     7    1
    14     4     5    2
    15    24    26    1
    16    20    21    1
    17    15    16    1
    18    15    13    2
    19    16     9    1
    20     7     5    1
    21     7     8    2
    22     5     6    2
    23    14    13    1
    24    13    11    1
    25     9     8    2
    26     9    10    1
    27    26    27    1
    28    11    10    2
    29    11    12    1
    30    27    28    1
    31    31    28    2
    32    28    29    1
    33    28    30    1
