@<TRIPOS>MOLECULE
1tlm_MIL_A_1.pdb
 16 17 0 0 0
SMALL
GASTEIGER

@<TRIPOS>ATOM
      1  C1        22.0420   43.4210    8.7880 C.3   128  MIL128      0.0941
      2  C2        22.1360   44.4280    9.7100 C.2   128  MIL128      0.1078
      3  C4        21.9760   42.8470   11.5630 C.1   128  MIL128      0.2053
      4  C5        21.8880   41.8070   10.5860 C.2   128  MIL128      0.1120
      5  C6        21.9500   42.1080    9.2530 C.2   128  MIL128     -0.0010
      6  C2A       22.2570   45.9060    9.4790 C.3   128  MIL128      0.0632
      7  C5A       21.7710   40.4930   11.1390 C.2   128  MIL128      0.1344
      8  C1'       22.1120   43.5710    7.3060 C.ar  128  MIL128     -0.0090
      9  C2'       23.2880   44.1110    6.7680 C.ar  128  MIL128      0.0171
     10  C3'       23.4090   44.2300    5.3980 C.ar  128  MIL128      0.0986
     11  C5'       21.3720   43.2910    5.0710 C.ar  128  MIL128      0.0986
     12  C6'       21.1470   43.1040    6.4210 C.ar  128  MIL128      0.0171
     13  O4        21.9460   42.6210   12.8050 O.2   128  MIL128     -0.2093
     14  N3        22.1000   44.1250   11.0240 N.2   128  MIL128     -0.3410
     15  N5A       21.6490   39.3730   11.0770 N.2   128  MIL128     -0.1456
     16  N4'       22.4660   43.8350    4.5270 N.ar  128  MIL128     -0.2423
@<TRIPOS>BOND
     1    16    11   ar
     2    16    10   ar
     3    11    12   ar
     4    10     9   ar
     5    12     8   ar
     6     9     8   ar
     7     8     1    1
     8     1     5    1
     9     1     2    1
    10     5     4    2
    11     6     2    1
    12     2    14    2
    13     4     7    1
    14     4     3    1
    15    14     3    2
    16    15     7    2
    17     3    13    2
