@<TRIPOS>MOLECULE
1tlo_E64_A_1.pdb
 25 24 0 0 0
SMALL
GASTEIGER

@<TRIPOS>ATOM
      1  C1        11.3560   38.6840   21.2470 C.2   400  E64400      0.3680
      2  O1        12.0590   39.1600   20.2640 O.co2 400  E64400     -0.2455
      3  O2        11.8570   38.1280   22.1950 O.co2 400  E64400     -0.2455
      4  C2         9.8560   38.8710   21.0810 C.3   400  E64400      0.1564
      5  C3         9.2660   40.1820   21.7920 C.3   400  E64400      0.2403
      6  O3         9.2680   39.9510   23.1160 O.3   400  E64400     -0.2126
      7  C4         7.8540   40.4750   21.2040 C.2   400  E64400      0.2728
      8  O4         7.5320   40.6680   19.9900 O.2   400  E64400     -0.2706
      9  N1         6.8880   40.5200   22.1490 N.am  400  E64400     -0.1956
     10  C6         5.4980   40.4710   21.9440 C.3   400  E64400      0.1728
     11  C7         4.8270   39.2110   22.3620 C.3   400  E64400      0.0311
     12  C8         5.2350   37.8430   21.9560 C.3   400  E64400      0.0022
     13  C9         4.2220   36.8430   22.6590 C.3   400  E64400      0.0001
     14  C10        5.1860   37.8330   20.3800 C.3   400  E64400      0.0001
     15  C11        4.7060   41.6090   22.6330 C.2   400  E64400      0.2612
     16  O5         5.1170   41.8990   23.7500 O.2   400  E64400     -0.2715
     17  N2         3.7130   42.1920   22.0040 N.am  400  E64400     -0.2040
     18  C12        2.8940   43.2910   22.4670 C.3   400  E64400      0.1153
     19  C13        3.1880   44.3060   21.3730 C.3   400  E64400      0.0271
     20  C14        1.9970   45.2000   21.3610 C.3   400  E64400      0.0487
     21  C15        1.9340   45.7620   19.9430 C.3   400  E64400      0.2205
     22  N3         1.6180   44.5160   19.2410 N.pl3 400  E64400     -0.0865
     23  C16        1.3820   44.1600   17.8120 C.cat 400  E64400      0.5346
     24  N4         1.1290   42.8130   17.7850 N.pl3 400  E64400      0.1354
     25  N5         1.3790   44.9150   16.5860 N.pl3 400  E64400      0.1354
@<TRIPOS>BOND
     1    25    23    1
     2    24    23    1
     3    23    22    2
     4    22    21    1
     5    21    20    1
     6     8     7    2
     7     2     1   ar
     8    14    12    1
     9     4     1    1
    10     4     5    1
    11     7     5    1
    12     7     9   am
    13     1     3   ar
    14    20    19    1
    15    19    18    1
    16     5     6    1
    17    10     9    1
    18    10    11    1
    19    10    15    1
    20    12    11    1
    21    12    13    1
    22    17    18    1
    23    17    15   am
    24    15    16    2
