@<TRIPOS>MOLECULE
1tlp_RDF_E_1.pdb
 37 39 0 0 0
SMALL
GASTEIGER

@<TRIPOS>ATOM
      1  C1        51.1830   16.9140   -8.2540 C.3   317  RDF317      0.2770
      2  O1        50.9200   18.1370   -7.6430 O.3   317  RDF317     -0.2518
      3  C2        50.1710   16.1130   -7.5020 C.3   317  RDF317      0.2410
      4  O2        49.9760   14.7420   -8.0340 O.3   317  RDF317     -0.2149
      5  C3        48.8650   16.7500   -7.7870 C.3   317  RDF317      0.2197
      6  O3        48.0220   16.0090   -6.9240 O.3   317  RDF317     -0.2174
      7  C4        48.6100   16.5020   -9.2630 C.3   317  RDF317      0.2118
      8  O4        47.2680   16.7170   -9.5930 O.3   317  RDF317     -0.2177
      9  C5        49.5720   17.3760  -10.0840 C.3   317  RDF317      0.1508
     10  O5        50.9170   16.9670   -9.6780 O.3   317  RDF317     -0.3281
     11  C6        49.3600   17.3970  -11.6040 C.3   317  RDF317      0.0350
     12  P         51.7150   18.9020   -6.5960 P.3   317  RDF317      0.4552
     13  O1P       53.2310   19.0530   -6.8700 O.2   317  RDF317     -0.2359
     14  O2P       51.1940   20.2340   -6.3250 O.3   317  RDF317     -0.1258
     15  N         51.6670   18.1030   -5.4180 N.3   317  RDF317     -0.1121
     16  CA        52.6880   17.9800   -4.3880 C.3   317  RDF317      0.1616
     17  C         53.5040   16.7200   -4.3740 C.2   317  RDF317      0.2582
     18  O         54.6370   16.8510   -3.9330 O.2   317  RDF317     -0.2718
     19  CB        52.1440   18.2040   -2.9860 C.3   317  RDF317      0.0274
     20  CG        53.2360   18.0740   -1.8520 C.3   317  RDF317      0.0019
     21  CD1       54.3930   19.0990   -1.8240 C.3   317  RDF317      0.0001
     22  CD2       52.6370   18.1190   -0.4400 C.3   317  RDF317      0.0001
     23  N1        52.9100   15.5590   -4.8310 N.am  317  RDF317     -0.1941
     24  CA1       53.5360   14.2310   -4.9710 C.3   317  RDF317      0.2018
     25  C7        52.6730   13.2180   -5.7660 C.2   317  RDF317      0.3845
     26  O6        51.4900   13.6410   -5.9320 O.co2 317  RDF317     -0.2437
     27  CB1       54.0320   13.7790   -3.5780 C.3   317  RDF317      0.0575
     28  CG1       52.9380   13.3650   -2.6840 C.2   317  RDF317     -0.0136
     29 CD11       52.1560   14.1970   -1.9470 C.2   317  RDF317      0.0907
     30 CD21       52.4770   12.0380   -2.4410 C.3   317  RDF317      0.0819
     31  NE1       51.2200   13.4920   -1.2530 N.2   317  RDF317     -0.2482
     32  CE2       51.3940   12.1660   -1.5210 C.2   317  RDF317      0.0665
     33  CE3       52.8730   10.7720   -2.9060 C.2   317  RDF317     -0.0164
     34  CZ2       50.6760   11.0820   -1.0520 C.2   317  RDF317      0.0153
     35  CZ3       52.1450    9.6940   -2.4440 C.2   317  RDF317     -0.0038
     36  CH2       51.0840    9.8480   -1.5190 C.2   317  RDF317      0.0009
     37  OXT       53.1840   12.0870   -6.1640 O.co2 317  RDF317     -0.2437
@<TRIPOS>BOND
     1    11     9    1
     2     9    10    1
     3     9     7    1
     4    10     1    1
     5     8     7    1
     6     7     5    1
     7     1     2    1
     8     1     3    1
     9     4     3    1
    10     5     3    1
    11     5     6    1
    12     2    12    1
    13    13    12    2
    14    12    14    1
    15    12    15    1
    16    37    25   ar
    17    26    25   ar
    18    25    24    1
    19    15    16    1
    20    24    23    1
    21    24    27    1
    22    23    17   am
    23    16    17    1
    24    16    19    1
    25    17    18    2
    26    27    28    1
    27    19    20    1
    28    33    35    2
    29    33    30    1
    30    28    30    1
    31    28    29    2
    32    35    36    1
    33    30    32    1
    34    29    31    1
    35    20    21    1
    36    20    22    1
    37    32    31    2
    38    32    34    1
    39    36    34    2
