@<TRIPOS>MOLECULE
1tls_UFP_A_1.pdb
 21 22 0 0 0
SMALL
GASTEIGER

@<TRIPOS>ATOM
      1  N1        17.5270   20.1000   31.3630 N.am  265  UFP265     -0.1989
      2  C2        18.3490   20.0240   32.5010 C.1   265  UFP265      0.2803
      3  N3        19.4160   19.1410   32.5240 N.2   265  UFP265     -0.2470
      4  C4        19.6670   18.1870   31.5120 C.1   265  UFP265      0.2265
      5  C5        18.5230   17.8880   30.3870 C.3   265  UFP265      0.2980
      6  C6        17.8010   19.2820   30.1180 C.3   265  UFP265      0.1597
      7  O2        18.1630   20.7160   33.4720 O.2   265  UFP265     -0.1922
      8  O4        20.6590   17.4660   31.5720 O.2   265  UFP265     -0.2106
      9  F5        18.8790   17.2310   29.3610 F     265  UFP265     -0.2160
     10  C1'       16.3460   20.9290   31.3230 C.3   265  UFP265      0.2049
     11  C2'       16.6330   22.3790   30.9470 C.3   265  UFP265      0.0871
     12  C3'       15.3480   22.8930   30.3550 C.3   265  UFP265      0.1857
     13  C4'       14.9640   21.6240   29.6060 C.3   265  UFP265      0.1774
     14  O3'       14.4380   23.1620   31.4020 O.3   265  UFP265     -0.2203
     15  O4'       15.3350   20.5050   30.3980 O.3   265  UFP265     -0.3342
     16  C5'       15.4260   21.5320   28.1710 C.3   265  UFP265      0.1858
     17  O5'       14.6980   22.4210   27.3410 O.3   265  UFP265     -0.2675
     18  P         15.3060   23.6970   26.5540 P.3   265  UFP265      0.5327
     19  O1P       14.2480   24.3680   25.8210 O.3   265  UFP265     -0.1145
     20  O2P       16.0750   24.5530   27.4330 O.3   265  UFP265     -0.1145
     21  O3P       16.0920   23.0960   25.4340 O.2   265  UFP265     -0.2224
@<TRIPOS>BOND
     1    21    18    2
     2    19    18    1
     3    18    17    1
     4    18    20    1
     5    17    16    1
     6    16    13    1
     7     9     5    1
     8    13    12    1
     9    13    15    1
    10     6     5    1
    11     6     1    1
    12    12    11    1
    13    12    14    1
    14     5     4    1
    15    15    10    1
    16    11    10    1
    17    10     1    1
    18     1     2   am
    19     4     8    2
    20     4     3    2
    21     2     3    2
    22     2     7    2
