@<TRIPOS>MOLECULE
1tls_C2F_A_1.pdb
 33 35 0 0 0
SMALL
GASTEIGER

@<TRIPOS>ATOM
      1  N1        12.9810   18.5770   30.2540 N.2   266  C2F266     -0.2726
      2  C2        12.8010   19.2370   31.4790 C.1   266  C2F266      0.2603
      3  NA2       11.6800   20.0870   31.6120 N.pl3 266  C2F266     -0.0221
      4  N3        13.7110   19.0700   32.5400 N.2   266  C2F266     -0.2515
      5  C4        14.8610   18.2520   32.4190 C.1   266  C2F266      0.2218
      6  O4        15.7030   18.0830   33.3190 O.2   266  C2F266     -0.2109
      7  C4A       15.0490   17.5450   31.0890 C.3   266  C2F266      0.2763
      8  N5        16.1140   16.6090   30.8240 N.3   266  C2F266     -0.2435
      9  C6        15.9310   15.5790   29.8540 C.3   266  C2F266      0.1062
     10  C7        15.3440   16.1230   28.5670 C.3   266  C2F266      0.1547
     11  N8        14.2580   17.0570   28.7900 N.2   266  C2F266     -0.2096
     12  C8A       14.0980   17.7300   30.0560 C.1   266  C2F266      0.1050
     13  C9        15.1980   14.3310   30.4740 C.3   266  C2F266      0.1302
     14  N10       15.9690   14.0170   31.7450 N.pl3 266  C2F266     -0.2361
     15  C11       17.5350   17.0100   31.0280 C.3   266  C2F266      0.0915
     16  C12       13.7460   13.3090   35.2900 C.ar  266  C2F266      0.0551
     17  C13       15.1600   13.4090   35.3110 C.ar  266  C2F266      0.0059
     18  C14       15.8620   13.6460   34.1870 C.ar  266  C2F266      0.0162
     19  C15       15.1910   13.7980   32.9300 C.ar  266  C2F266      0.0654
     20  C16       13.8250   13.6980   32.9010 C.ar  266  C2F266      0.0162
     21  C17       13.0970   13.4590   34.0690 C.ar  266  C2F266      0.0059
     22  C         12.9460   13.0010   36.5770 C.2   266  C2F266      0.2652
     23  O         11.7230   12.9150   36.5210 O.2   266  C2F266     -0.2684
     24  N         13.6630   12.9210   37.7920 N.am  266  C2F266     -0.1918
     25  CA        12.7820   12.6240   38.9390 C.3   266  C2F266      0.1986
     26  CB        12.5490   11.0670   38.8870 C.3   266  C2F266      0.0451
     27  CG        13.8100   10.1650   38.7360 C.3   266  C2F266      0.1164
     28  CD        13.2770    8.7970   38.2320 C.2   266  C2F266      0.3649
     29  OE1       14.1850    8.0600   37.8250 O.co2 266  C2F266     -0.2457
     30  OE2       12.0610    8.5580   38.2550 O.co2 266  C2F266     -0.2457
     31  CT        13.6170   13.0710   40.2060 C.2   266  C2F266      0.3842
     32  O1        12.9670   13.1440   41.2570 O.co2 266  C2F266     -0.2437
     33  O2        14.8100   13.2620   39.9560 O.co2 266  C2F266     -0.2437
@<TRIPOS>BOND
     1    10    11    1
     2    10     9    1
     3    11    12    2
     4     9    13    1
     5     9     8    1
     6    12     1    2
     7    12     7    1
     8     1     2    2
     9    13    14    1
    10     8    15    1
    11     8     7    1
    12     7     5    1
    13     2     3    1
    14     2     4    2
    15    14    19    1
    16     5     4    2
    17     5     6    2
    18    20    19   ar
    19    20    21   ar
    20    19    18   ar
    21    21    16   ar
    22    18    17   ar
    23    16    17   ar
    24    16    22    1
    25    23    22    2
    26    22    24   am
    27    24    25    1
    28    29    28   ar
    29    28    30   ar
    30    28    27    1
    31    27    26    1
    32    26    25    1
    33    25    31    1
    34    33    31   ar
    35    31    32   ar
