@<TRIPOS>MOLECULE
1tlw_THM_A_1.pdb
 17 18 0 0 0
SMALL
GASTEIGER

@<TRIPOS>ATOM
      1  O5'      -12.6050   92.4150   -5.2970 O.3   798  THM798     -0.2176
      2  C5'      -12.1300   93.7250   -4.9470 C.3   798  THM798      0.2141
      3  C4'      -13.2880   94.6230   -4.5730 C.3   798  THM798      0.1802
      4  O4'      -14.0350   94.0290   -3.4880 O.3   798  THM798     -0.3338
      5  C3'      -12.9070   96.0220   -4.0850 C.3   798  THM798      0.1858
      6  O3'      -13.9390   96.9370   -4.4940 O.3   798  THM798     -0.2203
      7  C2'      -12.9440   95.8820   -2.5730 C.3   798  THM798      0.0874
      8  C1'      -14.1330   94.9630   -2.4150 C.3   798  THM798      0.2090
      9  N1       -14.2080   94.1870   -1.1630 N.am  798  THM798     -0.1794
     10  C2       -14.1010   94.8270    0.0760 C.1   798  THM798      0.2844
     11  O2       -13.9340   96.0450    0.2090 O.2   798  THM798     -0.1918
     12  N3       -14.2230   93.9900    1.1560 N.2   798  THM798     -0.2455
     13  C4       -14.4750   92.6340    1.1240 C.1   798  THM798      0.2134
     14  O4       -14.6170   92.0130    2.1830 O.2   798  THM798     -0.2088
     15  C5       -14.5800   92.0430   -0.1930 C.2   798  THM798      0.0891
     16  C5M      -14.8870   90.5890   -0.3090 C.3   798  THM798      0.0462
     17  C6       -14.4190   92.8280   -1.2510 C.2   798  THM798      0.0877
@<TRIPOS>BOND
     1     1     2    1
     2     2     3    1
     3     3     5    1
     4     3     4    1
     5     6     5    1
     6     5     7    1
     7     4     8    1
     8     7     8    1
     9     8     9    1
    10    17     9    1
    11    17    15    2
    12     9    10   am
    13    16    15    1
    14    15    13    1
    15    10    11    2
    16    10    12    2
    17    13    12    2
    18    13    14    2
