@<TRIPOS>MOLECULE
1tlx_LYS_A_1.pdb
 10 9 0 0 0
SMALL
GASTEIGER

@<TRIPOS>ATOM
      1  N         37.7170   40.2980   -3.8820 N.3   318  LYS318     -0.1208
      2  CA        38.8600   39.4380   -4.1680 C.3   318  LYS318      0.1943
      3  C         38.4870   38.3200   -5.1450 C.2   318  LYS318      0.3819
      4  O         37.3230   38.0740   -5.4360 O.co2 318  LYS318     -0.2441
      5  CB        39.3560   38.8390   -2.8490 C.3   318  LYS318      0.0307
      6  CG        38.2620   38.0760   -2.1050 C.3   318  LYS318      0.0036
      7  CD        38.7950   36.8060   -1.4410 C.3   318  LYS318      0.0206
      8  CE        38.3240   35.5360   -2.1500 C.3   318  LYS318      0.1093
      9  NZ        37.6060   34.6890   -1.2010 N.3   318  LYS318     -0.1314
     10  OXT       39.3350   37.6180   -5.6830 O.co2 318  LYS318     -0.2441
@<TRIPOS>BOND
     1    10     3   ar
     2     4     3   ar
     3     3     2    1
     4     2     1    1
     5     2     5    1
     6     5     6    1
     7     8     7    1
     8     8     9    1
     9     6     7    1
