@<TRIPOS>MOLECULE
1tlz_URI_A_1.pdb
 17 18 0 0 0
SMALL
GASTEIGER

@<TRIPOS>ATOM
      1  N1       -14.4760   92.6470   -2.2050 N.am  800  URI800     -0.1766
      2  C2       -14.4490   93.6790   -1.3070 C.1   800  URI800      0.2845
      3  N3       -14.4560   93.3020    0.0180 N.2   800  URI800     -0.2452
      4  C4       -14.4990   91.9870    0.4790 C.1   800  URI800      0.2182
      5  C5       -14.5330   90.9770   -0.5490 C.2   800  URI800      0.1242
      6  C6       -14.5320   91.3410   -1.8260 C.2   800  URI800      0.0929
      7  O2       -14.4150   94.8590   -1.6910 O.2   800  URI800     -0.1918
      8  O4       -14.6320   91.7740    1.6870 O.2   800  URI800     -0.2085
      9  C1'      -14.3970   93.0660   -3.5890 C.3   800  URI800      0.2401
     10  C2'      -12.9150   93.1830   -3.8970 C.3   800  URI800      0.2319
     11  C3'      -12.6470   91.8840   -4.6690 C.3   800  URI800      0.2159
     12  C4'      -13.9640   91.6170   -5.3780 C.3   800  URI800      0.1829
     13  O2'      -12.7870   94.3800   -4.6100 O.3   800  URI800     -0.2157
     14  O3'      -11.6630   92.0810   -5.6860 O.3   800  URI800     -0.2175
     15  O4'      -14.9780   92.0880   -4.4360 O.3   800  URI800     -0.3318
     16  C5'      -14.1860   90.1520   -5.6390 C.3   800  URI800      0.2142
     17  O5'      -14.8570   89.5570   -4.4940 O.3   800  URI800     -0.2176
@<TRIPOS>BOND
     1    14    11    1
     2    16    12    1
     3    16    17    1
     4    12    11    1
     5    12    15    1
     6    11    10    1
     7    13    10    1
     8    15     9    1
     9    10     9    1
    10     9     1    1
    11     1     6    1
    12     1     2   am
    13     6     5    2
    14     7     2    2
    15     2     3    2
    16     5     4    1
    17     3     4    2
    18     4     8    2
