@<TRIPOS>MOLECULE
1tmk_TMP_A_1.pdb
 21 22 0 0 0
SMALL
GASTEIGER

@<TRIPOS>ATOM
      1  P          3.5340   36.4780    4.9540 P.3   217  TMP217      0.5327
      2  O1P        4.0840   37.5870    4.1300 O.2   217  TMP217     -0.2224
      3  O2P        4.4990   35.6680    5.7620 O.3   217  TMP217     -0.1145
      4  O3P        2.4450   37.0280    6.0480 O.3   217  TMP217     -0.1145
      5  O5'        2.4840   35.5190    4.1590 O.3   217  TMP217     -0.2675
      6  C5'        2.7650   34.7410    3.0060 C.3   217  TMP217      0.1858
      7  C4'        1.5380   34.4090    2.1860 C.3   217  TMP217      0.1774
      8  O4'        0.6850   33.4040    2.7320 O.3   217  TMP217     -0.3339
      9  C3'        0.6510   35.6120    2.1330 C.3   217  TMP217      0.1857
     10  O3'        0.6730   36.1350    0.8310 O.3   217  TMP217     -0.2203
     11  C2'       -0.7500   35.1410    2.3980 C.3   217  TMP217      0.0874
     12  C1'       -0.5970   33.6110    2.2000 C.3   217  TMP217      0.2090
     13  N1        -1.5270   32.9880    3.1220 N.am  217  TMP217     -0.1794
     14  C2        -2.3620   32.0790    2.5290 C.1   217  TMP217      0.2844
     15  O2        -2.4160   31.9300    1.2890 O.2   217  TMP217     -0.1918
     16  N3        -3.1060   31.2990    3.4530 N.2   217  TMP217     -0.2455
     17  C4        -2.8310   31.1830    4.8070 C.1   217  TMP217      0.2134
     18  O4        -3.3230   30.2710    5.4490 O.2   217  TMP217     -0.2088
     19  C5        -1.9570   32.1960    5.3680 C.2   217  TMP217      0.0891
     20  C5M       -1.6690   32.1560    6.9080 C.3   217  TMP217      0.0462
     21  C6        -1.3730   33.0690    4.5180 C.2   217  TMP217      0.0877
@<TRIPOS>BOND
     1    10     9    1
     2    15    14    2
     3     9     7    1
     4     9    11    1
     5     7     8    1
     6     7     6    1
     7    12    11    1
     8    12     8    1
     9    12    13    1
    10    14    13   am
    11    14    16    2
    12     6     5    1
    13    13    21    1
    14    16    17    2
    15     2     1    2
    16     5     1    1
    17    21    19    2
    18    17    19    1
    19    17    18    2
    20     1     3    1
    21     1     4    1
    22    19    20    1
