@<TRIPOS>MOLECULE
1tmm_APC_A_1.pdb
 31 33 0 0 0
SMALL
GASTEIGER

@<TRIPOS>ATOM
      1  PG        16.1580   -7.4260   -0.1760 P.3   171  APC171      0.5389
      2  O1G       16.1290   -7.3420    1.3360 O.3   171  APC171     -0.1143
      3  O2G       17.5720   -7.6550   -0.7210 O.3   171  APC171     -0.1143
      4  O3G       15.4530   -6.3080   -0.8850 O.2   171  APC171     -0.2220
      5  PB        13.8750   -9.1510   -0.2990 P.3   171  APC171      0.3895
      6  O1B       13.1160   -7.8500   -0.0160 O.3   171  APC171     -0.1388
      7  O2B       13.3770  -10.0170   -1.3890 O.2   171  APC171     -0.2544
      8  O3B       15.4290   -8.7870   -0.5690 O.3   171  APC171     -0.2026
      9  PA        12.3090  -10.8030    1.6030 P.3   171  APC171      0.3820
     10  O1A       11.2840   -9.7850    1.2730 O.3   171  APC171     -0.1392
     11  O2A       12.1280  -12.1650    1.0150 O.2   171  APC171     -0.2548
     12  C3A       13.9650  -10.1390    1.1810 C.3   171  APC171      0.2357
     13  O5'       12.2920  -10.8960    3.1910 O.3   171  APC171     -0.2896
     14  C5'       13.0740  -11.9150    3.7560 C.3   171  APC171      0.1836
     15  C4'       13.1550  -11.6310    5.3760 C.3   171  APC171      0.1822
     16  O4'       13.8340  -10.3960    5.4610 O.3   171  APC171     -0.3135
     17  C3'       11.9000  -11.4050    6.1050 C.3   171  APC171      0.2184
     18  O3'       11.3250  -12.6760    6.5050 O.3   171  APC171     -0.2174
     19  C2'       12.3350  -10.4710    7.2510 C.3   171  APC171      0.2570
     20  O2'       12.3630  -11.2390    8.5310 O.3   171  APC171     -0.2130
     21  C1'       13.7440  -10.0850    6.8810 C.3   171  APC171      0.3186
     22  N9        14.1140   -8.7180    7.0920 N.pl3 171  APC171     -0.1439
     23  C8        15.2700   -8.2940    7.7090 C.3   171  APC171      0.3377
     24  N7        15.3560   -6.9400    7.7040 N.2   171  APC171     -0.2095
     25  C5        14.1680   -6.5550    7.0390 C.2   171  APC171      0.2526
     26  C6        13.7960   -5.2350    6.7840 C.2   171  APC171      0.4393
     27  N6        14.4780   -4.1280    7.1150 N.pl3 171  APC171      0.2180
     28  N1        12.6260   -5.1040    6.1380 N.2   171  APC171      0.0021
     29  C2        11.9180   -6.2140    5.7920 C.3   171  APC171      0.5254
     30  N3        12.2420   -7.4700    6.0180 N.2   171  APC171     -0.0055
     31  C4        13.4340   -7.6170    6.6770 C.2   171  APC171      0.3518
@<TRIPOS>BOND
     1     7     5    2
     2     4     1    2
     3     3     1    1
     4     8     5    1
     5     8     1    1
     6     5     6    1
     7     5    12    1
     8     1     2    1
     9    11     9    2
    10    12     9    1
    11    10     9    1
    12     9    13    1
    13    13    14    1
    14    14    15    1
    15    15    16    1
    16    15    17    1
    17    16    21    1
    18    29    30    1
    19    29    28    1
    20    30    31    2
    21    17    18    1
    22    17    19    1
    23    28    26    2
    24    31    25    1
    25    31    22    1
    26    26    25    1
    27    26    27    1
    28    21    22    1
    29    21    19    1
    30    25    24    2
    31    22    23    1
    32    19    20    1
    33    24    23    1
