@<TRIPOS>MOLECULE
1tmm_HHR_A_1.pdb
 14 15 0 0 0
SMALL
GASTEIGER

@<TRIPOS>ATOM
      1  C7        15.4410   -7.1980   -6.1540 C.3   181  HHR181      0.1940
      2  N8        15.5110   -6.4630   -7.2220 N.2   181  HHR181     -0.1992
      3  C9        14.9140   -5.2900   -7.3960 C.1   181  HHR181      0.1401
      4  N1        15.0040   -4.5590   -8.5000 N.2   181  HHR181     -0.2672
      5  C2        14.4290   -3.4180   -8.6850 C.1   181  HHR181      0.2609
      6  N2        14.4540   -2.6640   -9.6780 N.pl3 181  HHR181     -0.0220
      7  C10       14.1140   -4.8310   -6.2410 C.2   181  HHR181      0.2989
      8  C4        13.4900   -3.6260   -6.3980 C.1   181  HHR181      0.2569
      9  N3        13.6310   -2.9360   -7.5640 N.2   181  HHR181     -0.2466
     10  O4        12.7770   -3.1160   -5.4980 O.2   181  HHR181     -0.2052
     11  N5        14.0180   -5.5640   -5.1200 N.2   181  HHR181     -0.3830
     12  C6        14.6530   -6.7340   -5.0320 C.2   181  HHR181      0.1470
     13  C6A       14.5690   -7.6010   -3.7700 C.3   181  HHR181      0.2380
     14  O6A       13.5730   -7.1720   -2.9560 O.3   181  HHR181     -0.2126
@<TRIPOS>BOND
     1     6     5    1
     2     5     4    2
     3     5     9    2
     4     4     3    2
     5     9     8    2
     6     3     2    2
     7     3     7    1
     8     2     1    1
     9     8     7    1
    10     8    10    2
    11     7    11    2
    12     1    12    1
    13    11    12    2
    14    12    13    1
    15    13    14    1
