@<TRIPOS>MOLECULE
1tmn_0ZN_E_1.pdb
 35 37 0 0 0
SMALL
GASTEIGER

@<TRIPOS>ATOM
      1  CA        51.6340   18.0880   -5.7220 C.3   317  0ZN317      0.1764
      2  CB1       50.3130   18.1120   -6.5120 C.3   317  0ZN317      0.0336
      3  CG        49.8520   16.6610   -6.7000 C.3   317  0ZN317      0.0284
      4  CD        48.5260   16.4110   -7.4500 C.ar  317  0ZN317     -0.0221
      5  CE1       48.5000   16.3550   -8.8380 C.ar  317  0ZN317     -0.0043
      6  CE2       47.3940   16.1190   -6.7300 C.ar  317  0ZN317     -0.0043
      7  CZ1       47.3130   16.0460   -9.5300 C.ar  317  0ZN317     -0.0003
      8  CZ2       46.1950   15.8210   -7.4020 C.ar  317  0ZN317     -0.0003
      9  CH        46.1420   15.7920   -8.8100 C.ar  317  0ZN317     -0.0000
     10  CB2       52.5090   19.0800   -6.4520 C.2   317  0ZN317      0.3803
     11  OG1       53.3270   18.7000   -7.3160 O.co2 317  0ZN317     -0.2441
     12  OG2       52.3300   20.2880   -6.2750 O.co2 317  0ZN317     -0.2441
     13  N         51.5380   18.2350   -4.2180 N.3   317  0ZN317     -0.2004
     14  CA1       52.8370   18.1030   -3.5130 C.3   317  0ZN317      0.1509
     15  C         53.6810   16.8680   -3.8590 C.2   317  0ZN317      0.2576
     16  O         54.9390   16.9380   -3.9590 O.2   317  0ZN317     -0.2718
     17  CB        52.5980   18.0910   -2.0020 C.3   317  0ZN317      0.0268
     18  CG1       53.9410   18.2290   -1.3100 C.3   317  0ZN317      0.0019
     19  CD1       54.6280   19.5270   -1.7280 C.3   317  0ZN317      0.0001
     20  CD2       53.6860   18.1710    0.1900 C.3   317  0ZN317      0.0001
     21  N1        52.9520   15.7650   -3.9830 N.am  317  0ZN317     -0.1944
     22  CA2       53.5300   14.4480   -4.2980 C.3   317  0ZN317      0.1982
     23  C1        52.6430   13.5310   -5.1330 C.2   317  0ZN317      0.3842
     24  O1        51.5720   14.0270   -5.6050 O.co2 317  0ZN317     -0.2437
     25  CB3       54.1010   13.7350   -3.0370 C.3   317  0ZN317      0.0397
     26  CG2       52.9430   13.2580   -2.1640 C.3   317  0ZN317      0.0501
     27 CD11       51.8320   13.9080   -1.8230 C.3   317  0ZN317      0.1299
     28 CD21       52.7980   11.9770   -1.6420 C.2   317  0ZN317     -0.0072
     29  NE1       50.8920   12.9890   -1.3140 N.2   317  0ZN317     -0.2704
     30 CE21       51.4420   11.8400   -1.2860 C.2   317  0ZN317      0.0715
     31  CE3       53.7230   10.9460   -1.4800 C.2   317  0ZN317     -0.0242
     32 CZ21       50.9040   10.6380   -0.8550 C.2   317  0ZN317      0.0141
     33  CZ3       53.2130    9.7410   -0.9640 C.3   317  0ZN317      0.0518
     34  CH2       51.8310    9.5840   -0.6900 C.2   317  0ZN317     -0.0199
     35  OXT       53.1420   12.4690   -5.6520 O.co2 317  0ZN317     -0.2437
@<TRIPOS>BOND
     1     7     5   ar
     2     7     9   ar
     3     5     4   ar
     4     9     8   ar
     5     4     6   ar
     6     4     3    1
     7     8     6   ar
     8    11    10   ar
     9     3     2    1
    10     2     1    1
    11    10    12   ar
    12    10     1    1
    13     1    13    1
    14    35    23   ar
    15    24    23   ar
    16    23    22    1
    17    22    21    1
    18    22    25    1
    19    13    14    1
    20    21    15   am
    21    16    15    2
    22    15    14    1
    23    14    17    1
    24    25    26    1
    25    26    27    1
    26    26    28    1
    27    17    18    1
    28    27    29    1
    29    19    18    1
    30    28    31    2
    31    28    30    1
    32    31    33    1
    33    29    30    2
    34    18    20    1
    35    30    32    1
    36    33    34    1
    37    32    34    2
