@<TRIPOS>MOLECULE
1tmo_2MD_A_1.pdb
 47 52 0 0 0
SMALL
GASTEIGER

@<TRIPOS>ATOM
      1  PB        54.1230   43.1520   19.9860 P.3   799  2MD799      0.2189
      2  O3B       53.3190   44.5730   20.2530 O.3   799  2MD799     -0.2703
      3  O1B       55.5820   43.3920   20.0430 O.3   799  2MD799     -0.4371
      4  O2B       53.8420   42.8110   18.5630 O.2   799  2MD799     -0.5170
      5  O3A       53.8250   41.8730   21.0020 O.3   799  2MD799     -0.3112
      6  C10       52.5460   41.1750   20.8270 C.3   799  2MD799      0.1795
      7  C11       52.4590   39.6770   20.4270 C.3   799  2MD799      0.1595
      8  O11       52.8660   39.0600   21.6160 O.3   799  2MD799     -0.3279
      9  C12       51.3060   39.0910   19.5600 C.3   799  2MD799      0.1049
     10  S12       50.3570   40.0770   18.5010 S.3   799  2MD799     -0.0791
     11  C13       50.6700   37.9880   19.9650 C.3   799  2MD799      0.1234
     12  S13       49.0210   37.7940   19.3900 S.3   799  2MD799     -0.0747
     13  C14       51.1400   37.3430   21.2800 C.2   799  2MD799      0.1511
     14  N15       50.3720   36.8820   22.4270 N.2   799  2MD799     -0.3823
     15  C16       51.0390   36.3800   23.4950 C.2   799  2MD799      0.2990
     16  C15       50.3140   35.6030   24.4580 C.1   799  2MD799      0.2569
     17  O14       48.9730   35.3300   24.2470 O.2   799  2MD799     -0.2052
     18  N17       50.9290   35.1020   25.5510 N.2   799  2MD799     -0.2466
     19  C17       52.2750   35.2910   25.7150 C.1   799  2MD799      0.2609
     20  N16       52.8970   34.8710   26.8350 N.pl3 799  2MD799     -0.0220
     21  N18       53.0320   35.8970   24.7570 N.2   799  2MD799     -0.2671
     22  C20       52.4910   36.4840   23.6700 C.1   799  2MD799      0.1423
     23  N8        53.3040   37.0590   22.7490 N.2   799  2MD799     -0.1710
     24  C7        52.6520   37.6810   21.5770 C.3   799  2MD799      0.2800
     25  PA        53.5430   45.4900   21.6000 P.3   799  2MD799      0.2189
     26  O1A       53.8260   44.5610   22.7350 O.3   799  2MD799     -0.4371
     27  O2A       52.3400   46.3960   21.6640 O.2   799  2MD799     -0.5170
     28  O5'       54.8140   46.5020   21.3460 O.3   799  2MD799     -0.3112
     29  C5'       54.9280   47.4040   20.2180 C.3   799  2MD799      0.1813
     30  C4'       55.9920   48.4880   20.4190 C.3   799  2MD799      0.1799
     31  O4'       55.9440   49.3390   19.2680 O.3   799  2MD799     -0.3326
     32  C1'       56.1080   50.7140   19.6410 C.3   799  2MD799      0.2293
     33  N9        55.5480   51.6690   18.6670 N.pl3 799  2MD799     -0.2354
     34  C4        56.2230   52.5930   17.8430 C.2   799  2MD799      0.2300
     35  N3        57.5990   52.7160   17.6840 N.2   799  2MD799     -0.3074
     36  C2        57.9600   53.7230   16.8460 C.1   799  2MD799      0.2531
     37  N2        59.1870   54.2860   16.9010 N.pl3 799  2MD799     -0.0226
     38  N1        57.0410   54.3500   16.0030 N.2   799  2MD799     -0.2485
     39  C6        55.6260   54.2430   16.1060 C.1   799  2MD799      0.2372
     40  O6        54.9230   54.9400   15.3430 O.2   799  2MD799     -0.2069
     41  C5        55.2210   53.2940   17.1500 C.2   799  2MD799      0.2182
     42  N7        53.9720   52.6550   17.3550 N.2   799  2MD799     -0.2322
     43  C8        54.2160   51.7540   18.2810 C.3   799  2MD799      0.2246
     44  C2'       55.3700   50.7740   20.9470 C.3   799  2MD799      0.2310
     45  O2'       55.8140   51.9110   21.7200 O.3   799  2MD799     -0.2158
     46  C3'       55.6740   49.3900   21.6000 C.3   799  2MD799      0.2158
     47  O3'       56.7620   49.3790   22.5180 O.3   799  2MD799     -0.2175
@<TRIPOS>BOND
     1    40    39    2
     2    38    39    2
     3    38    36    2
     4    39    41    1
     5    36    37    1
     6    36    35    2
     7    41    42    2
     8    41    34    1
     9    42    43    1
    10    35    34    2
    11    34    33    1
    12    43    33    1
    13    10     9    1
    14     4     1    2
    15    33    32    1
    16    31    32    1
    17    31    30    1
    18    12    11    1
    19     9    11    1
    20     9     7    1
    21    32    44    1
    22    11    13    1
    23     1     3    1
    24     1     2    1
    25     1     5    1
    26    29    30    1
    27    29    28    1
    28     2    25    1
    29    30    46    1
    30     7     6    1
    31     7     8    1
    32     6     5    1
    33    44    46    1
    34    44    45    1
    35    13    24    1
    36    13    14    2
    37    28    25    1
    38    24     8    1
    39    24    23    1
    40    25    27    2
    41    25    26    1
    42    46    47    1
    43    14    15    2
    44    23    22    2
    45    15    22    1
    46    15    16    1
    47    22    21    2
    48    17    16    2
    49    16    18    2
    50    21    19    2
    51    18    19    2
    52    19    20    1
