@<TRIPOS>MOLECULE
1tmt_III_I_1.pdb
 30 31 0 0 0
SMALL
GASTEIGER

@<TRIPOS>ATOM
      1  N         86.0290   43.3460   43.8130 N.3     1  DPN1       -0.1228
      2  CA        86.9080   42.2240   44.1260 C.3     1  DPN1        0.1721
      3  C         86.4570   40.9620   43.3720 C.2     1  DPN1        0.2437
      4  O         86.3780   41.0130   42.1420 O.2     1  DPN1       -0.2733
      5  CB        88.3770   42.6110   43.8580 C.3     1  DPN1        0.0547
      6  CG        89.3160   41.6220   44.4560 C.ar    1  DPN1       -0.0202
      7  CD1       89.3950   41.4560   45.8370 C.ar    1  DPN1       -0.0042
      8  CD2       90.1140   40.8540   43.6080 C.ar    1  DPN1       -0.0042
      9  CE1       90.2910   40.5100   46.3320 C.ar    1  DPN1       -0.0003
     10  CE2       91.0060   39.8950   44.0780 C.ar    1  DPN1       -0.0003
     11  CZ        91.0780   39.7530   45.4600 C.ar    1  DPN1       -0.0000
     12  N         86.1520   39.8180   44.0750 N.am    2  PRO2       -0.2718
     13  CA        85.7000   38.6200   43.3570 C.3     2  PRO2        0.1535
     14  C         84.3600   38.8310   42.6600 C.2     2  PRO2        0.2599
     15  O         83.5850   39.6840   43.0620 O.2     2  PRO2       -0.2715
     16  CB        85.5410   37.4890   44.3710 C.3     2  PRO2        0.0310
     17  CG        86.3290   37.9250   45.5820 C.3     2  PRO2        0.0237
     18  CD        86.4310   39.4470   45.4960 C.3     2  PRO2        0.0939
     19  N         84.0960   38.0600   41.5980 N.am    3  ARG3       -0.1942
     20  CA        82.8570   38.1970   40.8760 C.3     3  ARG3        0.1979
     21  C         82.0160   36.9610   41.0190 C.2     3  ARG3        0.3842
     22  O         82.3790   36.1460   41.9160 O.co2   3  ARG3       -0.2437
     23  CB        83.0640   38.6130   39.4140 C.3     3  ARG3        0.0370
     24  CG        83.3630   40.1080   39.2410 C.3     3  ARG3        0.0493
     25  CD        83.9920   40.5110   37.9080 C.3     3  ARG3        0.2205
     26  NE        84.0330   41.9660   37.8010 N.pl3   3  ARG3       -0.0865
     27  CZ        84.2090   42.7160   36.7020 C.cat   3  ARG3        0.5346
     28  NH1       84.4050   42.1500   35.5310 N.pl3   3  ARG3        0.1354
     29  NH2       84.1900   44.0460   36.7310 N.pl3   3  ARG3        0.1354
     30  OXT       81.0830   36.9050   40.2000 O.co2   3  ARG3       -0.2437
@<TRIPOS>BOND
     1    28    27    1
     2    27    29    1
     3    27    26    2
     4    26    25    1
     5    25    24    1
     6    24    23    1
     7    23    20    1
     8    30    21   ar
     9    20    21    1
    10    20    19    1
    11    21    22   ar
    12    19    14   am
    13     4     3    2
    14    14    15    2
    15    14    13    1
    16    13    12    1
    17    13    16    1
    18     3    12   am
    19     3     2    1
    20     8    10   ar
    21     8     6   ar
    22     1     2    1
    23     5     2    1
    24     5     6    1
    25    12    18    1
    26    10    11   ar
    27    16    17    1
    28     6     7   ar
    29    11     9   ar
    30    18    17    1
    31     7     9   ar
