@<TRIPOS>MOLECULE
1tmu_0G6_H_1.pdb
 30 31 0 0 0
SMALL
GASTEIGER

@<TRIPOS>ATOM
      1  N         86.1870   43.3430   43.7230 N.3     1  0G61       -0.1227
      2  CA        86.9380   42.2740   44.3510 C.3     1  0G61        0.1725
      3  C         86.6370   40.9920   43.6260 C.2     1  0G61        0.2475
      4  O         86.5740   41.0270   42.4150 O.2     1  0G61       -0.2730
      5  CB        88.3940   42.6320   44.0270 C.3     1  0G61        0.0547
      6  CG        89.4420   41.6770   44.5940 C.ar    1  0G61       -0.0202
      7  CD1       89.5080   41.4410   45.9740 C.ar    1  0G61       -0.0042
      8  CD2       90.3970   41.0770   43.7370 C.ar    1  0G61       -0.0042
      9  CE1       90.4870   40.5800   46.4730 C.ar    1  0G61       -0.0003
     10  CE2       91.3750   40.2250   44.2380 C.ar    1  0G61       -0.0003
     11  CZ        91.4150   39.9750   45.6080 C.ar    1  0G61       -0.0000
     12  N1        86.4540   39.8580   44.2560 N.am    1  0G61       -0.2492
     13  CA1       86.2040   38.6970   43.4760 C.3     1  0G61        0.1619
     14  C1        84.8610   38.7470   42.8080 C.2     1  0G61        0.2601
     15  O1        83.9040   39.2190   43.3940 O.2     1  0G61       -0.2715
     16  CB1       86.1490   37.5740   44.4950 C.3     1  0G61        0.0570
     17  CG1       86.1460   38.2230   45.8840 C.2     1  0G61       -0.0077
     18  CD        86.4700   39.6900   45.7180 C.2     1  0G61        0.0634
     19  N2        84.7960   38.2190   41.5760 N.am    1  0G61       -0.2032
     20  CA2       83.5500   38.1410   40.8400 C.3     1  0G61        0.1257
     21  C2        83.1510   36.6490   40.8180 C.3     1  0G61        0.1718
     22  O2        81.7460   36.6460   40.5840 O.3     1  0G61       -0.2213
     23  CB2       83.6330   38.7300   39.4130 C.3     1  0G61        0.0280
     24  CG2       84.5920   39.9190   39.4180 C.3     1  0G61        0.0488
     25  CD3       83.9270   41.1970   38.9130 C.3     1  0G61        0.2205
     26  NE        84.3410   41.6160   37.5900 N.pl3   1  0G61       -0.0865
     27  CZ1       84.5290   42.6560   36.7650 C.cat   1  0G61        0.5346
     28  NH1       84.3140   43.8930   37.1900 N.pl3   1  0G61        0.1354
     29  NH2       84.9490   42.3780   35.5230 N.pl3   1  0G61        0.1354
     30  C3        83.4360   36.0110   42.2140 C.3     1  0G61        0.0373
@<TRIPOS>BOND
     1    29    27    1
     2    27    28    1
     3    27    26    2
     4    26    25    1
     5    25    24    1
     6    23    24    1
     7    23    20    1
     8    22    21    1
     9    21    20    1
    10    21    30    1
    11    20    19    1
    12    19    14   am
    13     4     3    2
    14    14    15    2
    15    14    13    1
    16    13    12    1
    17    13    16    1
    18     3    12   am
    19     3     2    1
    20     1     2    1
    21     8    10   ar
    22     8     6   ar
    23     5     2    1
    24     5     6    1
    25    10    11   ar
    26    12    18    1
    27    16    17    1
    28     6     7   ar
    29    11     9   ar
    30    18    17    2
    31     7     9   ar
