@<TRIPOS>MOLECULE
1tn0_RET_A_1.pdb
 20 20 0 0 0
SMALL
GASTEIGER

@<TRIPOS>ATOM
      1  C1        41.3300   54.8490    2.2450 C.3   301  RET301      0.0183
      2  C2        42.1810   56.0590    1.7320 C.3   301  RET301      0.0044
      3  C3        42.7710   55.9950    0.3640 C.3   301  RET301      0.0047
      4  C4        43.2920   54.6170   -0.0890 C.3   301  RET301      0.0217
      5  C5        42.4830   53.3650    0.3870 C.2   301  RET301     -0.0479
      6  C6        41.5700   53.4700    1.4660 C.2   301  RET301     -0.0307
      7  C7        40.8670   52.1920    1.7790 C.2   301  RET301     -0.0052
      8  C8        39.9300   51.8590    2.7150 C.2   301  RET301     -0.0049
      9  C9        39.2810   50.5770    2.9130 C.2   301  RET301     -0.0258
     10  C10       38.3960   50.6110    3.9610 C.2   301  RET301     -0.0257
     11  C11       37.6240   49.4210    4.3320 C.3   301  RET301      0.0510
     12  C12       36.8220   49.6400    5.4000 C.2   301  RET301     -0.0299
     13  C13       35.9390   48.6340    5.9960 C.2   301  RET301     -0.0478
     14  C14       35.2870   49.1960    7.0670 C.3   301  RET301      0.0217
     15  C15       34.3510   48.5350    7.9050 C.3   301  RET301      0.0047
     16  C16       41.6900   54.7150    3.7670 C.3   301  RET301      0.0043
     17  C17       39.8390   55.3910    2.0830 C.3   301  RET301      0.0043
     18  C18       42.8700   52.1930   -0.4750 C.3   301  RET301      0.0260
     19  C19       39.5760   49.3690    2.0400 C.3   301  RET301      0.0307
     20  C20       35.8060   47.2200    5.4850 C.3   301  RET301      0.0260
@<TRIPOS>BOND
     1    18     5    1
     2     4     3    1
     3     4     5    1
     4     3     2    1
     5     5     6    2
     6     6     7    1
     7     6     1    1
     8     2     1    1
     9     7     8    2
    10    19     9    1
    11    17     1    1
    12     1    16    1
    13     8     9    1
    14     9    10    2
    15    10    11    1
    16    11    12    1
    17    12    13    2
    18    20    13    1
    19    13    14    1
    20    14    15    1
