@<TRIPOS>MOLECULE
1tn5_RET_A_1.pdb
 20 20 0 0 0
SMALL
GASTEIGER

@<TRIPOS>ATOM
      1  C1        40.6960   54.8470    1.9730 C.3   301  RET301      0.0183
      2  C2        41.4990   56.0860    1.4780 C.3   301  RET301      0.0044
      3  C3        42.0170   56.0810    0.0820 C.3   301  RET301      0.0047
      4  C4        42.6090   54.7520   -0.3930 C.3   301  RET301      0.0217
      5  C5        41.8530   53.4670    0.0370 C.2   301  RET301     -0.0479
      6  C6        40.9540   53.4970    1.1310 C.2   301  RET301     -0.0307
      7  C7        40.2960   52.1710    1.4170 C.2   301  RET301     -0.0052
      8  C8        39.3810   51.7730    2.3580 C.2   301  RET301     -0.0049
      9  C9        38.7820   50.4580    2.5470 C.2   301  RET301     -0.0258
     10  C10       37.9050   50.4640    3.6020 C.2   301  RET301     -0.0257
     11  C11       37.1440   49.2760    4.0220 C.3   301  RET301      0.0510
     12  C12       36.3480   49.5520    5.0990 C.2   301  RET301     -0.0299
     13  C13       35.4720   48.5900    5.7590 C.2   301  RET301     -0.0478
     14  C14       34.8240   49.1960    6.8090 C.3   301  RET301      0.0217
     15  C15       33.8850   48.5460    7.6890 C.3   301  RET301      0.0047
     16  C16       41.0860   54.6670    3.4890 C.3   301  RET301      0.0043
     17  C17       39.2030   55.3780    1.8630 C.3   301  RET301      0.0043
     18  C18       42.2570   52.3510   -0.8890 C.3   301  RET301      0.0260
     19  C19       39.1070   49.2670    1.6630 C.3   301  RET301      0.0307
     20  C20       35.3350   47.1560    5.3230 C.3   301  RET301      0.0260
@<TRIPOS>BOND
     1    18     5    1
     2     4     5    1
     3     4     3    1
     4     5     6    2
     5     3     2    1
     6     6     7    1
     7     6     1    1
     8     7     8    2
     9     2     1    1
    10    19     9    1
    11    17     1    1
    12     1    16    1
    13     8     9    1
    14     9    10    2
    15    10    11    1
    16    11    12    1
    17    12    13    2
    18    20    13    1
    19    13    14    1
    20    14    15    1
