@<TRIPOS>MOLECULE
1tn6_FII_B_1.pdb
 24 23 0 0 0
SMALL
GASTEIGER

@<TRIPOS>ATOM
      1  C1        14.4690  129.1280   -6.2220 C.3     1  FII1        0.0260
      2  C2        14.3560  127.8260   -5.4580 C.2     1  FII1       -0.0478
      3  C6        13.0690  127.1060   -5.7360 C.3     1  FII1        0.0260
      4  C10       15.2790  127.3080   -4.6130 C.2     1  FII1       -0.0342
      5  C11       16.6030  127.9100   -4.2390 C.3     1  FII1        0.0297
      6  C12       16.8180  127.8850   -2.7310 C.3     1  FII1        0.0263
      7  C15       18.1680  128.4140   -2.2590 C.2     1  FII1       -0.0478
      8  C18       18.2140  128.5980   -0.7490 C.3     1  FII1        0.0260
      9  C22       19.2340  128.6980   -3.0840 C.2     1  FII1       -0.0342
     10  C23       20.5630  129.2200   -2.5900 C.3     1  FII1        0.0297
     11  C24       21.4680  129.6960   -3.6980 C.3     1  FII1        0.0264
     12  C27       22.8330  130.1160   -3.1940 C.2     1  FII1       -0.0453
     13  C30       23.7230  128.9860   -2.7690 C.3     1  FII1        0.0261
     14  C34       23.2280  131.4110   -3.1530 C.2     1  FII1       -0.0002
     15  C35       24.5940  131.8710   -2.6500 C.3     1  FII1        0.1990
     16  O36       24.4530  132.8690   -1.6630 O.3     1  FII1       -0.2391
     17  N42       23.9160  132.3180   -0.4840 N.am    1  FII1       -0.0618
     18  C43       24.7080  132.0250    0.5670 C.2     1  FII1        0.2747
     19  O44       25.9330  132.1080    0.5820 O.2     1  FII1       -0.2705
     20  C45       23.9170  131.5400    1.7780 C.3     1  FII1        0.1477
     21  P46       24.8200  130.3030    2.7710 P.3     1  FII1        0.1265
     22  O49       23.8900  129.8020    3.7680 O.3     1  FII1       -0.3568
     23  O50       25.9310  130.8980    3.4750 O.3     1  FII1       -0.3568
     24  O51       25.3100  129.2460    1.8700 O.2     1  FII1       -0.4596
@<TRIPOS>BOND
     1     1     2    1
     2     3     2    1
     3     2     4    2
     4     4     5    1
     5     5     6    1
     6    11    12    1
     7    11    10    1
     8    12    14    2
     9    12    13    1
    10    14    15    1
    11     9    10    1
    12     9     7    2
    13     6     7    1
    14    15    16    1
    15     7     8    1
    16    16    17    1
    17    17    18   am
    18    18    19    2
    19    18    20    1
    20    20    21    1
    21    24    21    2
    22    21    23    1
    23    21    22    1
