@<TRIPOS>MOLECULE
1tn7_FII_B_1.pdb
 24 23 0 0 0
SMALL
GASTEIGER

@<TRIPOS>ATOM
      1  C1        97.3950   26.3160   34.4830 C.3     1  FII1        0.0260
      2  C2        97.5350   27.4950   33.5320 C.2     1  FII1       -0.0478
      3  C6        96.2270   28.1910   33.2590 C.3     1  FII1        0.0260
      4  C10       98.6820   27.9330   32.9510 C.2     1  FII1       -0.0342
      5  C11      100.0600   27.3690   33.1060 C.3     1  FII1        0.0297
      6  C12      100.7390   27.1860   31.7440 C.3     1  FII1        0.0263
      7  C15      102.1950   26.7100   31.8000 C.2     1  FII1       -0.0478
      8  C18      102.7370   26.3210   30.4230 C.3     1  FII1        0.0260
      9  C22      102.9540   26.6340   32.9490 C.2     1  FII1       -0.0342
     10  C23      104.3980   26.1610   33.0020 C.3     1  FII1        0.0297
     11  C24      104.9270   26.0510   34.4160 C.3     1  FII1        0.0264
     12  C27      106.3670   25.5960   34.4600 C.2     1  FII1       -0.0453
     13  C30      107.3790   26.6680   34.1750 C.3     1  FII1        0.0261
     14  C34      106.7100   24.3170   34.7280 C.2     1  FII1       -0.0002
     15  C35      108.1440   23.8060   34.7850 C.3     1  FII1        0.1990
     16  O36      108.3040   22.7030   33.9030 O.3     1  FII1       -0.2391
     17  N42      108.2550   23.1300   32.5640 N.am    1  FII1       -0.0618
     18  C43      109.3390   23.0490   31.7760 C.2     1  FII1        0.2747
     19  O44      110.5010   22.9010   32.1580 O.2     1  FII1       -0.2705
     20  C45      108.9830   23.1620   30.3070 C.3     1  FII1        0.1477
     21  P46      110.1080   24.2730   29.4230 P.3     1  FII1        0.1265
     22  O49      109.5040   24.5350   28.1150 O.2     1  FII1       -0.4596
     23  O50      111.4000   23.6410   29.2270 O.3     1  FII1       -0.3568
     24  O51      110.2820   25.4990   30.2090 O.3     1  FII1       -0.3568
@<TRIPOS>BOND
     1    22    21    2
     2    23    21    1
     3    21    24    1
     4    21    20    1
     5    20    18    1
     6     8     7    1
     7     6     7    1
     8     6     5    1
     9    18    19    2
    10    18    17   am
    11     7     9    2
    12    17    16    1
    13     9    10    1
    14     4     5    1
    15     4     2    2
    16    10    11    1
    17     3     2    1
    18     2     1    1
    19    16    15    1
    20    13    12    1
    21    11    12    1
    22    12    14    2
    23    14    15    1
