@<TRIPOS>MOLECULE
1tn7_III_C_1.pdb
 45 45 0 0 0
SMALL
GASTEIGER

@<TRIPOS>ATOM
      1  N        108.8550   13.2910   29.4000 N.3   2004  THR2004    -0.1203
      2  CA       108.7710   13.8060   28.0000 C.3   2004  THR2004     0.1994
      3  C        107.5280   14.6660   27.7430 C.2   2004  THR2004     0.2618
      4  O        107.3870   15.2370   26.6570 O.2   2004  THR2004    -0.2717
      5  CB       108.7650   12.6480   26.9740 C.3   2004  THR2004     0.1784
      6  OG1      107.6960   11.7420   27.2830 O.3   2004  THR2004    -0.2211
      7  CG2      110.0980   11.9040   26.9870 C.3   2004  THR2004     0.0376
      8  N        106.6360   14.7520   28.7320 N.am  2005  LYS2005    -0.1965
      9  CA       105.4060   15.5410   28.6140 C.3   2005  LYS2005     0.1728
     10  C        105.4630   16.8370   29.4360 C.2   2005  LYS2005     0.2616
     11  O        106.2840   16.9670   30.3460 O.2   2005  LYS2005    -0.2715
     12  CB       104.2090   14.7010   29.0460 C.3   2005  LYS2005     0.0334
     13  N        104.5910   17.7910   29.1060 N.am  2006  CYS2006    -0.1954
     14  CA       104.5350   19.0750   29.8160 C.3   2006  CYS2006     0.1843
     15  C        103.6570   18.9990   31.0580 C.2   2006  CYS2006     0.2625
     16  O        102.5160   18.5550   30.9880 O.2   2006  CYS2006    -0.2714
     17  CB       103.9790   20.1910   28.9130 C.3   2006  CYS2006     0.0997
     18  SG       105.0740   20.8320   27.6320 S.3   2006  CYS2006    -0.0797
     19  N        104.1930   19.4460   32.1880 N.am  2007  VAL2007    -0.1963
     20  CA       103.4500   19.4530   33.4440 C.3   2007  VAL2007     0.1727
     21  C        103.1290   20.8990   33.8200 C.2   2007  VAL2007     0.2616
     22  O        104.0350   21.7270   33.9510 O.2   2007  VAL2007    -0.2715
     23  CB       104.2710   18.8080   34.5820 C.3   2007  VAL2007     0.0290
     24  CG1      103.5120   18.9100   35.8960 C.3   2007  VAL2007     0.0023
     25  CG2      104.5580   17.3480   34.2490 C.3   2007  VAL2007     0.0023
     26  N        101.8440   21.2060   33.9910 N.am  2008  ILE2008    -0.1963
     27  CA       101.4530   22.5670   34.3380 C.3   2008  ILE2008     0.1727
     28  C        100.5540   22.6770   35.5690 C.2   2008  ILE2008     0.2617
     29  O         99.9860   23.7430   35.8360 O.2   2008  ILE2008    -0.2715
     30  CB       100.7720   23.2800   33.1370 C.3   2008  ILE2008     0.0290
     31  CG1       99.4420   22.6100   32.8000 C.3   2008  ILE2008     0.0022
     32  CG2      101.6880   23.2310   31.9230 C.3   2008  ILE2008     0.0023
     33  CD1       98.6100   23.3970   31.8220 C.3   2008  ILE2008     0.0001
     34  N        100.4240   21.5740   36.3080 N.am  2009  PHE2009    -0.1938
     35  CA        99.6350   21.5270   37.5430 C.3   2009  PHE2009     0.2021
     36  C         99.7190   20.1540   38.2040 C.2   2009  PHE2009     0.3845
     37  O        100.3870   19.2680   37.6280 O.co2 2009  PHE2009    -0.2437
     38  CB        98.1590   21.9000   37.2950 C.3   2009  PHE2009     0.0596
     39  CG        97.5360   21.1840   36.1360 C.ar  2009  PHE2009    -0.0199
     40  CD1       97.4100   19.7950   36.1380 C.ar  2009  PHE2009    -0.0042
     41  CD2       97.1090   21.8960   35.0190 C.ar  2009  PHE2009    -0.0042
     42  CE1       96.8690   19.1250   35.0350 C.ar  2009  PHE2009    -0.0003
     43  CE2       96.5660   21.2360   33.9130 C.ar  2009  PHE2009    -0.0003
     44  CZ        96.4480   19.8500   33.9200 C.ar  2009  PHE2009    -0.0000
     45  OXT       99.1210   19.9810   39.2890 O.co2 2009  PHE2009    -0.2437
@<TRIPOS>BOND
     1     4     3    2
     2     5     7    1
     3     5     6    1
     4     5     2    1
     5    18    17    1
     6     3     2    1
     7     3     8   am
     8     2     1    1
     9     9     8    1
    10     9    12    1
    11     9    10    1
    12    17    14    1
    13    13    10   am
    14    13    14    1
    15    10    11    2
    16    14    15    1
    17    16    15    2
    18    15    19   am
    19    33    31    1
    20    32    30    1
    21    19    20    1
    22    31    30    1
    23    30    27    1
    24    20    21    1
    25    20    23    1
    26    21    22    2
    27    21    26   am
    28    43    44   ar
    29    43    41   ar
    30    44    42   ar
    31    26    27    1
    32    25    23    1
    33    27    28    1
    34    23    24    1
    35    41    39   ar
    36    42    40   ar
    37    28    29    2
    38    28    34   am
    39    39    40   ar
    40    39    38    1
    41    34    35    1
    42    38    35    1
    43    35    36    1
    44    37    36   ar
    45    36    45   ar
