@<TRIPOS>MOLECULE
1tn8_III_C_1.pdb
 32 31 0 0 0
SMALL
GASTEIGER

@<TRIPOS>ATOM
      1  N        105.0600   14.7900   29.2550 N.3   2005  GLY2005    -0.1210
      2  CA       105.2900   16.0810   28.5420 C.3   2005  GLY2005     0.1956
      3  C        105.3110   17.2760   29.4770 C.2   2005  GLY2005     0.2612
      4  O        106.1690   17.3670   30.3590 O.2   2005  GLY2005    -0.2717
      5  N        104.3670   18.1960   29.2790 N.am  2006  CYS2006    -0.1956
      6  CA       104.2590   19.3960   30.1110 C.3   2006  CYS2006     0.1843
      7  C        103.1910   19.1920   31.1870 C.2   2006  CYS2006     0.2625
      8  O        102.2900   18.3640   31.0280 O.2   2006  CYS2006    -0.2714
      9  CB       103.8790   20.6170   29.2570 C.3   2006  CYS2006     0.0997
     10  SG       104.9950   21.0020   27.8960 S.3   2006  CYS2006    -0.0797
     11  N        103.2960   19.9510   32.2760 N.am  2007  VAL2007    -0.1963
     12  CA       102.3370   19.8650   33.3750 C.3   2007  VAL2007     0.1727
     13  C        101.7930   21.2580   33.7150 C.2   2007  VAL2007     0.2616
     14  O        102.5290   22.2510   33.6750 O.2   2007  VAL2007    -0.2715
     15  CB       102.9860   19.2450   34.6460 C.3   2007  VAL2007     0.0290
     16  CG1      101.9730   19.1890   35.7760 C.3   2007  VAL2007     0.0023
     17  CG2      103.5050   17.8440   34.3410 C.3   2007  VAL2007     0.0023
     18  N        100.5010   21.3140   34.0400 N.am  2008  LEU2008    -0.1963
     19  CA        99.8270   22.5640   34.3880 C.3   2008  LEU2008     0.1728
     20  C         99.3890   22.5940   35.8460 C.2   2008  LEU2008     0.2617
     21  O         99.2810   23.6680   36.4380 O.2   2008  LEU2008    -0.2715
     22  CB        98.5850   22.7760   33.5150 C.3   2008  LEU2008     0.0311
     23  CG        98.7820   22.8270   32.0060 C.3   2008  LEU2008     0.0022
     24  CD1       97.5250   23.4090   31.3560 C.3   2008  LEU2008     0.0001
     25  CD2      100.0030   23.6790   31.6800 C.3   2008  LEU2008     0.0001
     26  N         99.1150   21.4170   36.4070 N.am  2009  SER2009    -0.1914
     27  CA        98.6790   21.2990   37.7990 C.3   2009  SER2009     0.2304
     28  C         99.0590   19.9440   38.4020 C.2   2009  SER2009     0.3869
     29  O         99.6310   19.1110   37.6670 O.co2 2009  SER2009    -0.2437
     30  CB        97.1580   21.5130   37.9010 C.3   2009  SER2009     0.2152
     31  OG        96.4450   20.6750   37.0070 O.3   2009  SER2009    -0.2179
     32  OXT       98.7840   19.7330   39.6030 O.co2 2009  SER2009    -0.2437
@<TRIPOS>BOND
     1    10     9    1
     2     2     1    1
     3     2     3    1
     4     9     6    1
     5     5     3   am
     6     5     6    1
     7     3     4    2
     8     6     7    1
     9     8     7    2
    10     7    11   am
    11    24    23    1
    12    25    23    1
    13    23    22    1
    14    11    12    1
    15    12    13    1
    16    12    15    1
    17    22    19    1
    18    14    13    2
    19    13    18   am
    20    18    19    1
    21    17    15    1
    22    19    20    1
    23    15    16    1
    24    20    26   am
    25    20    21    2
    26    26    27    1
    27    31    30    1
    28    29    28   ar
    29    27    30    1
    30    27    28    1
    31    28    32   ar
