@<TRIPOS>MOLECULE
1tn8_FII_B_1.pdb
 24 23 0 0 0
SMALL
GASTEIGER

@<TRIPOS>ATOM
      1  C1        97.3320   26.5690   34.4760 C.3     1  FII1        0.0260
      2  C2        97.5360   27.6820   33.4690 C.2     1  FII1       -0.0478
      3  C6        96.2690   28.4380   33.1710 C.3     1  FII1        0.0260
      4  C10       98.7110   28.0130   32.8650 C.2     1  FII1       -0.0342
      5  C11      100.0480   27.3630   33.0530 C.3     1  FII1        0.0297
      6  C12      100.7810   27.2790   31.7270 C.3     1  FII1        0.0263
      7  C15      102.2150   26.6510   31.8940 C.2     1  FII1       -0.0478
      8  C18      102.7710   26.1040   30.5850 C.3     1  FII1        0.0260
      9  C22      102.9210   26.5820   33.0560 C.2     1  FII1       -0.0342
     10  C23      104.3040   25.9510   33.1020 C.3     1  FII1        0.0297
     11  C24      104.8680   25.7900   34.4890 C.3     1  FII1        0.0264
     12  C27      106.3120   25.3310   34.4530 C.2     1  FII1       -0.0453
     13  C30      107.3070   26.3460   33.9380 C.3     1  FII1        0.0261
     14  C34      106.7040   24.1190   34.8440 C.2     1  FII1       -0.0002
     15  C35      108.1500   23.6940   34.7950 C.3     1  FII1        0.1990
     16  O36      108.3110   22.6380   33.8770 O.3     1  FII1       -0.2391
     17  N42      108.2660   23.1280   32.5640 N.am    1  FII1       -0.0618
     18  C43      109.3110   22.9550   31.7460 C.2     1  FII1        0.2747
     19  O44      110.4480   22.6590   32.0930 O.2     1  FII1       -0.2705
     20  C45      108.9420   23.1570   30.2910 C.3     1  FII1        0.1477
     21  P46      110.0910   24.2750   29.4680 P.3     1  FII1        0.1265
     22  O49      109.5430   24.5510   28.1560 O.2     1  FII1       -0.4596
     23  O50      111.3850   23.6510   29.3080 O.3     1  FII1       -0.3568
     24  O51      110.2310   25.4860   30.2730 O.3     1  FII1       -0.3568
@<TRIPOS>BOND
     1    22    21    2
     2    23    21    1
     3    21    24    1
     4    21    20    1
     5    20    18    1
     6     8     7    1
     7     6     7    1
     8     6     5    1
     9    18    19    2
    10    18    17   am
    11     7     9    2
    12    17    16    1
    13     4     5    1
    14     4     2    2
    15     9    10    1
    16    10    11    1
    17     3     2    1
    18     2     1    1
    19    16    15    1
    20    13    12    1
    21    12    11    1
    22    12    14    2
    23    15    14    1
