@<TRIPOS>MOLECULE
1tnb_MGM_B_1.pdb
 29 28 0 0 0
SMALL
GASTEIGER

@<TRIPOS>ATOM
      1  C20       35.1500   83.6840   65.6890 C.3   379  MGM379      0.0260
      2  C19       35.5810   85.0250   67.7820 C.3   379  MGM379      0.0260
      3  C18       35.6900   84.9520   66.2770 C.2   379  MGM379     -0.0478
      4  C17       36.1870   85.9250   65.5080 C.2   379  MGM379     -0.0342
      5  C16       36.7350   87.2370   65.9950 C.3   379  MGM379      0.0297
      6  C14       35.4510   88.1680   62.9670 C.3   379  MGM379      0.0260
      7  C13       35.9090   88.8030   64.2660 C.2   379  MGM379     -0.0478
      8  C15       37.1370   88.1240   64.8560 C.3   379  MGM379      0.0263
      9  C12       35.2820   89.8760   64.8660 C.2   379  MGM379     -0.0342
     10  C11       34.0430   90.5830   64.3330 C.3   379  MGM379      0.0297
     11  C9        33.5980   91.7580   65.2090 C.3   379  MGM379      0.0263
     12  C8        32.3490   92.4770   64.7340 C.2   379  MGM379     -0.0478
     13  C10       31.2550   92.4440   65.7750 C.3   379  MGM379      0.0260
     14  C7        32.2160   93.0900   63.5040 C.2   379  MGM379     -0.0328
     15  C6        30.9590   93.8200   63.0060 C.3   379  MGM379      0.0468
     16  C5        29.9520   92.8800   62.2970 C.3   379  MGM379      0.0956
     17  N3        28.9080   93.5130   61.4490 N.pl3 379  MGM379     -0.3020
     18  C4        27.5680   93.0120   61.7510 C.3   379  MGM379      0.1123
     19  C2        29.2250   94.5200   60.4000 C.2   379  MGM379      0.1024
     20  C1        28.3020   95.2700   59.4150 C.2   379  MGM379      0.1943
     21  O1        26.8910   95.0870   59.6230 O.2   379  MGM379     -0.4352
     22  PA        26.1010   96.1450   60.5420 P.3   379  MGM379      0.2780
     23  O1A       26.2130   97.5710   60.0630 O.2   379  MGM379     -0.5080
     24  O3A       26.7150   95.8800   61.9930 O.3   379  MGM379     -0.2160
     25  O2A       24.6240   95.6630   60.5790 O.3   379  MGM379     -0.4271
     26  PB        26.4800   96.4710   63.4100 P.3   379  MGM379      0.5380
     27  O1B       25.4300   97.5340   63.4460 O.2   379  MGM379     -0.2221
     28  O2B       27.8670   96.9620   63.8280 O.3   379  MGM379     -0.1143
     29  O3B       26.0980   95.2360   64.2550 O.3   379  MGM379     -0.1143
@<TRIPOS>BOND
     1    20    21    1
     2    20    19    2
     3    21    22    1
     4    23    22    2
     5    19    17    1
     6    22    25    1
     7    22    24    1
     8    17    18    1
     9    17    16    1
    10    24    26    1
    11    16    15    1
    12     6     7    1
    13    15    14    1
    14    26    27    2
    15    26    28    1
    16    26    29    1
    17    14    12    2
    18     7     8    1
    19     7     9    2
    20    10     9    1
    21    10    11    1
    22    12    11    1
    23    12    13    1
    24     8     5    1
    25     4     5    1
    26     4     3    2
    27     1     3    1
    28     3     2    1
