@<TRIPOS>MOLECULE
1tnb_III_M_1.pdb
 42 42 0 0 0
SMALL
GASTEIGER

@<TRIPOS>ATOM
      1  N         20.2360   89.2790   64.5480 N.3     6  LYS6       -0.1231
      2  CA        21.3850   88.4770   64.0180 C.3     6  LYS6        0.1693
      3  C         22.6320   89.3490   63.7370 C.2     6  LYS6        0.2592
      4  O         22.5210   90.5190   63.3540 O.2     6  LYS6       -0.2718
      5  CB        20.9450   87.7560   62.7420 C.3     6  LYS6        0.0285
      6  CG        21.7490   86.5210   62.3770 C.3     6  LYS6        0.0035
      7  CD        21.0130   85.7130   61.2970 C.3     6  LYS6        0.0206
      8  CE        21.6940   84.3710   60.9800 C.3     6  LYS6        0.1093
      9  NZ        23.0310   84.4890   60.2910 N.3     6  LYS6       -0.1314
     10  N         23.8160   88.7740   63.9450 N.am    7  CYS7       -0.1956
     11  CA        25.0820   89.4710   63.7190 C.3     7  CYS7        0.1843
     12  C         26.0000   88.6190   62.8640 C.2     7  CYS7        0.2625
     13  O         26.7240   87.7720   63.3830 O.2     7  CYS7       -0.2714
     14  CB        25.7880   89.7730   65.0470 C.3     7  CYS7        0.0997
     15  SG        25.0870   91.1490   65.9990 S.3     7  CYS7       -0.0797
     16  N         25.9670   88.8400   61.5540 N.am    8  VAL8       -0.1963
     17  CA        26.8090   88.0830   60.6310 C.3     8  VAL8        0.1727
     18  C         28.2130   88.6610   60.6350 C.2     8  VAL8        0.2616
     19  O         28.4200   89.7840   60.1910 O.2     8  VAL8       -0.2715
     20  CB        26.2470   88.1380   59.2010 C.3     8  VAL8        0.0290
     21  CG1       27.1550   87.3880   58.2460 C.3     8  VAL8        0.0023
     22  CG2       24.8650   87.5400   59.1850 C.3     8  VAL8        0.0023
     23  N         29.1720   87.8890   61.1330 N.am    9  ILE9       -0.1963
     24  CA        30.5480   88.3460   61.2100 C.3     9  ILE9        0.1727
     25  C         31.4810   87.6550   60.2200 C.2     9  ILE9        0.2617
     26  O         32.7040   87.7740   60.3320 O.2     9  ILE9       -0.2715
     27  CB        31.1030   88.1650   62.6330 C.3     9  ILE9        0.0290
     28  CG1       31.0150   86.6910   63.0450 C.3     9  ILE9        0.0022
     29  CG2       30.3370   89.0570   63.5970 C.3     9  ILE9        0.0023
     30  CD1       31.6330   86.3900   64.3930 C.3     9  ILE9        0.0001
     31  N         30.9060   86.9350   59.2560 N.am   10  PHE10      -0.1938
     32  CA        31.6860   86.2450   58.2170 C.3    10  PHE10       0.2021
     33  C         30.9490   86.2090   56.8860 C.2    10  PHE10       0.3845
     34  O         31.6210   86.3740   55.8450 O.co2  10  PHE10      -0.2437
     35  CB        32.0210   84.8210   58.6380 C.3    10  PHE10       0.0596
     36  CG        33.0300   84.7460   59.7330 C.ar   10  PHE10      -0.0199
     37  CD1       34.3180   85.2220   59.5350 C.ar   10  PHE10      -0.0042
     38  CD2       32.6920   84.2010   60.9710 C.ar   10  PHE10      -0.0042
     39  CE1       35.2530   85.1600   60.5530 C.ar   10  PHE10      -0.0003
     40  CE2       33.6190   84.1330   61.9960 C.ar   10  PHE10      -0.0003
     41  CZ        34.9010   84.6110   61.7890 C.ar   10  PHE10      -0.0000
     42  OXT       29.7160   86.0000   56.9060 O.co2  10  PHE10      -0.2437
@<TRIPOS>BOND
     1    34    33   ar
     2    33    42   ar
     3    33    32    1
     4    32    35    1
     5    32    31    1
     6    21    20    1
     7    35    36    1
     8    22    20    1
     9    20    17    1
    10    31    25   am
    11    37    36   ar
    12    37    39   ar
    13    36    38   ar
    14    19    18    2
    15    25    26    2
    16    25    24    1
    17     9     8    1
    18    39    41   ar
    19    17    18    1
    20    17    16    1
    21    18    23   am
    22    38    40   ar
    23     8     7    1
    24    23    24    1
    25    24    27    1
    26     7     6    1
    27    16    12   am
    28    41    40   ar
    29     6     5    1
    30    27    28    1
    31    27    29    1
    32     5     2    1
    33    12    13    2
    34    12    11    1
    35    28    30    1
    36     4     3    2
    37    11    10    1
    38    11    14    1
    39     3    10   am
    40     3     2    1
    41     2     1    1
    42    14    15    1
