@<TRIPOS>MOLECULE
1tnd_GSP_A_1.pdb
 32 34 0 0 0
SMALL
GASTEIGER

@<TRIPOS>ATOM
      1  PG         8.6930   86.4600   39.4820 P.3   351  GSP351      0.4340
      2  O3B        8.9120   86.2720   37.8790 O.3   351  GSP351     -0.2405
      3  S1G        7.2880   87.7070   39.6240 S.3   351  GSP351      0.0416
      4  O2G        8.3370   85.1860   40.0650 O.3   351  GSP351     -0.1305
      5  O3G       10.0630   86.9420   39.8700 O.2   351  GSP351     -0.2423
      6  PB        10.0460   85.5550   37.0200 P.3   351  GSP351      0.2262
      7  O1B       11.1990   86.4430   36.8260 O.2   351  GSP351     -0.5168
      8  O2B       10.2370   84.1750   37.4330 O.3   351  GSP351     -0.4369
      9  PA         8.5860   84.3030   34.6640 P.3   351  GSP351      0.2189
     10  O1A        9.5180   83.2100   34.3590 O.2   351  GSP351     -0.5170
     11  O2A        7.2890   84.0280   35.2950 O.3   351  GSP351     -0.4371
     12  O3A        9.4060   85.4030   35.5240 O.3   351  GSP351     -0.2701
     13  O5'        8.4890   85.2860   33.3460 O.3   351  GSP351     -0.3112
     14  C5'        7.3440   86.1720   33.1600 C.3   351  GSP351      0.1813
     15  C4'        6.5280   85.8060   31.8580 C.3   351  GSP351      0.1799
     16  O4'        7.4440   86.0610   30.8360 O.3   351  GSP351     -0.3326
     17  C3'        6.0480   84.3860   31.5760 C.3   351  GSP351      0.2158
     18  O3'        4.8000   84.4620   30.9730 O.3   351  GSP351     -0.2175
     19  C2'        7.0610   83.8570   30.6390 C.3   351  GSP351      0.2310
     20  O2'        6.7210   82.7820   29.7930 O.3   351  GSP351     -0.2158
     21  C1'        7.5090   85.0460   29.8670 C.3   351  GSP351      0.2293
     22  N9         8.9090   85.0090   29.4230 N.pl3 351  GSP351     -0.2354
     23  C8        10.0370   84.7010   30.1520 C.3   351  GSP351      0.2246
     24  N7        11.1500   84.7610   29.4840 N.2   351  GSP351     -0.2322
     25  C5        10.7590   85.1380   28.1870 C.2   351  GSP351      0.2182
     26  C6        11.5500   85.3800   26.9950 C.1   351  GSP351      0.2372
     27  O6        12.7720   85.2760   26.8240 O.2   351  GSP351     -0.2069
     28  N1        10.7490   85.7820   25.9060 N.2   351  GSP351     -0.2485
     29  C2         9.3710   85.9230   25.9470 C.1   351  GSP351      0.2531
     30  N2         8.8240   86.2940   24.8120 N.pl3 351  GSP351     -0.0226
     31  N3         8.6070   85.7090   27.0360 N.2   351  GSP351     -0.3074
     32  C4         9.3760   85.3090   28.1300 C.2   351  GSP351      0.2300
@<TRIPOS>BOND
     1    30    29    1
     2    28    29    2
     3    28    26    2
     4    29    31    2
     5    27    26    2
     6    26    25    1
     7    31    32    2
     8    32    25    1
     9    32    22    1
    10    25    24    2
    11    22    21    1
    12    22    23    1
    13    24    23    1
    14    20    19    1
    15    21    19    1
    16    21    16    1
    17    19    17    1
    18    16    15    1
    19    18    17    1
    20    17    15    1
    21    15    14    1
    22    14    13    1
    23    13     9    1
    24    10     9    2
    25     9    11    1
    26     9    12    1
    27    12     6    1
    28     7     6    2
    29     6     8    1
    30     6     2    1
    31     2     1    1
    32     1     3    1
    33     1     5    2
    34     1     4    1
