@<TRIPOS>MOLECULE
1tng_AMC_A_1.pdb
 11 11 0 0 0
SMALL
GASTEIGER

@<TRIPOS>ATOM
      1  C1        29.4710   15.0640   16.9590 C.3   900  AMC900     -0.0218
      2  C2        29.6470   13.5710   16.9460 C.3   900  AMC900     -0.0021
      3  C3        29.8870   13.0470   18.3560 C.3   900  AMC900     -0.0001
      4  C4        28.6840   13.3890   19.2590 C.3   900  AMC900     -0.0000
      5  C5        28.3610   14.8940   19.2410 C.3   900  AMC900     -0.0001
      6  C6        28.2560   15.3640   17.7860 C.3   900  AMC900     -0.0021
      7  CM        29.2860   15.5890   15.5510 C.3   900  AMC900     -0.0861
      8  N         30.5350   15.6930   14.8290 N.4   900  AMC900      0.3804
      9  HN1       30.4070   16.1360   13.8820 H     900  AMC900     -0.0894
     10  HN2       31.0320   14.7900   14.6600 H     900  AMC900     -0.0894
     11  HN3       31.1910   16.3680   15.2870 H     900  AMC900     -0.0894
@<TRIPOS>BOND
     1     9     8    1
     2    10     8    1
     3     8    11    1
     4     8     7    1
     5     7     1    1
     6     2     1    1
     7     2     3    1
     8     1     6    1
     9     6     5    1
    10     3     4    1
    11     5     4    1
