@<TRIPOS>MOLECULE
1tnh_FBA_A_1.pdb
 12 12 0 0 0
SMALL
GASTEIGER

@<TRIPOS>ATOM
      1  C1        29.1540   14.9450   16.6050 C.ar  900  FBA900     -0.0441
      2  C2        29.5030   13.6110   16.6670 C.ar  900  FBA900     -0.0041
      3  C3        29.4740   12.9380   17.8740 C.ar  900  FBA900      0.0292
      4  C4        29.0770   13.6200   19.0180 C.ar  900  FBA900      0.1401
      5  C5        28.7230   14.9550   18.9610 C.ar  900  FBA900      0.0292
      6  C6        28.7710   15.6060   17.7440 C.ar  900  FBA900     -0.0041
      7  C         29.1690   15.7050   15.2980 C.3   900  FBA900     -0.0587
      8  N         30.4080   15.5270   14.6230 N.4   900  FBA900      0.3831
      9  F         29.0060   12.9520   20.2340 F     900  FBA900     -0.2042
     10  HN1       30.6120   14.5240   14.4070 H     900  FBA900     -0.0889
     11  HN2       31.1880   15.9860   15.1430 H     900  FBA900     -0.0889
     12  HN3       30.3160   15.9870   13.6900 H     900  FBA900     -0.0889
@<TRIPOS>BOND
     1    12     8    1
     2    10     8    1
     3     8    11    1
     4     8     7    1
     5     7     1    1
     6     1     2   ar
     7     1     6   ar
     8     2     3   ar
     9     6     5   ar
    10     3     4   ar
    11     5     4   ar
    12     4     9    1
