@<TRIPOS>MOLECULE
1tni_PBN_A_1.pdb
 13 13 0 0 0
SMALL
GASTEIGER

@<TRIPOS>ATOM
      1  C1        29.0920   15.5130   14.1370 C.3   900  PBN900      0.0651
      2  C2        29.8140   15.8390   15.4380 C.3   900  PBN900      0.0172
      3  C3        28.8910   15.4650   16.5610 C.3   900  PBN900      0.0061
      4  C4        29.5580   14.6080   17.6300 C.3   900  PBN900      0.0264
      5  C1'       30.1700   13.2680   17.1930 C.ar  900  PBN900     -0.0222
      6  C2'       29.5220   12.4630   16.2720 C.ar  900  PBN900     -0.0043
      7  C3'       29.8790   11.1320   16.1840 C.ar  900  PBN900     -0.0003
      8  C4'       30.8630   10.5610   16.9830 C.ar  900  PBN900     -0.0000
      9  C5'       31.5100   11.3480   17.9030 C.ar  900  PBN900     -0.0003
     10  C6'       31.1550   12.6880   17.9960 C.ar  900  PBN900     -0.0043
     11  N         29.8680   14.9520   13.0270 N.3   900  PBN900     -0.3211
     12  HN1       30.6240   14.3180   13.3620 H     900  PBN900      0.1189
     13  HN2       30.3150   15.7730   12.5570 H     900  PBN900      0.1189
@<TRIPOS>BOND
     1    13    11    1
     2    11    12    1
     3    11     1    1
     4     1     2    1
     5     2     3    1
     6     7     6   ar
     7     7     8   ar
     8     6     5   ar
     9     3     4    1
    10     8     9   ar
    11     5     4    1
    12     5    10   ar
    13     9    10   ar
