@<TRIPOS>MOLECULE
1tnj_PEA_A_1.pdb
 12 12 0 0 0
SMALL
GASTEIGER

@<TRIPOS>ATOM
      1  C1'       29.4980   14.9640   16.4240 C.ar  900  PEA900     -0.0243
      2  C6'       28.8830   15.4530   17.5640 C.ar  900  PEA900     -0.0043
      3  C5'       28.6850   14.6200   18.6580 C.ar  900  PEA900     -0.0003
      4  C4'       29.1020   13.2960   18.6070 C.ar  900  PEA900     -0.0000
      5  C3'       29.7170   12.8040   17.4580 C.ar  900  PEA900     -0.0003
      6  C2'       29.9120   13.6370   16.3670 C.ar  900  PEA900     -0.0043
      7  C2        29.7390   15.8900   15.2570 C.3   900  PEA900      0.0025
      8  C1        29.0950   15.4330   13.9710 C.3   900  PEA900     -0.0814
      9  N         29.9900   14.9120   12.9550 N.4   900  PEA900      0.3807
     10  HN1       30.7840   15.5790   12.9340 H     900  PEA900     -0.0893
     11  HN2       29.5970   14.9040   12.0000 H     900  PEA900     -0.0893
     12  HN3       30.3960   13.9960   13.2180 H     900  PEA900     -0.0893
@<TRIPOS>BOND
     1    11     9    1
     2    10     9    1
     3     9    12    1
     4     9     8    1
     5     8     7    1
     6     7     1    1
     7     6     1   ar
     8     6     5   ar
     9     1     2   ar
    10     5     4   ar
    11     2     3   ar
    12     4     3   ar
