@<TRIPOS>MOLECULE
1tnk_PRA_A_1.pdb
 13 13 0 0 0
SMALL
GASTEIGER

@<TRIPOS>ATOM
      1  C1        29.1850   15.9530   14.3410 C.3   900  PRA900     -0.0858
      2  C2        29.7360   15.8910   15.7220 C.3   900  PRA900     -0.0192
      3  C3        29.3620   14.5200   16.1610 C.3   900  PRA900      0.0242
      4  C1'       29.3740   14.3520   17.6500 C.ar  900  PRA900     -0.0223
      5  C2'       29.7500   13.1000   18.1070 C.ar  900  PRA900     -0.0043
      6  C3'       29.2170   12.6100   19.2830 C.ar  900  PRA900     -0.0003
      7  C4'       28.3150   13.3710   20.0020 C.ar  900  PRA900     -0.0000
      8  C5'       27.9480   14.6290   19.5470 C.ar  900  PRA900     -0.0003
      9  C6'       28.4780   15.1240   18.3700 C.ar  900  PRA900     -0.0043
     10  N         29.7690   15.0690   13.3340 N.4   900  PRA900      0.3804
     11  HN1       30.5350   14.4800   13.7390 H     900  PRA900     -0.0894
     12  HN2       30.1730   15.6760   12.5900 H     900  PRA900     -0.0894
     13  HN3       29.0530   14.4500   12.9280 H     900  PRA900     -0.0894
@<TRIPOS>BOND
     1    12    10    1
     2    13    10    1
     3    10    11    1
     4    10     1    1
     5     1     2    1
     6     2     3    1
     7     3     4    1
     8     4     5   ar
     9     4     9   ar
    10     5     6   ar
    11     9     8   ar
    12     6     7   ar
    13     8     7   ar
