@<TRIPOS>MOLECULE
1tnl_TPA_A_1.pdb
 13 14 0 0 0
SMALL
GASTEIGER

@<TRIPOS>ATOM
      1  C1        30.1900   15.4610   14.8430 C.3   900  TPA900     -0.0615
      2  C2        28.9490   15.1840   15.6180 C.3   900  TPA900      0.0004
      3  C3        29.3470   16.5960   15.4000 C.3   900  TPA900     -0.0193
      4  C1'       29.1430   14.7060   17.0310 C.ar  900  TPA900     -0.0246
      5  C2'       28.6820   15.4810   18.0860 C.ar  900  TPA900     -0.0043
      6  C3'       28.7430   14.9720   19.3680 C.ar  900  TPA900     -0.0003
      7  C4'       29.2640   13.6990   19.5790 C.ar  900  TPA900     -0.0000
      8  C5'       29.7350   12.9350   18.5160 C.ar  900  TPA900     -0.0003
      9  C6'       29.6770   13.4390   17.2310 C.ar  900  TPA900     -0.0043
     10  N         29.9220   15.1630   13.4350 N.4   900  TPA900      0.3820
     11  HN1       30.6720   15.6490   12.9020 H     900  TPA900     -0.0893
     12  HN2       29.0190   15.5550   13.1220 H     900  TPA900     -0.0893
     13  HN3       30.0480   14.1410   13.2820 H     900  TPA900     -0.0893
@<TRIPOS>BOND
     1    11    10    1
     2    12    10    1
     3    13    10    1
     4    10     1    1
     5     1     3    1
     6     1     2    1
     7     3     2    1
     8     2     4    1
     9     4     9   ar
    10     4     5   ar
    11     9     8   ar
    12     5     6   ar
    13     8     7   ar
    14     6     7   ar
