@<TRIPOS>MOLECULE
1tno_III_M_1.pdb
 46 45 0 0 0
SMALL
GASTEIGER

@<TRIPOS>ATOM
      1  N         18.6940   91.5000   64.1990 N.3     6  THR6       -0.1203
      2  CA        18.3850   90.1960   64.7900 C.3     6  THR6        0.1994
      3  C         19.6480   89.4520   65.2310 C.2     6  THR6        0.2618
      4  O         19.7080   88.9190   66.3420 O.2     6  THR6       -0.2717
      5  CB        17.6270   89.2690   63.8000 C.3     6  THR6        0.1784
      6  OG1       16.4820   89.9520   63.2800 O.3     6  THR6       -0.2211
      7  CG2       17.1670   87.9930   64.5070 C.3     6  THR6        0.0376
      8  N         20.6470   89.4080   64.3540 N.am    7  LYS7       -0.1965
      9  CA        21.8960   88.7220   64.6540 C.3     7  LYS7        0.1728
     10  C         23.1460   89.5590   64.3360 C.2     7  LYS7        0.2616
     11  O         23.0470   90.7080   63.9020 O.2     7  LYS7       -0.2715
     12  CB        21.9440   87.3870   63.9010 C.3     7  LYS7        0.0311
     13  CG        21.5970   87.4730   62.4260 C.3     7  LYS7        0.0038
     14  CD        21.6480   86.0900   61.7800 C.3     7  LYS7        0.0206
     15  CE        21.0440   86.0880   60.3660 C.3     7  LYS7        0.1093
     16  NZ        21.5940   87.1390   59.4410 N.3     7  LYS7       -0.1314
     17  N         24.3190   88.9800   64.5840 N.am    8  CYS8       -0.1954
     18  CA        25.5870   89.6520   64.3240 C.3     8  CYS8        0.1843
     19  C         26.4700   88.7810   63.4540 C.2     8  CYS8        0.2625
     20  O         27.1020   87.8550   63.9510 O.2     8  CYS8       -0.2714
     21  CB        26.3300   89.9550   65.6350 C.3     8  CYS8        0.0997
     22  SG        25.6060   91.2660   66.6560 S.3     8  CYS8       -0.0797
     23  N         26.5100   89.0660   62.1560 N.am    9  VAL9       -0.1963
     24  CA        27.3520   88.2920   61.2500 C.3     9  VAL9        0.1727
     25  C         28.7500   88.8920   61.3000 C.2     9  VAL9        0.2616
     26  O         28.9530   90.0180   60.8640 O.2     9  VAL9       -0.2715
     27  CB        26.8270   88.3580   59.8110 C.3     9  VAL9        0.0290
     28  CG1       27.7450   87.5850   58.8870 C.3     9  VAL9        0.0023
     29  CG2       25.4270   87.7900   59.7570 C.3     9  VAL9        0.0023
     30  N         29.7090   88.1450   61.8370 N.am   10  ILE10      -0.1963
     31  CA        31.0680   88.6490   61.9550 C.3    10  ILE10       0.1727
     32  C         32.0410   88.0440   60.9410 C.2    10  ILE10       0.2617
     33  O         33.2540   88.2480   61.0360 O.2    10  ILE10      -0.2715
     34  CB        31.6190   88.4220   63.3840 C.3    10  ILE10       0.0290
     35  CG1       31.6810   86.9220   63.6840 C.3    10  ILE10       0.0022
     36  CG2       30.7540   89.1570   64.4010 C.3    10  ILE10       0.0023
     37  CD1       32.2360   86.5900   65.0430 C.3    10  ILE10       0.0001
     38  N         31.5060   87.3070   59.9710 N.am   11  MET11      -0.1941
     39  CA        32.3210   86.6960   58.9150 C.3    11  MET11       0.1987
     40  C         31.5700   86.4400   57.6100 C.2    11  MET11       0.3842
     41  O         32.2410   86.4530   56.5520 O.co2  11  MET11      -0.2437
     42  CB        32.9450   85.3990   59.3950 C.3    11  MET11       0.0449
     43  CG        34.2570   85.5990   60.0860 C.3    11  MET11       0.0599
     44  SD        34.8280   84.0120   60.6210 S.3    11  MET11      -0.1393
     45  CE        33.8200   83.7850   62.0980 C.3    11  MET11       0.0692
     46  OXT       30.3380   86.2150   57.6560 O.co2  11  MET11      -0.2437
@<TRIPOS>BOND
     1    41    40   ar
     2    40    46   ar
     3    40    39    1
     4    28    27    1
     5    39    42    1
     6    39    38    1
     7    42    43    1
     8    16    15    1
     9    29    27    1
    10    27    24    1
    11    38    32   am
    12    43    44    1
    13    15    14    1
    14    44    45    1
    15    26    25    2
    16    32    33    2
    17    32    31    1
    18    24    25    1
    19    24    23    1
    20    25    30   am
    21    14    13    1
    22    30    31    1
    23    31    34    1
    24    23    19   am
    25    13    12    1
    26     6     5    1
    27    34    35    1
    28    34    36    1
    29    19    20    2
    30    19    18    1
    31    35    37    1
    32     5     7    1
    33     5     2    1
    34    12     9    1
    35    11    10    2
    36     1     2    1
    37    18    17    1
    38    18    21    1
    39    10    17   am
    40    10     9    1
    41     8     9    1
    42     8     3   am
    43     2     3    1
    44     3     4    2
    45    21    22    1
