@<TRIPOS>MOLECULE
1tno_MGM_B_1.pdb
 29 28 0 0 0
SMALL
GASTEIGER

@<TRIPOS>ATOM
      1  C20       35.5550   83.8050   65.9370 C.3   380  MGM380      0.0260
      2  C19       35.9960   85.0030   68.1100 C.3   380  MGM380      0.0260
      3  C18       36.1100   85.0240   66.6070 C.2   380  MGM380     -0.0478
      4  C17       36.6390   86.0230   65.9060 C.2   380  MGM380     -0.0342
      5  C16       37.2370   87.2860   66.4680 C.3   380  MGM380      0.0297
      6  C14       35.9470   88.3300   63.5080 C.3   380  MGM380      0.0260
      7  C13       36.4410   88.9420   64.8080 C.2   380  MGM380     -0.0478
      8  C15       37.6630   88.2300   65.3760 C.3   380  MGM380      0.0263
      9  C12       35.8410   90.0170   65.4270 C.2   380  MGM380     -0.0342
     10  C11       34.6070   90.7450   64.9130 C.3   380  MGM380      0.0297
     11  C9        34.1780   91.9170   65.8030 C.3   380  MGM380      0.0263
     12  C8        32.9290   92.6520   65.3470 C.2   380  MGM380     -0.0478
     13  C10       31.8720   92.6870   66.4230 C.3   380  MGM380      0.0260
     14  C7        32.7660   93.2250   64.1050 C.2   380  MGM380     -0.0328
     15  C6        31.5110   93.9680   63.6350 C.3   380  MGM380      0.0468
     16  C5        30.5350   93.0620   62.8630 C.3   380  MGM380      0.0956
     17  N3        29.4660   93.7380   62.0940 N.pl3 380  MGM380     -0.3020
     18  C4        28.1300   93.2840   62.4810 C.3   380  MGM380      0.1123
     19  C2        29.7550   94.7440   61.0330 C.2   380  MGM380      0.1024
     20  C1        28.8160   95.5450   60.1080 C.2   380  MGM380      0.1943
     21  O1        27.4240   95.3220   60.3160 O.2   380  MGM380     -0.4352
     22  PA        26.6110   96.3750   61.2110 P.3   380  MGM380      0.2780
     23  O1A       26.6750   97.7860   60.6940 O.2   380  MGM380     -0.5080
     24  O3A       27.2440   96.1790   62.6760 O.3   380  MGM380     -0.2160
     25  O2A       25.1500   95.8470   61.2660 O.3   380  MGM380     -0.4271
     26  PB        26.9820   96.8020   64.0890 P.3   380  MGM380      0.5380
     27  O1B       25.8760   97.8050   64.0940 O.2   380  MGM380     -0.2221
     28  O2B       28.3380   97.3910   64.4940 O.3   380  MGM380     -0.1143
     29  O3B       26.6750   95.5790   64.9750 O.3   380  MGM380     -0.1143
@<TRIPOS>BOND
     1    20    21    1
     2    20    19    2
     3    21    22    1
     4    23    22    2
     5    19    17    1
     6    22    25    1
     7    22    24    1
     8    17    18    1
     9    17    16    1
    10    24    26    1
    11    16    15    1
    12     6     7    1
    13    15    14    1
    14    26    27    2
    15    26    28    1
    16    26    29    1
    17    14    12    2
    18     7     8    1
    19     7     9    2
    20    10     9    1
    21    10    11    1
    22    12    11    1
    23    12    13    1
    24     8     5    1
    25     4     5    1
    26     4     3    2
    27     1     3    1
    28     3     2    1
