@<TRIPOS>MOLECULE
1tnu_III_M_1.pdb
 45 44 0 0 0
SMALL
GASTEIGER

@<TRIPOS>ATOM
      1  N         17.3510   88.6100   63.4070 N.3     4  ASN4       -0.1225
      2  CA        18.0750   89.5900   64.2200 C.3     4  ASN4        0.1785
      3  C         19.3860   89.0430   64.7880 C.2     4  ASN4        0.2597
      4  O         19.4630   88.6710   65.9640 O.2     4  ASN4       -0.2718
      5  CB        17.1890   90.0770   65.3740 C.3     4  ASN4        0.1169
      6  CG        16.1530   91.0870   64.9280 C.2     4  ASN4        0.2627
      7  OD1       15.2030   91.3800   65.6590 O.2     4  ASN4       -0.2716
      8  ND2       16.3360   91.6370   63.7260 N.am    4  ASN4       -0.0877
      9  N         20.4220   89.0060   63.9580 N.am    5  CYS5       -0.1956
     10  CA        21.7070   88.4990   64.4080 C.3     5  CYS5        0.1843
     11  C         22.8940   89.3530   63.9560 C.2     5  CYS5        0.2626
     12  O         22.7300   90.4380   63.3900 O.2     5  CYS5       -0.2714
     13  CB        21.8860   87.0490   63.9370 C.3     5  CYS5        0.0997
     14  SG        21.8240   86.8240   62.1430 S.3     5  CYS5       -0.0797
     15  N         24.0920   88.8490   64.2300 N.am    6  CYS6       -0.1954
     16  CA        25.3180   89.5350   63.8790 C.3     6  CYS6        0.1843
     17  C         26.1940   88.6330   63.0370 C.2     6  CYS6        0.2625
     18  O         26.8780   87.7580   63.5650 O.2     6  CYS6       -0.2714
     19  CB        26.0720   89.9490   65.1480 C.3     6  CYS6        0.0997
     20  SG        25.2050   91.1770   66.1520 S.3     6  CYS6       -0.0797
     21  N         26.1630   88.8350   61.7250 N.am    7  LYS7       -0.1963
     22  CA        26.9850   88.0400   60.8200 C.3     7  LYS7        0.1728
     23  C         28.3810   88.6470   60.8430 C.2     7  LYS7        0.2616
     24  O         28.6310   89.6670   60.2130 O.2     7  LYS7       -0.2715
     25  CB        26.3850   88.0750   59.4150 C.3     7  LYS7        0.0311
     26  CG        24.9830   87.5060   59.4040 C.3     7  LYS7        0.0038
     27  CD        24.2420   87.7120   58.0930 C.3     7  LYS7        0.0206
     28  CE        22.8470   87.0740   58.1830 C.3     7  LYS7        0.1093
     29  NZ        22.0560   87.2160   56.9300 N.3     7  LYS7       -0.1314
     30  N         29.2800   88.0230   61.5930 N.am    8  VAL8       -0.1963
     31  CA        30.6330   88.5250   61.7210 C.3     8  VAL8        0.1727
     32  C         31.5950   87.9320   60.7040 C.2     8  VAL8        0.2617
     33  O         32.7700   88.3040   60.6630 O.2     8  VAL8       -0.2715
     34  CB        31.1740   88.2840   63.1400 C.3     8  VAL8        0.0290
     35  CG1       30.3370   89.0560   64.1420 C.3     8  VAL8        0.0023
     36  CG2       31.1670   86.7980   63.4530 C.3     8  VAL8        0.0023
     37  N         31.0970   87.0130   59.8840 N.am    9  LEU9       -0.1942
     38  CA        31.9050   86.3970   58.8340 C.3     9  LEU9        0.1978
     39  C         31.1520   86.3460   57.4950 C.2     9  LEU9        0.3842
     40  O         31.8220   86.3460   56.4360 O.co2   9  LEU9       -0.2437
     41  CB        32.3550   84.9950   59.2490 C.3     9  LEU9        0.0333
     42  CG        33.4570   84.9580   60.3140 C.3     9  LEU9        0.0023
     43  CD1       33.7530   83.5140   60.7060 C.3     9  LEU9        0.0001
     44  CD2       34.7100   85.6240   59.7700 C.3     9  LEU9        0.0001
     45  OXT       29.9000   86.2970   57.5150 O.co2   9  LEU9       -0.2437
@<TRIPOS>BOND
     1    40    39   ar
     2    29    28    1
     3    39    45   ar
     4    39    38    1
     5    27    28    1
     6    27    26    1
     7    38    41    1
     8    38    37    1
     9    41    42    1
    10    26    25    1
    11    25    22    1
    12    44    42    1
    13    37    32   am
    14    24    23    2
    15    42    43    1
    16    33    32    2
    17    32    31    1
    18    22    23    1
    19    22    21    1
    20    23    30   am
    21    30    31    1
    22    31    34    1
    23    21    17   am
    24    14    13    1
    25    17    18    2
    26    17    16    1
    27    34    36    1
    28    34    35    1
    29    12    11    2
    30     1     2    1
    31     8     6   am
    32    16    15    1
    33    16    19    1
    34    13    10    1
    35    11    15   am
    36    11    10    1
    37     9    10    1
    38     9     3   am
    39     2     3    1
    40     2     5    1
    41     3     4    2
    42     6     5    1
    43     6     7    2
    44    19    20    1
