@<TRIPOS>MOLECULE
1tnu_MGM_B_1.pdb
 29 28 0 0 0
SMALL
GASTEIGER

@<TRIPOS>ATOM
      1  C20       34.7500   83.7080   65.3250 C.3   379  MGM379      0.0260
      2  C19       35.3260   84.7550   67.5380 C.3   379  MGM379      0.0260
      3  C18       35.3960   84.8520   66.0400 C.2   379  MGM379     -0.0478
      4  C17       35.9590   85.8620   65.3790 C.2   379  MGM379     -0.0342
      5  C16       36.6370   87.0630   65.9920 C.3   379  MGM379      0.0297
      6  C14       35.4130   88.2310   63.0440 C.3   379  MGM379      0.0260
      7  C13       35.8930   88.7930   64.3700 C.2   379  MGM379     -0.0478
      8  C15       37.0890   88.0380   64.9400 C.3   379  MGM379      0.0263
      9  C12       35.3060   89.8650   65.0010 C.2   379  MGM379     -0.0342
     10  C11       34.1040   90.6270   64.4680 C.3   379  MGM379      0.0297
     11  C9        33.6710   91.7920   65.3620 C.3   379  MGM379      0.0263
     12  C8        32.4490   92.5440   64.8700 C.2   379  MGM379     -0.0478
     13  C10       31.3580   92.5940   65.9170 C.3   379  MGM379      0.0260
     14  C7        32.3340   93.1120   63.6220 C.2   379  MGM379     -0.0328
     15  C6        31.1060   93.8660   63.1070 C.3   379  MGM379      0.0468
     16  C5        30.0810   92.9320   62.4220 C.3   379  MGM379      0.0956
     17  N3        29.0150   93.5780   61.6280 N.pl3 379  MGM379     -0.3020
     18  C4        27.6850   93.0870   61.9880 C.3   379  MGM379      0.1123
     19  C2        29.3040   94.5920   60.5750 C.2   379  MGM379      0.1024
     20  C1        28.3630   95.3670   59.6310 C.2   379  MGM379      0.1943
     21  O1        26.9650   95.1560   59.8520 O.2   379  MGM379     -0.4352
     22  PA        26.1600   96.1900   60.7860 P.3   379  MGM379      0.2780
     23  O1A       26.2420   97.6160   60.3190 O.2   379  MGM379     -0.5080
     24  O3A       26.7800   95.9230   62.2330 O.3   379  MGM379     -0.2160
     25  O2A       24.6990   95.6760   60.8370 O.3   379  MGM379     -0.4271
     26  PB        26.5340   96.4830   63.6610 P.3   379  MGM379      0.5380
     27  O1B       25.4610   97.5210   63.7240 O.2   379  MGM379     -0.2221
     28  O2B       27.9020   96.9850   64.1060 O.3   379  MGM379     -0.1143
     29  O3B       26.1790   95.2200   64.4540 O.3   379  MGM379     -0.1143
@<TRIPOS>BOND
     1    20    21    1
     2    20    19    2
     3    21    22    1
     4    23    22    2
     5    19    17    1
     6    22    25    1
     7    22    24    1
     8    17    18    1
     9    17    16    1
    10    24    26    1
    11    16    15    1
    12     6     7    1
    13    15    14    1
    14    14    12    2
    15    26    27    2
    16    26    28    1
    17    26    29    1
    18     7     8    1
    19     7     9    2
    20    10     9    1
    21    10    11    1
    22    12    11    1
    23    12    13    1
    24     8     5    1
    25     1     3    1
    26     4     5    1
    27     4     3    2
    28     3     2    1
