@<TRIPOS>MOLECULE
1tny_MGM_B_1.pdb
 29 28 0 0 0
SMALL
GASTEIGER

@<TRIPOS>ATOM
      1  C20       34.6430   83.4930   65.3660 C.3   380  MGM380      0.0260
      2  C19       35.3630   84.6330   67.4900 C.3   380  MGM380      0.0260
      3  C18       35.3730   84.6450   65.9820 C.2   380  MGM380     -0.0478
      4  C17       35.9480   85.5860   65.2380 C.2   380  MGM380     -0.0342
      5  C16       36.7040   86.7840   65.7480 C.3   380  MGM380      0.0297
      6  C14       35.5070   87.8540   62.6930 C.3   380  MGM380      0.0260
      7  C13       35.9460   88.4180   64.0310 C.2   380  MGM380     -0.0478
      8  C15       37.1470   87.6830   64.6210 C.3   380  MGM380      0.0263
      9  C12       35.3230   89.4710   64.6640 C.2   380  MGM380     -0.0342
     10  C11       34.1070   90.2190   64.1310 C.3   380  MGM380      0.0297
     11  C9        33.6470   91.3670   65.0430 C.3   380  MGM380      0.0263
     12  C8        32.4130   92.1060   64.5680 C.2   380  MGM380     -0.0478
     13  C10       31.3340   92.1340   65.6210 C.3   380  MGM380      0.0260
     14  C7        32.2740   92.6800   63.3320 C.2   380  MGM380     -0.0331
     15  C6        31.0230   93.4140   62.8460 C.3   380  MGM380      0.0427
     16  C5        30.1020   92.5010   61.9980 C.3   380  MGM380      0.0769
     17  N3        28.9760   93.1630   61.3140 N.3   380  MGM380     -0.2691
     18  C4        27.6720   92.7190   61.8140 C.3   380  MGM380      0.0897
     19  C2        29.1910   94.1570   60.2300 C.3   380  MGM380      0.1051
     20  C1        28.1850   94.9530   59.3850 C.3   380  MGM380      0.1664
     21  O1        26.8170   94.6920   59.6850 O.3   380  MGM380     -0.3123
     22  PA        26.0060   95.7110   60.6290 P.3   380  MGM380      0.2230
     23  O1A       26.0030   97.1190   60.0880 O.2   380  MGM380     -0.5169
     24  O3A       26.6820   95.5750   62.0910 O.3   380  MGM380     -0.2261
     25  O2A       24.5670   95.1430   60.7640 O.3   380  MGM380     -0.4370
     26  PB        26.3690   96.2280   63.4920 P.3   380  MGM380      0.5373
     27  O1B       25.1890   97.1350   63.4650 O.2   380  MGM380     -0.2221
     28  O2B       27.6520   96.9570   63.8980 O.3   380  MGM380     -0.1143
     29  O3B       26.1740   95.0220   64.4240 O.3   380  MGM380     -0.1143
@<TRIPOS>BOND
     1    20    21    1
     2    20    19    1
     3    21    22    1
     4    23    22    2
     5    19    17    1
     6    22    25    1
     7    22    24    1
     8    17    18    1
     9    17    16    1
    10    16    15    1
    11    24    26    1
    12     6     7    1
    13    15    14    1
    14    14    12    2
    15    27    26    2
    16    26    28    1
    17    26    29    1
    18     7     8    1
    19     7     9    2
    20    10     9    1
    21    10    11    1
    22    12    11    1
    23    12    13    1
    24     8     5    1
    25     4     5    1
    26     4     3    2
    27     1     3    1
    28     3     2    1
