@<TRIPOS>MOLECULE
1tny_III_M_1.pdb
 38 38 0 0 0
SMALL
GASTEIGER

@<TRIPOS>ATOM
      1  CA        21.4350   87.7690   64.0680 C.3     7  PHE7        0.0915
      2  C         22.5990   88.6960   63.6630 C.2     7  PHE7        0.2421
      3  O         22.3930   89.8590   63.3020 O.2     7  PHE7       -0.2733
      4  CB        20.7370   87.1750   62.8390 C.3     7  PHE7        0.0360
      5  CG        21.3080   85.8450   62.3790 C.ar    7  PHE7       -0.0217
      6  CD1       22.5760   85.7710   61.7920 C.ar    7  PHE7       -0.0043
      7  CD2       20.5630   84.6620   62.5080 C.ar    7  PHE7       -0.0043
      8  CE1       23.0990   84.5300   61.3340 C.ar    7  PHE7       -0.0003
      9  CE2       21.0720   83.4160   62.0560 C.ar    7  PHE7       -0.0003
     10  CZ        22.3390   83.3530   61.4700 C.ar    7  PHE7       -0.0000
     11  N         23.8210   88.1730   63.7490 N.am    8  CYS8       -0.1968
     12  CA        25.0250   88.9250   63.4060 C.3     8  CYS8        0.1843
     13  C         25.9590   88.0740   62.5590 C.2     8  CYS8        0.2625
     14  O         26.5990   87.1590   63.0750 O.2     8  CYS8       -0.2714
     15  CB        25.7810   89.3540   64.6730 C.3     8  CYS8        0.0997
     16  SG        24.9730   90.6240   65.6810 S.3     8  CYS8       -0.0797
     17  N         26.0410   88.3640   61.2650 N.am    9  ALA9       -0.1963
     18  CA        26.9340   87.6060   60.3970 C.3     9  ALA9        0.1728
     19  C         28.3030   88.2560   60.5160 C.2     9  ALA9        0.2616
     20  O         28.5100   89.3540   60.0140 O.2     9  ALA9       -0.2715
     21  CB        26.4510   87.6610   58.9600 C.3     9  ALA9        0.0334
     22  N         29.2320   87.5970   61.1970 N.am   10  ILE10      -0.1963
     23  CA        30.5550   88.1700   61.3580 C.3    10  ILE10       0.1727
     24  C         31.5400   87.5840   60.3650 C.2    10  ILE10       0.2617
     25  O         32.7310   87.8930   60.4040 O.2    10  ILE10      -0.2715
     26  CB        31.0950   87.9660   62.7830 C.3    10  ILE10       0.0290
     27  CG1       31.0660   86.4770   63.1400 C.3    10  ILE10       0.0022
     28  CG2       30.3120   88.8330   63.7600 C.3    10  ILE10       0.0023
     29  CD1       31.6720   86.1740   64.4920 C.3    10  ILE10       0.0001
     30  N         31.0400   86.7340   59.4750 N.am   11  LEU11      -0.1942
     31  CA        31.8700   86.1290   58.4380 C.3    11  LEU11       0.1978
     32  C         31.1400   86.0960   57.0840 C.2    11  LEU11       0.3842
     33  O         31.8330   86.1170   56.0410 O.co2  11  LEU11      -0.2437
     34  CB        32.3170   84.7260   58.8590 C.3    11  LEU11       0.0333
     35  CG        33.3760   84.7180   59.9730 C.3    11  LEU11       0.0023
     36  CD1       33.8020   83.2950   60.2940 C.3    11  LEU11       0.0001
     37  CD2       34.5780   85.5180   59.5250 C.3    11  LEU11       0.0001
     38  OXT       29.8840   86.0630   57.0720 O.co2  11  LEU11      -0.2437
@<TRIPOS>BOND
     1    33    32   ar
     2    38    32   ar
     3    32    31    1
     4    31    34    1
     5    31    30    1
     6    34    35    1
     7    21    18    1
     8    30    24   am
     9    37    35    1
    10    35    36    1
    11    20    19    2
    12    24    25    2
    13    24    23    1
    14    18    19    1
    15    18    17    1
    16    19    22   am
    17    22    23    1
    18    17    13   am
    19     8    10   ar
    20     8     6   ar
    21    23    26    1
    22    10     9   ar
    23     6     5   ar
    24     9     7   ar
    25     5     7   ar
    26     5     4    1
    27    13    14    2
    28    13    12    1
    29    26    27    1
    30    26    28    1
    31     4     1    1
    32    27    29    1
    33     3     2    2
    34    12    11    1
    35    12    15    1
    36     2    11   am
    37     2     1    1
    38    15    16    1
