@<TRIPOS>MOLECULE
1tnz_MGM_B_1.pdb
 29 28 0 0 0
SMALL
GASTEIGER

@<TRIPOS>ATOM
      1  C20       34.4220   83.8600   65.6980 C.3   379  MGM379      0.0260
      2  C19       35.3400   85.0060   67.7450 C.3   379  MGM379      0.0260
      3  C18       35.2400   84.9940   66.2360 C.2   379  MGM379     -0.0478
      4  C17       35.7900   85.9220   65.4310 C.2   379  MGM379     -0.0342
      5  C16       36.5990   87.1100   65.8940 C.3   379  MGM379      0.0297
      6  C14       35.3050   88.2640   62.9220 C.3   379  MGM379      0.0260
      7  C13       35.8400   88.7900   64.2420 C.2   379  MGM379     -0.0478
      8  C15       37.0190   87.9950   64.7540 C.3   379  MGM379      0.0263
      9  C12       35.2980   89.8570   64.9180 C.2   379  MGM379     -0.0342
     10  C11       34.0920   90.6360   64.4300 C.3   379  MGM379      0.0297
     11  C9        33.6680   91.7910   65.3390 C.3   379  MGM379      0.0263
     12  C8        32.4240   92.5240   64.8560 C.2   379  MGM379     -0.0478
     13  C10       31.3210   92.5070   65.8960 C.3   379  MGM379      0.0260
     14  C7        32.3040   93.1260   63.6170 C.2   379  MGM379     -0.0331
     15  C6        31.0580   93.8600   63.0980 C.3   379  MGM379      0.0427
     16  C5        30.0680   92.9160   62.3660 C.3   379  MGM379      0.0769
     17  N3        28.9880   93.5580   61.5850 N.3   379  MGM379     -0.2691
     18  C4        27.6570   93.0960   61.9940 C.3   379  MGM379      0.0897
     19  C2        29.2690   94.5480   60.4940 C.3   379  MGM379      0.1051
     20  C1        28.3140   95.3220   59.5550 C.3   379  MGM379      0.1664
     21  O1        26.9180   95.0930   59.7890 O.3   379  MGM379     -0.3123
     22  PA        26.0770   96.1200   60.7170 P.3   379  MGM379      0.2230
     23  O1A       26.1230   97.5510   60.2260 O.2   379  MGM379     -0.5169
     24  O3A       26.6870   95.9300   62.1760 O.3   379  MGM379     -0.2261
     25  O2A       24.6150   95.5710   60.7860 O.3   379  MGM379     -0.4370
     26  PB        26.3410   96.5550   63.5600 P.3   379  MGM379      0.5373
     27  O1B       25.1880   97.5100   63.4960 O.2   379  MGM379     -0.2221
     28  O2B       27.6500   97.2200   64.0220 O.3   379  MGM379     -0.1143
     29  O3B       26.0530   95.3100   64.4430 O.3   379  MGM379     -0.1143
@<TRIPOS>BOND
     1    20    21    1
     2    20    19    1
     3    21    22    1
     4    23    22    2
     5    19    17    1
     6    22    25    1
     7    22    24    1
     8    17    18    1
     9    17    16    1
    10    24    26    1
    11    16    15    1
    12     6     7    1
    13    15    14    1
    14    27    26    2
    15    26    28    1
    16    26    29    1
    17    14    12    2
    18     7     8    1
    19     7     9    2
    20    10     9    1
    21    10    11    1
    22     8     5    1
    23    12    11    1
    24    12    13    1
    25     4     5    1
    26     4     3    2
    27     1     3    1
    28     3     2    1
