@<TRIPOS>MOLECULE
1tnz_III_M_1.pdb
 41 40 0 0 0
SMALL
GASTEIGER

@<TRIPOS>ATOM
      1  N         19.9150   89.1560   64.3600 N.3     2  ARG2       -0.1231
      2  CA        21.0940   88.3710   63.9980 C.3     2  ARG2        0.1694
      3  C         22.3390   89.2530   63.7130 C.2     2  ARG2        0.2592
      4  O         22.2170   90.4160   63.3110 O.2     2  ARG2       -0.2718
      5  CB        20.7670   87.4840   62.7850 C.3     2  ARG2        0.0321
      6  CG        21.7380   86.3190   62.5910 C.3     2  ARG2        0.0489
      7  CD        21.2160   85.2600   61.6000 C.3     2  ARG2        0.2205
      8  NE        22.0330   84.0390   61.6250 N.pl3   2  ARG2       -0.0865
      9  CZ        21.8080   82.9600   60.8790 C.cat   2  ARG2        0.5346
     10  NH1       20.7850   82.9300   60.0370 N.pl3   2  ARG2        0.1354
     11  NH2       22.6180   81.9140   60.9720 N.pl3   2  ARG2        0.1354
     12  N         23.5290   88.6930   63.9350 N.am    3  CYS3       -0.1956
     13  CA        24.7900   89.4080   63.7300 C.3     3  CYS3        0.1843
     14  C         25.7700   88.6180   62.8890 C.2     3  CYS3        0.2625
     15  O         26.4800   87.7660   63.4160 O.2     3  CYS3       -0.2714
     16  CB        25.4720   89.7020   65.0690 C.3     3  CYS3        0.0997
     17  SG        24.8210   91.0960   65.9950 S.3     3  CYS3       -0.0797
     18  N         25.8380   88.9030   61.5950 N.am    4  VAL4       -0.1963
     19  CA        26.7710   88.1890   60.7270 C.3     4  VAL4        0.1727
     20  C         28.2090   88.6700   60.9190 C.2     4  VAL4        0.2616
     21  O         28.5200   89.8210   60.6470 O.2     4  VAL4       -0.2715
     22  CB        26.3810   88.3570   59.2620 C.3     4  VAL4        0.0290
     23  CG1       27.4480   87.7490   58.3630 C.3     4  VAL4        0.0023
     24  CG2       25.0320   87.6960   59.0250 C.3     4  VAL4        0.0023
     25  N         29.0820   87.7790   61.3810 N.am    5  LEU5       -0.1963
     26  CA        30.4780   88.1240   61.6150 C.3     5  LEU5        0.1728
     27  C         31.3990   87.7020   60.4820 C.2     5  LEU5        0.2617
     28  O         32.4950   88.2430   60.3340 O.2     5  LEU5       -0.2715
     29  CB        30.9820   87.4840   62.9070 C.3     5  LEU5        0.0311
     30  CG        30.3060   87.8570   64.2220 C.3     5  LEU5        0.0022
     31  CD1       31.1140   87.2390   65.3470 C.3     5  LEU5        0.0001
     32  CD2       30.2180   89.3680   64.3770 C.3     5  LEU5        0.0001
     33  N         30.9660   86.7290   59.6890 N.am    6  LEU6       -0.1942
     34  CA        31.7690   86.2500   58.5690 C.3     6  LEU6        0.1978
     35  C         30.9630   86.2120   57.2660 C.2     6  LEU6        0.3842
     36  O         31.5840   86.3180   56.1850 O.co2   6  LEU6       -0.2437
     37  CB        32.3350   84.8660   58.8920 C.3     6  LEU6        0.0333
     38  CG        33.3170   84.8290   60.0660 C.3     6  LEU6        0.0023
     39  CD1       33.7100   83.3910   60.3800 C.3     6  LEU6        0.0001
     40  CD2       34.5370   85.6580   59.7130 C.3     6  LEU6        0.0001
     41  OXT       29.7210   86.0660   57.3360 O.co2   6  LEU6       -0.2437
@<TRIPOS>BOND
     1    36    35   ar
     2    35    41   ar
     3    35    34    1
     4    23    22    1
     5    34    37    1
     6    34    33    1
     7    37    38    1
     8    24    22    1
     9    22    19    1
    10    33    27   am
    11    40    38    1
    12    10     9    1
    13    38    39    1
    14    28    27    2
    15    27    26    1
    16    21    20    2
    17    19    20    1
    18    19    18    1
    19     9    11    1
    20     9     8    2
    21    20    25   am
    22    25    26    1
    23    18    14   am
    24     7     8    1
    25     7     6    1
    26    26    29    1
    27     6     5    1
    28     5     2    1
    29    14    15    2
    30    14    13    1
    31    29    30    1
    32     4     3    2
    33     3    12   am
    34     3     2    1
    35    13    12    1
    36    13    16    1
    37     2     1    1
    38    30    32    1
    39    30    31    1
    40    16    17    1
