@<TRIPOS>MOLECULE
1tog_HCI_A_1.pdb
 11 11 0 0 0
SMALL
GASTEIGER

@<TRIPOS>ATOM
      1  C1        47.5630   92.4530  -14.4790 C.2   410  HCI410      0.3652
      2  O1        47.8650   92.0740  -15.6190 O.co2 410  HCI410     -0.2456
      3  O2        46.3170   92.8790  -14.2670 O.co2 410  HCI410     -0.2456
      4  C2        48.5460   92.4760  -13.3110 C.3   410  HCI410      0.1187
      5  C3        49.2800   91.1500  -13.0290 C.3   410  HCI410      0.0382
      6  C1'       48.4030   90.1070  -12.3430 C.ar  410  HCI410     -0.0216
      7  C2'       48.5420   89.8480  -10.9770 C.ar  410  HCI410     -0.0043
      8  C3'       47.7520   88.8680  -10.3700 C.ar  410  HCI410     -0.0003
      9  C4'       46.8060   88.1360  -11.1090 C.ar  410  HCI410     -0.0000
     10  C5'       46.6410   88.4030  -12.4770 C.ar  410  HCI410     -0.0003
     11  C6'       47.4560   89.3810  -13.0780 C.ar  410  HCI410     -0.0043
@<TRIPOS>BOND
     1     2     1   ar
     2     1     3   ar
     3     1     4    1
     4     4     5    1
     5    11    10   ar
     6    11     6   ar
     7     5     6    1
     8    10     9   ar
     9     6     7   ar
    10     9     8   ar
    11     7     8   ar
