@<TRIPOS>MOLECULE
1toi_HCI_A_1.pdb
 11 11 0 0 0
SMALL
GASTEIGER

@<TRIPOS>ATOM
      1  C1        73.2820   53.7340   34.1950 C.2   410  HCI410      0.3652
      2  O1        72.1530   54.1970   34.0410 O.co2 410  HCI410     -0.2456
      3  O2        73.4290   52.5530   34.7740 O.co2 410  HCI410     -0.2456
      4  C2        74.5300   54.4900   33.7870 C.3   410  HCI410      0.1187
      5  C3        74.4080   55.0380   32.3640 C.3   410  HCI410      0.0382
      6  C1'       74.6950   53.9180   31.3790 C.ar  410  HCI410     -0.0216
      7  C2'       75.9190   53.8980   30.7100 C.ar  410  HCI410     -0.0043
      8  C3'       76.2060   52.8910   29.7890 C.ar  410  HCI410     -0.0003
      9  C4'       75.2750   51.8780   29.5680 C.ar  410  HCI410     -0.0000
     10  C5'       74.0540   51.8800   30.2440 C.ar  410  HCI410     -0.0003
     11  C6'       73.7600   52.8970   31.1500 C.ar  410  HCI410     -0.0043
@<TRIPOS>BOND
     1     9     8   ar
     2     9    10   ar
     3     8     7   ar
     4    10    11   ar
     5     7     6   ar
     6    11     6   ar
     7     6     5    1
     8     5     4    1
     9     4     1    1
    10     2     1   ar
    11     1     3   ar
