@<TRIPOS>MOLECULE
1toj_HCI_A_1.pdb
 11 11 0 0 0
SMALL
GASTEIGER

@<TRIPOS>ATOM
      1  C1        31.2410   23.6960    4.7350 C.2   410  HCI410      0.3652
      2  O1        30.1150   23.2230    4.8740 O.co2 410  HCI410     -0.2456
      3  O2        31.3860   24.8830    4.1580 O.co2 410  HCI410     -0.2456
      4  C2        32.4760   22.9440    5.1790 C.3   410  HCI410      0.1187
      5  C3        32.3590   22.4020    6.6100 C.3   410  HCI410      0.0382
      6  C1'       32.6090   23.5050    7.6240 C.ar  410  HCI410     -0.0216
      7  C2'       33.8300   23.5640    8.3140 C.ar  410  HCI410     -0.0043
      8  C3'       34.0550   24.5930    9.2450 C.ar  410  HCI410     -0.0003
      9  C4'       33.0780   25.5660    9.4640 C.ar  410  HCI410     -0.0000
     10  C5'       31.8580   25.5130    8.7720 C.ar  410  HCI410     -0.0003
     11  C6'       31.6280   24.4870    7.8570 C.ar  410  HCI410     -0.0043
@<TRIPOS>BOND
     1     3     1   ar
     2     1     2   ar
     3     1     4    1
     4     4     5    1
     5     5     6    1
     6     6    11   ar
     7     6     7   ar
     8    11    10   ar
     9     7     8   ar
    10    10     9   ar
    11     8     9   ar
