@<TRIPOS>MOLECULE
1tom_MIN_H_1.pdb
 28 30 0 0 0
SMALL
GASTEIGER

@<TRIPOS>ATOM
      1  N13       16.6180  -16.8730   23.8320 N.3     1  MIN1       -0.2084
      2  C15       17.9320  -16.2260   23.7760 C.3     1  MIN1        0.1533
      3  C13       17.8220  -14.8100   23.2150 C.2     1  MIN1        0.2421
      4  O13       16.9480  -14.0710   23.6920 O.2     1  MIN1       -0.2733
      5  C16       18.5320  -16.1970   25.2170 C.3     1  MIN1        0.0530
      6  C17       19.8880  -15.5410   25.3810 C.ar    1  MIN1       -0.0203
      7  C18       21.0020  -16.1550   24.8590 C.ar    1  MIN1       -0.0042
      8  C22       19.9680  -14.3310   26.0350 C.ar    1  MIN1       -0.0042
      9  C19       22.2210  -15.5290   24.9600 C.ar    1  MIN1       -0.0003
     10  C21       21.1840  -13.7160   26.1340 C.ar    1  MIN1       -0.0003
     11  C20       22.3090  -14.3140   25.6040 C.ar    1  MIN1       -0.0000
     12  C14       15.8190  -17.0230   22.6010 C.3     1  MIN1        0.1080
     13  N9        18.6620  -14.3740   22.2720 N.am    1  MIN1       -0.2718
     14  C9        18.5150  -13.0970   21.5690 C.3     1  MIN1        0.1535
     15  C8        17.1170  -13.0170   20.9440 C.2     1  MIN1        0.2595
     16  O8        16.7290  -13.9670   20.2610 O.2     1  MIN1       -0.2716
     17  C10       19.5800  -13.0850   20.5050 C.3     1  MIN1        0.0310
     18  C11       20.5550  -14.1330   20.9450 C.3     1  MIN1        0.0237
     19  C12       19.7010  -15.1760   21.6260 C.3     1  MIN1        0.0939
     20  N7        16.3250  -11.9530   21.1710 N.am    1  MIN1       -0.2040
     21  C7        14.9980  -11.8090   20.5710 C.3     1  MIN1        0.1151
     22  C4        13.9200  -11.8380   21.5900 C.3     1  MIN1        0.0218
     23  C5        12.6590  -11.3000   20.9420 C.3     1  MIN1        0.0032
     24  C6        11.5480  -11.3550   21.9740 C.3     1  MIN1        0.0191
     25  C1        11.3220  -12.7910   22.5040 C.3     1  MIN1        0.0918
     26  C2        12.5960  -13.2860   23.1240 C.3     1  MIN1        0.0191
     27  C3        13.7450  -13.2510   22.1460 C.3     1  MIN1        0.0032
     28  N1        10.3160  -12.8040   23.5250 N.3     1  MIN1       -0.1329
@<TRIPOS>BOND
     1    16    15    2
     2    17    18    1
     3    17    14    1
     4    21    20    1
     5    21    22    1
     6    23    22    1
     7    23    24    1
     8    15    20   am
     9    15    14    1
    10    18    19    1
    11    14    13    1
    12    22    27    1
    13    19    13    1
    14    24    25    1
    15    27    26    1
    16    13     3   am
    17    25    26    1
    18    25    28    1
    19    12     1    1
    20     3     4    2
    21     3     2    1
    22     2     1    1
    23     2     5    1
    24     7     9   ar
    25     7     6   ar
    26     9    11   ar
    27     5     6    1
    28     6     8   ar
    29    11    10   ar
    30     8    10   ar
