@<TRIPOS>MOLECULE
1toq_AMG_A_1.pdb
 13 13 0 0 0
SMALL
GASTEIGER

@<TRIPOS>ATOM
      1  C1        56.6360   30.5700   -3.1380 C.3   501  AMG501      0.2695
      2  C2        57.1680   29.5010   -2.1700 C.3   501  AMG501      0.2406
      3  C3        56.1620   28.3340   -2.0250 C.3   501  AMG501      0.2198
      4  C4        54.7980   28.9050   -1.6240 C.3   501  AMG501      0.2144
      5  C5        54.3740   29.9410   -2.6480 C.3   501  AMG501      0.1835
      6  C6        53.0460   30.5760   -2.3280 C.3   501  AMG501      0.2142
      7  C7        56.1730   30.8260   -5.4500 C.3   501  AMG501      0.1769
      8  O1        56.5840   29.9610   -4.4140 O.3   501  AMG501     -0.3259
      9  O2        58.3110   28.9430   -2.8340 O.3   501  AMG501     -0.2149
     10  O3        56.6330   27.4640   -0.9920 O.3   501  AMG501     -0.2174
     11  O4        54.9970   29.5950   -0.4050 O.3   501  AMG501     -0.2176
     12  O5        55.3600   30.9940   -2.6790 O.3   501  AMG501     -0.3256
     13  O6        53.1610   31.4920   -1.2670 O.3   501  AMG501     -0.2176
@<TRIPOS>BOND
     1     7     8    1
     2     8     1    1
     3     1    12    1
     4     1     2    1
     5     9     2    1
     6    12     5    1
     7     5     6    1
     8     5     4    1
     9     6    13    1
    10     2     3    1
    11     3     4    1
    12     3    10    1
    13     4    11    1
