@<TRIPOS>MOLECULE
1tou_B1V_A_1.pdb
 21 22 0 0 0
SMALL
GASTEIGER

@<TRIPOS>ATOM
      1  F27       21.4910    5.6460    4.6240 F     501  B1V501     -0.1637
      2  C24       20.3120    5.0570    4.6360 C.3   501  B1V501      0.4443
      3  F25       19.6730    5.4360    5.6480 F     501  B1V501     -0.1637
      4  F26       20.4800    3.7460    4.6790 F     501  B1V501     -0.1637
      5  C9        19.5870    5.4220    3.4300 C.2   501  B1V501      0.2107
      6  N11       19.9250    4.8530    2.2500 N.2   501  B1V501     -0.3336
      7  C7        18.5770    6.3840    3.4600 C.3   501  B1V501      0.1992
      8  C5        17.9330    6.7110    2.2700 C.1   501  B1V501      0.1983
      9  O13       16.9360    7.6350    2.2460 O.2   501  B1V501     -0.2130
     10  N3        18.3000    6.1190    1.1250 N.2   501  B1V501     -0.2640
     11  C1        19.2910    5.1970    1.1210 C.1   501  B1V501      0.1791
     12  S14       19.7160    4.4530   -0.4020 S.3   501  B1V501     -0.0076
     13  C15       21.0660    3.3370    0.0700 C.3   501  B1V501      0.1593
     14  C16       22.4160    3.9900   -0.1690 C.2   501  B1V501      0.2378
     15  O23       22.6210    4.6460   -1.1830 O.2   501  B1V501     -0.2739
     16  N17       23.4750    3.8060    0.7610 N.am  501  B1V501     -0.2788
     17  C18       23.0240    3.8540    2.1660 C.3   501  B1V501      0.0934
     18  C19       24.1510    3.3950    3.0960 C.3   501  B1V501      0.0216
     19  C20       25.4890    4.0960    2.8100 C.3   501  B1V501      0.0035
     20  C21       25.7870    4.3780    1.3320 C.3   501  B1V501      0.0216
     21  C22       24.5500    4.7960    0.5480 C.3   501  B1V501      0.0934
@<TRIPOS>BOND
     1    15    14    2
     2    12    13    1
     3    12    11    1
     4    14    13    1
     5    14    16   am
     6    21    16    1
     7    21    20    1
     8    16    17    1
     9    11    10    2
    10    11     6    2
    11    10     8    2
    12    20    19    1
    13    17    18    1
    14     9     8    2
    15     6     5    2
    16     8     7    1
    17    19    18    1
    18     5     7    1
    19     5     2    1
    20     1     2    1
    21     2     4    1
    22     2     3    1
