@<TRIPOS>MOLECULE
1tow_CRZ_A_1.pdb
 19 21 0 0 0
SMALL
GASTEIGER

@<TRIPOS>ATOM
      1  O19       17.4080    7.2290    2.0020 O.co2 501  CRZ501     -0.2457
      2  C1        17.9280    6.4240    2.7610 C.2   501  CRZ501      0.3649
      3  O18       17.1920    5.4060    3.1960 O.co2 501  CRZ501     -0.2457
      4  C2        19.3710    6.5730    3.1920 C.3   501  CRZ501      0.1161
      5  C3        19.8380    5.4040    4.0810 C.3   501  CRZ501      0.0363
      6  C4        20.1330    4.1170    3.2890 C.3   501  CRZ501      0.1066
      7  N5        21.0330    4.3350    2.1460 N.ar  501  CRZ501     -0.3272
      8  C6        20.6150    4.5170    0.8490 C.ar  501  CRZ501      0.0599
      9  C17       19.3820    4.6100    0.2010 C.ar  501  CRZ501      0.0172
     10  C7        21.8270    4.6580    0.0110 C.ar  501  CRZ501      0.0172
     11  C14       21.7870    4.8620   -1.3620 C.ar  501  CRZ501      0.0015
     12  C15       20.5190    4.9520   -1.9530 C.ar  501  CRZ501      0.0001
     13  C16       19.3480    4.8220   -1.1880 C.ar  501  CRZ501      0.0015
     14  C8        22.9600    4.5250    0.9060 C.ar  501  CRZ501      0.0172
     15  C9        22.3980    4.3210    2.2560 C.ar  501  CRZ501      0.0599
     16  C10       23.3060    4.1740    3.3110 C.ar  501  CRZ501      0.0172
     17  C13       24.3290    4.5700    0.6410 C.ar  501  CRZ501      0.0015
     18  C12       25.1830    4.4050    1.7380 C.ar  501  CRZ501      0.0001
     19  C11       24.6770    4.2150    3.0320 C.ar  501  CRZ501      0.0015
@<TRIPOS>BOND
     1    12    11   ar
     2    12    13   ar
     3    11    10   ar
     4    13     9   ar
     5    10     8   ar
     6    10    14   ar
     7     9     8   ar
     8    17    14   ar
     9    17    18   ar
    10     8     7   ar
    11    14    15   ar
    12    18    19   ar
    13     1     2   ar
    14     7    15   ar
    15     7     6    1
    16    15    16   ar
    17     2     4    1
    18     2     3   ar
    19    19    16   ar
    20     4     5    1
    21     6     5    1
