@<TRIPOS>MOLECULE
1tox_NAD_A_1.pdb
 44 48 0 0 0
SMALL
GASTEIGER

@<TRIPOS>ATOM
      1  PA        32.6720  -43.6000  -25.3990 P.3   536  NAD536      0.2189
      2  O1A       32.4170  -45.0670  -25.1760 O.3   536  NAD536     -0.4371
      3  O2A       34.0260  -43.1270  -25.7740 O.2   536  NAD536     -0.5170
      4  O5B       31.6120  -43.1430  -26.5560 O.3   536  NAD536     -0.3112
      5  C5B       30.3260  -43.7720  -26.5990 C.3   536  NAD536      0.1813
      6  C4B       29.4580  -42.5360  -26.5560 C.3   536  NAD536      0.1821
      7  O4B       28.4380  -42.7900  -27.5290 O.3   536  NAD536     -0.3135
      8  C3B       28.7670  -42.2810  -25.2280 C.3   536  NAD536      0.2184
      9  O3B       28.3990  -40.9140  -25.0410 O.3   536  NAD536     -0.2174
     10  C2B       27.4720  -43.0430  -25.3960 C.3   536  NAD536      0.2570
     11  O2B       26.4100  -42.4470  -24.6520 O.3   536  NAD536     -0.2130
     12  C1B       27.1750  -42.8520  -26.8600 C.3   536  NAD536      0.3186
     13  N9A       26.1530  -43.8170  -27.3210 N.pl3 536  NAD536     -0.1439
     14  C8A       25.0690  -43.4010  -27.9870 C.3   536  NAD536      0.3377
     15  N7A       24.2510  -44.4230  -28.2490 N.2   536  NAD536     -0.2095
     16  C5A       24.8650  -45.4670  -27.7210 C.2   536  NAD536      0.2526
     17  C6A       24.3440  -46.7490  -27.7550 C.2   536  NAD536      0.4393
     18  N6A       23.1740  -46.9620  -28.3710 N.pl3 536  NAD536      0.2180
     19  N1A       25.0850  -47.7040  -27.1390 N.2   536  NAD536      0.0021
     20  C2A       26.2420  -47.3830  -26.5650 C.3   536  NAD536      0.5254
     21  N3A       26.7230  -46.1390  -26.5800 N.2   536  NAD536     -0.0055
     22  C4A       26.0530  -45.1380  -27.1350 C.2   536  NAD536      0.3518
     23  O3        32.3400  -42.6460  -24.1180 O.3   536  NAD536     -0.2703
     24  PN        31.8400  -42.7080  -22.5840 P.3   536  NAD536      0.2189
     25  O1N       30.8090  -43.7710  -22.4220 O.2   536  NAD536     -0.5170
     26  O2N       31.4510  -41.3150  -22.2490 O.3   536  NAD536     -0.4371
     27  O5D       33.1690  -43.2750  -21.8960 O.3   536  NAD536     -0.3112
     28  C5D       34.4390  -42.6520  -22.1170 C.3   536  NAD536      0.1813
     29  C4D       35.1410  -42.4660  -20.7850 C.3   536  NAD536      0.1799
     30  O4D       34.2720  -41.9290  -19.7660 O.3   536  NAD536     -0.3327
     31  C3D       35.4550  -43.8590  -20.4150 C.3   536  NAD536      0.2158
     32  O3D       36.6060  -44.3070  -21.1090 O.3   536  NAD536     -0.2175
     33  C2D       35.4750  -43.8230  -18.9060 C.3   536  NAD536      0.2309
     34  O2D       36.7030  -43.3530  -18.3680 O.3   536  NAD536     -0.2158
     35  C1D       34.4100  -42.8110  -18.6430 C.3   536  NAD536      0.2263
     36  N1N       33.1230  -43.2770  -18.0750 N.pl3 536  NAD536     -0.2787
     37  C2N       31.9290  -42.9030  -18.7160 C.3   536  NAD536      0.1244
     38  C3N       30.7220  -43.2180  -18.1040 C.2   536  NAD536      0.0544
     39  C7N       29.4310  -42.7400  -18.7190 C.2   536  NAD536      0.2818
     40  O7N       28.4540  -42.8920  -18.0300 O.2   536  NAD536     -0.2670
     41  N7N       29.4250  -42.0770  -19.8780 N.am  536  NAD536     -0.0839
     42  C4N       30.6860  -43.9120  -16.8860 C.2   536  NAD536      0.0033
     43  C5N       31.8490  -44.3330  -16.2500 C.2   536  NAD536      0.0157
     44  C6N       33.0680  -44.0020  -16.8420 C.2   536  NAD536      0.0633
@<TRIPOS>BOND
     1    18    17    1
     2    15    14    1
     3    15    16    2
     4    14    13    1
     5    17    16    1
     6    17    19    2
     7    16    22    1
     8     7    12    1
     9     7     6    1
    10    13    22    1
    11    13    12    1
    12    19    20    1
    13    22    21    2
    14    12    10    1
    15     5     6    1
    16     5     4    1
    17    21    20    1
    18     6     8    1
    19     4     1    1
    20     3     1    2
    21     1     2    1
    22     1    23    1
    23    10     8    1
    24    10    11    1
    25     8     9    1
    26    23    24    1
    27    24    25    2
    28    24    26    1
    29    24    27    1
    30    28    27    1
    31    28    29    1
    32    32    31    1
    33    29    31    1
    34    29    30    1
    35    31    33    1
    36    41    39   am
    37    30    35    1
    38    33    35    1
    39    33    34    1
    40    39    38    1
    41    39    40    2
    42    37    38    1
    43    37    36    1
    44    35    36    1
    45    38    42    2
    46    36    44    1
    47    42    43    1
    48    44    43    2
