@<TRIPOS>MOLECULE
1tp2_TDA_A_1.pdb
 15 14 0 0 0
SMALL
GASTEIGER

@<TRIPOS>ATOM
      1  O21       12.5470   33.0740   35.6760 O.2   201  TDA201     -0.2671
      2  O22       14.1700   32.9150   37.0990 O.2   201  TDA201     -0.2671
      3  C21       13.8300   33.0610   35.9830 C.3   201  TDA201      0.4259
      4  C22       14.1900   32.0520   34.8170 C.3   201  TDA201      0.0998
      5  C23       15.0550   30.8100   35.2340 C.3   201  TDA201      0.0081
      6  C24       16.2260   30.7240   34.3500 C.3   201  TDA201      0.0003
      7  C25       16.3420   29.3470   33.5210 C.3   201  TDA201      0.0000
      8  C26       15.9620   29.5390   32.0620 C.3   201  TDA201      0.0000
      9  C27       17.2630   29.9830   31.1650 C.3   201  TDA201      0.0000
     10  C28       16.7700   30.1710   29.5710 C.3   201  TDA201      0.0003
     11  C29       15.2120   30.6970   29.5860 C.3   201  TDA201      0.0047
     12  C30       14.7620   30.8920   28.0440 C.3   201  TDA201      0.0257
     13  C31       13.6630   29.8420   27.9900 C.2   201  TDA201     -0.0307
     14  C32       12.2730   30.1740   28.8840 C.2   201  TDA201     -0.0304
     15  C33       10.8620   29.5870   29.1690 C.3   201  TDA201      0.0303
@<TRIPOS>BOND
     1    13    12    1
     2    13    14    2
     3    12    11    1
     4    14    15    1
     5    10    11    1
     6    10     9    1
     7     9     8    1
     8     8     7    1
     9     7     6    1
    10     6     5    1
    11     4     5    1
    12     4     3    1
    13     1     3    1
    14     3     2    1
