@<TRIPOS>MOLECULE
1tp3_III_B_1.pdb
 45 45 0 0 0
SMALL
GASTEIGER

@<TRIPOS>ATOM
      1  N         51.6850   88.4260   22.0850 N.3   420  LYS420     -0.1231
      2  CA        50.2640   88.0080   21.8350 C.3   420  LYS420      0.1694
      3  C         50.1130   86.6640   22.5870 C.2   420  LYS420      0.2592
      4  O         50.4900   86.6450   23.7820 O.2   420  LYS420     -0.2718
      5  CB        50.0080   87.8750   20.2970 C.3   420  LYS420      0.0304
      6  N         49.4650   85.6440   21.9430 N.am  421  LYS421     -0.1966
      7  CA        49.9000   84.1840   21.7830 C.3   421  LYS421      0.1728
      8  C         49.9420   82.9740   22.8360 C.2   421  LYS421      0.2616
      9  O         50.4750   82.9740   23.9880 O.2   421  LYS421     -0.2715
     10  CB        51.1890   84.1030   20.9490 C.3   421  LYS421      0.0311
     11  CG        51.3690   82.8570   19.9790 C.3   421  LYS421      0.0038
     12  CD        52.8620   82.6660   19.5970 C.3   421  LYS421      0.0206
     13  CE        53.7250   83.9770   19.9020 C.3   421  LYS421      0.1093
     14  NZ        53.7290   84.5100   21.4030 N.3   421  LYS421     -0.1314
     15  N         49.3750   81.9260   22.2500 N.am  422  GLU422     -0.1963
     16  CA        48.9560   80.6360   22.8020 C.3   422  GLU422      0.1733
     17  C         49.5680   79.5740   21.8020 C.2   422  GLU422      0.2617
     18  O         49.4320   79.6920   20.5420 O.2   422  GLU422     -0.2715
     19  CB        47.3830   80.5730   22.8130 C.3   422  GLU422      0.0429
     20  CG        46.7100   79.9250   24.0410 C.3   422  GLU422      0.1163
     21  CD        45.4830   79.0240   23.7840 C.2   422  GLU422      0.3649
     22  OE1       45.5520   78.1490   22.9050 O.co2 422  GLU422     -0.2457
     23  OE2       44.4340   79.1450   24.4990 O.co2 422  GLU422     -0.2457
     24  N         50.2780   78.5770   22.3390 N.am  423  THR423     -0.1937
     25  CA        50.8210   77.5280   21.4750 C.3   423  THR423      0.2013
     26  C         50.3830   76.1590   21.9970 C.2   423  THR423      0.2484
     27  O         50.5310   75.9290   23.1860 O.2   423  THR423     -0.2729
     28  CB        52.3740   77.5550   21.4520 C.3   423  THR423      0.1807
     29  OG1       52.8880   78.7110   20.7270 O.3   423  THR423     -0.2208
     30  CG2       52.9110   76.3040   20.6920 C.3   423  THR423      0.0379
     31  N         49.8830   75.2670   21.0960 N.am  424  PRO424     -0.2715
     32  CA        49.5220   73.8660   21.4570 C.3   424  PRO424      0.1536
     33  C         50.7370   72.9440   21.4710 C.2   424  PRO424      0.2599
     34  O         51.5260   72.9300   20.4840 O.2   424  PRO424     -0.2715
     35  CB        48.5540   73.4070   20.2940 C.3   424  PRO424      0.0310
     36  CG        48.3430   74.6500   19.4080 C.3   424  PRO424      0.0237
     37  CD        49.5720   75.5270   19.6710 C.3   424  PRO424      0.0939
     38  N         50.8610   72.1490   22.5170 N.am  425  VAL425     -0.1942
     39  CA        52.0080   71.2510   22.6230 C.3   425  VAL425      0.1977
     40  C         51.5430   69.7780   22.9040 C.2   425  VAL425      0.3842
     41  O         52.5410   68.9500   22.9410 O.co2 425  VAL425     -0.2437
     42  CB        53.0220   71.7600   23.6750 C.3   425  VAL425      0.0311
     43  CG1       53.5780   73.2200   23.3180 C.3   425  VAL425      0.0023
     44  CG2       52.4130   71.8090   25.0630 C.3   425  VAL425      0.0023
     45  OXT       50.2540   69.5950   23.0750 O.co2 425  VAL425     -0.2437
@<TRIPOS>BOND
     1    36    37    1
     2    36    35    1
     3    12    13    1
     4    12    11    1
     5    37    31    1
     6    13    14    1
     7    11    10    1
     8    35    32    1
     9     5     2    1
    10    34    33    2
    11    18    17    2
    12    30    28    1
    13    29    28    1
    14    10     7    1
    15    31    32    1
    16    31    26   am
    17    28    25    1
    18    32    33    1
    19    33    38   am
    20    25    26    1
    21    25    24    1
    22     7     6    1
    23     7     8    1
    24    17    24   am
    25    17    16    1
    26     2     1    1
    27     2     3    1
    28     6     3   am
    29    26    27    2
    30    15    16    1
    31    15     8   am
    32    38    39    1
    33     3     4    2
    34    39    40    1
    35    39    42    1
    36    16    19    1
    37    19    20    1
    38     8     9    2
    39    40    41   ar
    40    40    45   ar
    41    22    21   ar
    42    43    42    1
    43    42    44    1
    44    21    20    1
    45    21    23   ar
