@<TRIPOS>MOLECULE
1tp7_DMX_A_1.pdb
 17 17 0 0 0
SMALL
GASTEIGER

@<TRIPOS>ATOM
      1  C1       -22.2520  -38.0120    1.8410 C.ar  500  DMX500     -0.0000
      2  C2       -23.4580  -37.4220    1.4000 C.ar  500  DMX500     -0.0004
      3  C3       -24.0770  -37.8440    0.1970 C.ar  500  DMX500     -0.0063
      4  C4       -23.4940  -38.8710   -0.5910 C.ar  500  DMX500     -0.0426
      5  C5       -22.2730  -39.4600   -0.1330 C.ar  500  DMX500     -0.0063
      6  C6       -21.6560  -39.0350    1.0730 C.ar  500  DMX500     -0.0004
      7  C7       -24.1740  -39.3560   -1.9320 C.3   500  DMX500     -0.0458
      8  N8       -23.8690  -38.8260   -3.3700 N.4   500  DMX500      0.3898
      9  C9       -22.4930  -39.3170   -3.9260 C.3   500  DMX500     -0.0711
     10  C10      -19.8980  -39.3670   -3.6530 C.3   500  DMX500      0.1031
     11  S11      -18.6610  -38.6730   -2.5070 S.3   500  DMX500     -0.1961
     12  C12      -24.9590  -39.3400   -4.2960 C.3   500  DMX500     -0.0954
     13  C13      -23.9910  -37.3230   -3.4210 C.3   500  DMX500     -0.0954
     14  O14      -17.1920  -39.0250   -3.0260 O.3   500  DMX500     -0.3075
     15  O15      -18.8640  -39.3410   -0.9490 O.3   500  DMX500     -0.3075
     16  O16      -18.8170  -36.9750   -2.4360 O.3   500  DMX500     -0.3075
     17  C17      -21.1750  -38.5080   -3.6510 C.3   500  DMX500     -0.0007
@<TRIPOS>BOND
     1    12     8    1
     2     9    17    1
     3     9     8    1
     4    10    17    1
     5    10    11    1
     6    13     8    1
     7     8     7    1
     8    14    11    1
     9    11    16    1
    10    11    15    1
    11     7     4    1
    12     4     5   ar
    13     4     3   ar
    14     5     6   ar
    15     3     2   ar
    16     6     1   ar
    17     2     1   ar
