@<TRIPOS>MOLECULE
1tp8_AMG_A_1.pdb
 13 13 0 0 0
SMALL
GASTEIGER

@<TRIPOS>ATOM
      1  C1        22.7350   45.4910   35.3280 C.3   500  AMG500      0.2695
      2  C2        23.8780   46.4410   34.9570 C.3   500  AMG500      0.2406
      3  C3        23.4940   47.8920   35.2630 C.3   500  AMG500      0.2198
      4  C4        22.1350   48.2270   34.6510 C.3   500  AMG500      0.2144
      5  C5        21.1050   47.1660   34.9530 C.3   500  AMG500      0.1835
      6  C6        19.7880   47.4000   34.2690 C.3   500  AMG500      0.2142
      7  C7        21.5910   44.8430   37.2560 C.3   500  AMG500      0.1769
      8  O1        22.5490   45.7250   36.7060 O.3   500  AMG500     -0.3259
      9  O2        25.0020   46.0340   35.6970 O.3   500  AMG500     -0.2149
     10  O3        24.4910   48.7370   34.6670 O.3   500  AMG500     -0.2174
     11  O4        22.2830   48.2570   33.2450 O.3   500  AMG500     -0.2176
     12  O5        21.6010   45.8740   34.5310 O.3   500  AMG500     -0.3256
     13  O6        19.7250   47.1610   32.8850 O.3   500  AMG500     -0.2176
@<TRIPOS>BOND
     1    13     6    1
     2    11     4    1
     3     6     5    1
     4    12     5    1
     5    12     1    1
     6     4     5    1
     7     4     3    1
     8    10     3    1
     9     2     3    1
    10     2     1    1
    11     2     9    1
    12     1     8    1
    13     8     7    1
