@<TRIPOS>MOLECULE
1tpb_PGH_1_1.pdb
 10 9 0 0 0
SMALL
GASTEIGER

@<TRIPOS>ATOM
      1  C1        23.7540   29.6220   19.5410 C.2   250  PGH250      0.1177
      2  C2        24.9250   30.5850   19.7520 C.3   250  PGH250      0.2044
      3  N2        23.7110   29.1130   18.3420 N.am  250  PGH250     -0.2004
      4  O2        22.7110   28.1960   18.0060 O.3   250  PGH250     -0.4026
      5  O1        22.9990   29.4320   20.5010 O.2   250  PGH250     -0.5374
      6  O1P       24.6260   31.4560   20.7920 O.3   250  PGH250     -0.2633
      7  O2P       26.9010   32.0630   22.1330 O.3   250  PGH250     -0.1145
      8  O3P       26.3890   33.4420   19.7210 O.2   250  PGH250     -0.2224
      9  O4P       25.0800   33.8130   22.1300 O.3   250  PGH250     -0.1145
     10  P         25.7040   32.7490   21.1150 P.3   250  PGH250      0.5330
@<TRIPOS>BOND
     1     4     3    1
     2     3     1   am
     3     1     2    1
     4     1     5    2
     5     8    10    2
     6     2     6    1
     7     6    10    1
     8    10     9    1
     9    10     7    1
