@<TRIPOS>MOLECULE
1tpc_PGH_1_1.pdb
 10 9 0 0 0
SMALL
GASTEIGER

@<TRIPOS>ATOM
      1  C1        23.7440   29.6440   19.3620 C.2   250  PGH250      0.1177
      2  C2        24.9190   30.5640   19.6200 C.3   250  PGH250      0.2044
      3  N2        23.7110   29.1030   18.1660 N.am  250  PGH250     -0.2004
      4  O2        22.5990   28.2680   17.8800 O.3   250  PGH250     -0.4026
      5  O1        22.9260   29.4730   20.2620 O.2   250  PGH250     -0.5374
      6  O1P       24.5140   31.5620   20.5740 O.3   250  PGH250     -0.2633
      7  O2P       26.8040   31.9910   22.0340 O.3   250  PGH250     -0.1145
      8  O3P       26.5140   33.3680   19.6070 O.2   250  PGH250     -0.2224
      9  O4P       25.1250   33.8310   22.0040 O.3   250  PGH250     -0.1145
     10  P         25.6780   32.7130   20.9620 P.3   250  PGH250      0.5330
@<TRIPOS>BOND
     1     4     3    1
     2     3     1   am
     3     1     2    1
     4     1     5    2
     5     8    10    2
     6     2     6    1
     7     6    10    1
     8    10     9    1
     9    10     7    1
