@<TRIPOS>MOLECULE
1tph_PGH_1_1.pdb
 10 9 0 0 0
SMALL
GASTEIGER

@<TRIPOS>ATOM
      1  C1        23.4980   29.8570   19.6300 C.2   250  PGH250      0.1177
      2  C2        24.7200   30.7470   19.8010 C.3   250  PGH250      0.2044
      3  N2        23.2660   29.5730   18.3700 N.am  250  PGH250     -0.2004
      4  O2        22.2330   28.7280   18.0520 O.3   250  PGH250     -0.4026
      5  O1        22.8920   29.5400   20.6580 O.2   250  PGH250     -0.5374
      6  O1P       24.5100   31.6190   20.8790 O.3   250  PGH250     -0.2633
      7  O2P       25.1640   33.8650   22.2020 O.3   250  PGH250     -0.1145
      8  O3P       26.8290   31.9410   22.1160 O.3   250  PGH250     -0.1145
      9  O4P       26.4660   33.4250   19.7320 O.2   250  PGH250     -0.2224
     10  P         25.7740   32.8110   21.1150 P.3   250  PGH250      0.5330
@<TRIPOS>BOND
     1     4     3    1
     2     3     1   am
     3     1     2    1
     4     1     5    2
     5     9    10    2
     6     2     6    1
     7     6    10    1
     8    10     8    1
     9    10     7    1
