@<TRIPOS>MOLECULE
1tpp_APA_A_1.pdb
 15 15 0 0 0
SMALL
GASTEIGER

@<TRIPOS>ATOM
      1  C1        -1.1290   16.6020   23.2430 C.2     1  APA1        0.3950
      2  O1        -2.1680   16.6360   23.9480 O.co2   1  APA1       -0.2428
      3  OXT       -0.0760   17.2260   23.5490 O.co2   1  APA1       -0.2428
      4  C2        -1.0930   15.7130   21.9740 C.3     1  APA1        0.2583
      5  O2        -1.9200   14.7000   22.0680 O.3     1  APA1       -0.2105
      6  C3        -1.0050   16.5740   20.6920 C.3     1  APA1        0.0710
      7  C1'       -1.1980   15.7930   19.3660 C.ar    1  APA1       -0.0190
      8  C2'       -2.0530   16.2860   18.3890 C.ar    1  APA1       -0.0039
      9  C3'       -2.3150   15.5780   17.2160 C.ar    1  APA1        0.0077
     10  C4'       -1.7080   14.3790   16.9900 C.ar    1  APA1        0.0975
     11  C5'       -0.7870   13.9200   17.9280 C.ar    1  APA1        0.0077
     12  C6'       -0.5210   14.6190   19.1210 C.ar    1  APA1       -0.0039
     13  C         -1.9680   13.6800   15.8070 C.2     1  APA1        0.4766
     14  N1        -2.8740   14.1560   15.0060 N.pl3   1  APA1        0.2047
     15  N2        -1.6470   12.3980   15.6330 N.pl3   1  APA1        0.2047
@<TRIPOS>BOND
     1    14    13    2
     2    15    13    1
     3    13    10    1
     4    10     9   ar
     5    10    11   ar
     6     9     8   ar
     7    11    12   ar
     8     8     7   ar
     9    12     7   ar
    10     7     6    1
    11     6     4    1
    12     4     5    1
    13     4     1    1
    14     1     3   ar
    15     1     2   ar
