@<TRIPOS>MOLECULE
1tpu_PGH_A_1.pdb
 10 9 0 0 0
SMALL
GASTEIGER

@<TRIPOS>ATOM
      1  C1        24.0080   30.4210   19.5590 C.2   250  PGH250      0.1177
      2  C2        25.2250   30.9320   20.3290 C.3   250  PGH250      0.2044
      3  N2        24.2990   29.7210   18.4600 N.am  250  PGH250     -0.2004
      4  O2        24.9220   28.4740   18.5240 O.3   250  PGH250     -0.4026
      5  O1        22.8700   30.6690   19.9380 O.2   250  PGH250     -0.5374
      6  O1P       24.8340   31.9410   21.2610 O.3   250  PGH250     -0.2633
      7  O2P       25.2390   34.1250   22.4270 O.3   250  PGH250     -0.1145
      8  O3P       26.3810   33.5640   20.3240 O.2   250  PGH250     -0.2224
      9  O4P       26.9480   32.3660   22.4850 O.3   250  PGH250     -0.1145
     10  P         25.8920   32.9780   21.6540 P.3   250  PGH250      0.5330
@<TRIPOS>BOND
     1     3     4    1
     2     3     1   am
     3     1     5    2
     4     1     2    1
     5     8    10    2
     6     2     6    1
     7     6    10    1
     8    10     7    1
     9    10     9    1
