@<TRIPOS>MOLECULE
1tpv_PGH_A_1.pdb
 10 9 0 0 0
SMALL
GASTEIGER

@<TRIPOS>ATOM
      1  C1        23.4720   30.0420   20.0310 C.2   250  PGH250      0.1177
      2  C2        24.7380   30.9000   20.3100 C.3   250  PGH250      0.2044
      3  N2        22.9170   30.2760   18.8250 N.am  250  PGH250     -0.2004
      4  O2        21.6560   29.7020   18.5610 O.3   250  PGH250     -0.4026
      5  O1        23.0330   29.1980   20.8440 O.2   250  PGH250     -0.5374
      6  O1P       24.5530   31.9580   21.2800 O.3   250  PGH250     -0.2633
      7  O2P       25.3590   34.0760   22.4580 O.3   250  PGH250     -0.1145
      8  O3P       26.2740   33.3660   20.2650 O.2   250  PGH250     -0.2224
      9  O4P       26.8620   32.1090   22.3340 O.3   250  PGH250     -0.1145
     10  P         25.8090   32.8700   21.6200 P.3   250  PGH250      0.5330
@<TRIPOS>BOND
     1     4     3    1
     2     3     1   am
     3     1     2    1
     4     1     5    2
     5     8    10    2
     6     2     6    1
     7     6    10    1
     8    10     9    1
     9    10     7    1
