@<TRIPOS>MOLECULE
1tpw_PGH_A_1.pdb
 10 9 0 0 0
SMALL
GASTEIGER

@<TRIPOS>ATOM
      1  C1        23.5110   30.2180   18.4800 C.2   250  PGH250      0.1177
      2  C2        24.6930   31.1730   18.6660 C.3   250  PGH250      0.2044
      3  N2        23.1110   30.1470   17.2260 N.am  250  PGH250     -0.2004
      4  O2        22.0640   29.3220   16.8830 O.3   250  PGH250     -0.4026
      5  O1        23.0650   29.5380   19.3960 O.2   250  PGH250     -0.5374
      6  O1P       24.5710   32.0020   19.8200 O.3   250  PGH250     -0.2633
      7  O2P       25.2880   34.0300   21.0850 O.3   250  PGH250     -0.1145
      8  O3P       26.2220   33.5850   18.8230 O.2   250  PGH250     -0.2224
      9  O4P       26.9070   32.1410   20.8130 O.3   250  PGH250     -0.1145
     10  P         25.8280   32.9410   20.1530 P.3   250  PGH250      0.5330
@<TRIPOS>BOND
     1     4     3    1
     2     3     1   am
     3     1     2    1
     4     1     5    2
     5     2     6    1
     6     8    10    2
     7     6    10    1
     8    10     9    1
     9    10     7    1
