@<TRIPOS>MOLECULE
1tpy_16A_A_1.pdb
 20 19 0 0 0
SMALL
GASTEIGER

@<TRIPOS>ATOM
      1  C1        44.4880   20.8310   54.7390 C.3   1901  16A1901     0.0000
      2  C2        43.2770   21.7120   55.0440 C.3   1901  16A1901     0.0000
      3  C3        42.2160   20.9140   55.8190 C.3   1901  16A1901     0.0000
      4  C4        40.9630   21.6890   56.2030 C.3   1901  16A1901     0.0000
      5  C5        40.0080   20.7590   56.9690 C.3   1901  16A1901     0.0000
      6  C6        38.6870   21.3960   57.4280 C.3   1901  16A1901     0.0000
      7  C7        38.7360   22.5470   58.4640 C.3   1901  16A1901     0.0003
      8  C8        37.5070   23.4830   58.5680 C.3   1901  16A1901     0.0047
      9  C9        36.9710   24.0980   57.2530 C.3   1901  16A1901     0.0257
     10  C10       37.9210   25.0600   56.5010 C.2   1901  16A1901    -0.0307
     11  C11       37.6030   25.3000   55.0040 C.2   1901  16A1901    -0.0307
     12  C12       38.7580   25.8800   54.1730 C.3   1901  16A1901     0.0257
     13  C13       39.4610   24.8060   53.3350 C.3   1901  16A1901     0.0046
     14  C14       40.6650   25.3780   52.5900 C.3   1901  16A1901    -0.0018
     15  C15       41.4470   24.1870   52.0100 C.3   1901  16A1901    -0.0222
     16  C16       42.7490   24.7290   51.3860 C.3   1901  16A1901    -0.0733
     17  N1        43.8620   23.9170   50.7290 N.4   1901  16A1901     0.3857
     18  C17       45.0240   24.3880   50.2470 C.3   1901  16A1901    -0.0960
     19  C18       44.2960   22.7790   51.6270 C.3   1901  16A1901    -0.0960
     20  C19       43.2960   23.2360   49.5030 C.3   1901  16A1901    -0.0960
@<TRIPOS>BOND
     1    20    17    1
     2    18    17    1
     3    17    16    1
     4    17    19    1
     5    16    15    1
     6    15    14    1
     7    14    13    1
     8    13    12    1
     9    12    11    1
    10     1     2    1
    11    11    10    2
    12     2     3    1
    13     3     4    1
    14     4     5    1
    15    10     9    1
    16     5     6    1
    17     9     8    1
    18     6     7    1
    19     7     8    1
