@<TRIPOS>MOLECULE
1tpy_SAH_A_1.pdb
 26 28 0 0 0
SMALL
GASTEIGER

@<TRIPOS>ATOM
      1  N         44.6890   23.4950   43.1210 N.3   1900  SAH1900    -0.1208
      2  CA        45.9750   23.6980   43.7890 C.3   1900  SAH1900     0.1952
      3  CB        45.8920   24.8030   44.8730 C.3   1900  SAH1900     0.0422
      4  CG        44.8580   24.6390   45.9870 C.3   1900  SAH1900     0.0597
      5  SD        44.8840   25.9950   47.1910 S.3   1900  SAH1900    -0.1375
      6  C         46.4740   22.3960   44.4170 C.2   1900  SAH1900     0.3819
      7  O         45.7000   21.4220   44.4430 O.co2 1900  SAH1900    -0.2441
      8  OXT       47.6260   22.3660   44.8900 O.co2 1900  SAH1900    -0.2441
      9  C5'       43.3340   26.8610   46.8270 C.3   1900  SAH1900     0.0899
     10  C4'       43.4200   27.5800   45.4720 C.3   1900  SAH1900     0.1630
     11  O4'       42.1260   27.9870   44.9660 O.3   1900  SAH1900    -0.3153
     12  C3'       44.2770   28.8440   45.5080 C.3   1900  SAH1900     0.2168
     13  O3'       45.0980   28.8860   44.3270 O.3   1900  SAH1900    -0.2175
     14  C2'       43.2660   29.9540   45.5260 C.3   1900  SAH1900     0.2569
     15  O2'       43.8260   31.1900   45.0490 O.3   1900  SAH1900    -0.2130
     16  C1'       42.2000   29.3850   44.6480 C.3   1900  SAH1900     0.3185
     17  N9        40.8360   30.0470   44.7820 N.pl3 1900  SAH1900    -0.1439
     18  C8        40.0470   30.2750   45.8640 C.3   1900  SAH1900     0.3377
     19  N7        38.9170   30.8670   45.6430 N.2   1900  SAH1900    -0.2095
     20  C5        38.9510   31.0580   44.2580 C.2   1900  SAH1900     0.2526
     21  C6        38.0510   31.6430   43.3260 C.2   1900  SAH1900     0.4393
     22  N6        36.8830   32.1680   43.6870 N.pl3 1900  SAH1900     0.2180
     23  N1        38.4150   31.6610   42.0000 N.2   1900  SAH1900     0.0021
     24  C2        39.6020   31.1300   41.6230 C.3   1900  SAH1900     0.5254
     25  N3        40.5290   30.5560   42.4060 N.2   1900  SAH1900    -0.0055
     26  C4        40.1290   30.5550   43.7280 C.2   1900  SAH1900     0.3518
@<TRIPOS>BOND
     1    24    23    1
     2    24    25    1
     3    23    21    2
     4    25    26    2
     5     1     2    1
     6    21    22    1
     7    21    20    1
     8    26    20    1
     9    26    17    1
    10     2     6    1
    11     2     3    1
    12    20    19    2
    13    13    12    1
    14     6     7   ar
    15     6     8   ar
    16    16    17    1
    17    16    11    1
    18    16    14    1
    19    17    18    1
    20     3     4    1
    21    11    10    1
    22    15    14    1
    23    10    12    1
    24    10     9    1
    25    12    14    1
    26    19    18    1
    27     4     5    1
    28     9     5    1
