@<TRIPOS>MOLECULE
1tpz_GDP_A_1.pdb
 28 30 0 0 0
SMALL
GASTEIGER

@<TRIPOS>ATOM
      1  PB         4.9510    5.5190   32.7040 P.3   1500  GDP1500     0.5373
      2  O1B        3.9220    4.5980   32.2290 O.3   1500  GDP1500    -0.1143
      3  O2B        5.3360    5.3640   34.1410 O.3   1500  GDP1500    -0.1143
      4  O3B        6.3090    5.4340   31.9970 O.2   1500  GDP1500    -0.2221
      5  O3A        4.3510    7.1030   32.7110 O.3   1500  GDP1500    -0.2261
      6  PA         3.8330    7.8440   31.3630 P.3   1500  GDP1500     0.2231
      7  O1A        4.8610    8.9160   31.4290 O.3   1500  GDP1500    -0.4370
      8  O2A        3.8560    7.1130   30.0680 O.2   1500  GDP1500    -0.5169
      9  O5'        2.5000    8.4910   31.8890 O.3   1500  GDP1500    -0.3111
     10  C5'        1.2420    7.8410   31.9920 C.3   1500  GDP1500     0.1813
     11  C4'        0.1670    8.8450   31.5110 C.3   1500  GDP1500     0.1799
     12  O4'       -0.0550   10.0170   32.3770 O.3   1500  GDP1500    -0.3326
     13  C3'        0.4020    9.5530   30.1280 C.3   1500  GDP1500     0.2158
     14  O3'       -0.9380    9.6760   29.5610 O.3   1500  GDP1500    -0.2175
     15  C2'        1.0120   10.9170   30.4740 C.3   1500  GDP1500     0.2310
     16  O2'        0.8130   11.9380   29.5040 O.3   1500  GDP1500    -0.2158
     17  C1'        0.3910   11.2280   31.8040 C.3   1500  GDP1500     0.2293
     18  N9         1.2990   11.9070   32.7980 N.pl3 1500  GDP1500    -0.2354
     19  C8         2.5650   11.6420   33.2630 C.3   1500  GDP1500     0.2246
     20  N7         2.9830   12.5090   34.1400 N.2   1500  GDP1500    -0.2322
     21  C5         1.9450   13.4160   34.2840 C.2   1500  GDP1500     0.2182
     22  C6         1.7760   14.6090   35.1020 C.1   1500  GDP1500     0.2372
     23  O6         2.6000   15.0950   35.9060 O.2   1500  GDP1500    -0.2069
     24  N1         0.4910   15.2500   34.9140 N.2   1500  GDP1500    -0.2485
     25  C2        -0.5110   14.8020   34.0460 C.1   1500  GDP1500     0.2531
     26  N2        -1.6280   15.5230   34.0060 N.pl3 1500  GDP1500    -0.0226
     27  N3        -0.3640   13.6790   33.2700 N.2   1500  GDP1500    -0.3074
     28  C4         0.8720   13.0640   33.4520 C.2   1500  GDP1500     0.2300
@<TRIPOS>BOND
     1    16    15    1
     2    14    13    1
     3     8     6    2
     4    13    15    1
     5    13    11    1
     6    15    17    1
     7     6     7    1
     8     6     9    1
     9     6     5    1
    10    11    10    1
    11    11    12    1
    12    17    12    1
    13    17    18    1
    14     9    10    1
    15     4     1    2
    16     2     1    1
    17     1     5    1
    18     1     3    1
    19    18    19    1
    20    18    28    1
    21    19    20    1
    22    27    28    2
    23    27    25    2
    24    28    21    1
    25    26    25    1
    26    25    24    2
    27    20    21    2
    28    21    22    1
    29    24    22    2
    30    22    23    2
