@<TRIPOS>MOLECULE
1tq2_GNP_A_1.pdb
 32 34 0 0 0
SMALL
GASTEIGER

@<TRIPOS>ATOM
      1  PG         5.5170    2.3340   30.6960 P.3   500  GNP500      0.4884
      2  O1G        5.9350    2.0700   32.2100 O.3   500  GNP500     -0.1240
      3  O2G        6.7340    2.3220   29.9340 O.2   500  GNP500     -0.2331
      4  O3G        4.5310    1.1700   30.3410 O.3   500  GNP500     -0.1240
      5  N3B        4.6980    3.7290   30.7270 N.3   500  GNP500     -0.0163
      6  PB         5.6070    5.2000   31.1030 P.3   500  GNP500      0.4669
      7  O1B        6.1020    5.1820   32.5070 O.3   500  GNP500     -0.1253
      8  O2B        6.6520    5.3140   30.2870 O.2   500  GNP500     -0.2351
      9  O3A        4.7260    6.4800   31.1190 O.3   500  GNP500     -0.2360
     10  PA         4.0820    7.3730   29.8170 P.3   500  GNP500      0.2220
     11  O1A        5.0930    8.4300   29.5180 O.3   500  GNP500     -0.4370
     12  O2A        3.7520    6.2530   28.8200 O.2   500  GNP500     -0.5170
     13  O5'        2.7560    7.9420   30.3950 O.3   500  GNP500     -0.3111
     14  C5'        1.4870    7.3790   29.9510 C.3   500  GNP500      0.1813
     15  C4'        0.5530    8.3570   29.4190 C.3   500  GNP500      0.1799
     16  O4'        0.3830    9.4500   30.4390 O.3   500  GNP500     -0.3326
     17  C3'        0.9010    9.2180   28.1440 C.3   500  GNP500      0.2158
     18  O3'       -0.5340    9.3380   27.5990 O.3   500  GNP500     -0.2175
     19  C2'        1.2480   10.7090   28.5580 C.3   500  GNP500      0.2310
     20  O2'        0.5760   11.6850   27.6620 O.3   500  GNP500     -0.2158
     21  C1'        0.5740   10.8430   29.9780 C.3   500  GNP500      0.2293
     22  N9         1.4500   11.5750   30.9690 N.pl3 500  GNP500     -0.2354
     23  C8         2.7980   11.0180   31.2560 C.3   500  GNP500      0.2246
     24  N7         3.0560   12.0450   32.1510 N.2   500  GNP500     -0.2322
     25  C5         2.2080   13.0320   32.4410 C.2   500  GNP500      0.2182
     26  C6         1.9200   14.2060   33.1660 C.1   500  GNP500      0.2372
     27  O6         2.9390   14.5790   33.9750 O.2   500  GNP500     -0.2069
     28  N1         0.7800   14.9410   33.1170 N.2   500  GNP500     -0.2485
     29  C2        -0.2980   14.4420   32.1840 C.1   500  GNP500      0.2531
     30  N2        -1.3370   15.1820   32.1900 N.pl3 500  GNP500     -0.0226
     31  N3        -0.0700   13.3930   31.5240 N.2   500  GNP500     -0.3074
     32  C4         1.0610   12.7000   31.5990 C.2   500  GNP500      0.2300
@<TRIPOS>BOND
     1    18    17    1
     2    20    19    1
     3    17    19    1
     4    17    15    1
     5    19    21    1
     6    12    10    2
     7    15    14    1
     8    15    16    1
     9    11    10    1
    10    10    13    1
    11    10     9    1
    12     3     1    2
    13    14    13    1
    14    21    16    1
    15    21    22    1
    16     8     6    2
    17     4     1    1
    18     1     5    1
    19     1     2    1
    20     5     6    1
    21    22    23    1
    22    22    32    1
    23     6     9    1
    24     6     7    1
    25    23    24    1
    26    31    32    2
    27    31    29    2
    28    32    25    1
    29    24    25    2
    30    29    30    1
    31    29    28    2
    32    25    26    1
    33    28    26    2
    34    26    27    2
