@<TRIPOS>MOLECULE
1tq4_GDP_A_1.pdb
 28 30 0 0 0
SMALL
GASTEIGER

@<TRIPOS>ATOM
      1  PB         9.6810   25.2450   36.8220 P.3   500  GDP500      0.5373
      2  O1B        8.9710   26.1030   37.7580 O.3   500  GDP500     -0.1143
      3  O2B        8.9760   23.9910   36.4100 O.3   500  GDP500     -0.1143
      4  O3B       10.0170   25.8680   35.4480 O.2   500  GDP500     -0.2221
      5  O3A       11.0390   24.5870   37.5810 O.3   500  GDP500     -0.2261
      6  PA        12.2030   25.5230   38.2220 P.3   500  GDP500      0.2231
      7  O1A       13.2380   25.0210   37.2790 O.2   500  GDP500     -0.5169
      8  O2A       12.0560   26.9930   38.1790 O.3   500  GDP500     -0.4370
      9  O5'       12.4830   24.7830   39.5990 O.3   500  GDP500     -0.3111
     10  C5'       11.7590   24.9460   40.8100 C.3   500  GDP500      0.1813
     11  C4'       12.7840   25.0580   41.9680 C.3   500  GDP500      0.1799
     12  O4'       13.5040   23.8180   42.3300 O.3   500  GDP500     -0.3326
     13  C3'       13.9910   26.0460   41.7710 C.3   500  GDP500      0.2158
     14  O3'       14.1880   26.6390   43.0920 O.3   500  GDP500     -0.2175
     15  C2'       15.1780   25.1680   41.3440 C.3   500  GDP500      0.2310
     16  O2'       16.4620   25.6890   41.6730 O.3   500  GDP500     -0.2158
     17  C1'       14.8830   23.8490   42.0020 C.3   500  GDP500      0.2293
     18  N9        15.1740   22.6370   41.1520 N.pl3 500  GDP500     -0.2354
     19  C8        14.8320   22.2810   39.8680 C.3   500  GDP500      0.2246
     20  N7        15.2990   21.1180   39.5110 N.2   500  GDP500     -0.2322
     21  C5        15.9990   20.6520   40.6100 C.2   500  GDP500      0.2182
     22  C6        16.7470   19.4300   40.8590 C.1   500  GDP500      0.2372
     23  O6        16.9200   18.4840   40.0750 O.2   500  GDP500     -0.2069
     24  N1        17.3250   19.3710   42.1790 N.2   500  GDP500     -0.2485
     25  C2        17.2010   20.3690   43.1520 C.1   500  GDP500      0.2531
     26  N2        17.8050   20.1400   44.3170 N.pl3 500  GDP500     -0.0226
     27  N3        16.4940   21.5320   42.9310 N.2   500  GDP500     -0.3074
     28  C4        15.9410   21.5840   41.6580 C.2   500  GDP500      0.2300
@<TRIPOS>BOND
     1     4     1    2
     2     3     1    1
     3     1     5    1
     4     1     2    1
     5     7     6    2
     6     5     6    1
     7     8     6    1
     8     6     9    1
     9    20    19    1
    10    20    21    2
    11     9    10    1
    12    19    18    1
    13    23    22    2
    14    21    22    1
    15    21    28    1
    16    10    11    1
    17    22    24    2
    18    18    28    1
    19    18    17    1
    20    15    16    1
    21    15    13    1
    22    15    17    1
    23    28    27    2
    24    13    11    1
    25    13    14    1
    26    11    12    1
    27    17    12    1
    28    24    25    2
    29    27    25    2
    30    25    26    1
