@<TRIPOS>MOLECULE
1tq6_GNP_A_1.pdb
 32 34 0 0 0
SMALL
GASTEIGER

@<TRIPOS>ATOM
      1  PG         9.6070   25.7790   40.2870 P.3   500  GNP500      0.4884
      2  O1G        8.9670   24.3130   40.2710 O.3   500  GNP500     -0.1240
      3  O2G       10.1120   26.0320   38.9610 O.2   500  GNP500     -0.2331
      4  O3G        8.4470   26.7490   40.7000 O.3   500  GNP500     -0.1240
      5  N3B       10.7050   25.7270   41.4570 N.3   500  GNP500     -0.0163
      6  PB        12.0610   24.6720   41.1340 P.3   500  GNP500      0.4669
      7  O1B       11.6300   23.2450   41.0720 O.3   500  GNP500     -0.1253
      8  O2B       12.6040   24.9880   39.9830 O.2   500  GNP500     -0.2351
      9  O3A       13.1000   24.6360   42.2680 O.3   500  GNP500     -0.2360
     10  PA        14.7470   24.8150   42.0850 P.3   500  GNP500      0.2220
     11  O1A       15.1340   23.9660   40.8960 O.2   500  GNP500     -0.5170
     12  O2A       14.8900   26.3240   42.0930 O.3   500  GNP500     -0.4370
     13  O5'       15.2160   24.2590   43.4390 O.3   500  GNP500     -0.3111
     14  C5'       15.6230   25.2480   44.4050 C.3   500  GNP500      0.1813
     15  C4'       16.5810   24.7510   45.3240 C.3   500  GNP500      0.1799
     16  O4'       16.6200   23.2250   45.2010 O.3   500  GNP500     -0.3326
     17  C3'       18.1090   25.0640   45.1880 C.3   500  GNP500      0.2158
     18  O3'       18.3710   25.2380   46.6790 O.3   500  GNP500     -0.2175
     19  C2'       18.9300   23.7280   44.8510 C.3   500  GNP500      0.2310
     20  O2'       19.9700   23.5090   45.9210 O.3   500  GNP500     -0.2158
     21  C1'       17.9370   22.5820   45.1080 C.3   500  GNP500      0.2293
     22  N9        18.0180   21.4400   44.1120 N.pl3 500  GNP500     -0.2354
     23  C8        17.3820   21.4700   42.7600 C.3   500  GNP500      0.2246
     24  N7        17.8630   20.1700   42.5000 N.2   500  GNP500     -0.2322
     25  C5        18.6110   19.4410   43.3780 C.2   500  GNP500      0.2182
     26  C6        19.3230   18.2330   43.7310 C.1   500  GNP500      0.2372
     27  O6        19.2990   17.2860   42.7420 O.2   500  GNP500     -0.2069
     28  N1        19.9770   17.9890   44.9000 N.2   500  GNP500     -0.2485
     29  C2        19.9300   19.1160   45.9180 C.1   500  GNP500      0.2531
     30  N2        20.5450   18.8530   47.0020 N.pl3 500  GNP500     -0.0226
     31  N3        19.3180   20.1620   45.6250 N.2   500  GNP500     -0.3074
     32  C4        18.7010   20.3720   44.4970 C.2   500  GNP500      0.2300
@<TRIPOS>BOND
     1     3     1    2
     2     8     6    2
     3     2     1    1
     4     1     4    1
     5     1     5    1
     6    11    10    2
     7     7     6    1
     8     6     5    1
     9     6     9    1
    10    10    12    1
    11    10     9    1
    12    10    13    1
    13    24    23    1
    14    24    25    2
    15    27    26    2
    16    23    22    1
    17    25    26    1
    18    25    32    1
    19    13    14    1
    20    26    28    2
    21    22    32    1
    22    22    21    1
    23    14    15    1
    24    32    31    2
    25    19    21    1
    26    19    17    1
    27    19    20    1
    28    28    29    2
    29    21    16    1
    30    17    15    1
    31    17    18    1
    32    16    15    1
    33    31    29    2
    34    29    30    1
