@<TRIPOS>MOLECULE
1tq7_0G6_B_1.pdb
 30 31 0 0 0
SMALL
GASTEIGER

@<TRIPOS>ATOM
      1  N         27.6360   32.3210   23.9510 N.3   301  0G6301     -0.1228
      2  CA        27.3600   31.6600   22.6770 C.3   301  0G6301      0.1721
      3  C         26.4350   32.5250   21.8100 C.2   301  0G6301      0.2437
      4  O         26.7900   33.6470   21.4230 O.2   301  0G6301     -0.2733
      5  CB        28.6660   31.3880   21.9280 C.3   301  0G6301      0.0547
      6  CG        28.4810   30.5970   20.6700 C.ar  301  0G6301     -0.0202
      7  CD1       27.9570   29.3100   20.7210 C.ar  301  0G6301     -0.0042
      8  CD2       28.7920   31.1460   19.4300 C.ar  301  0G6301     -0.0042
      9  CE1       27.7410   28.5770   19.5560 C.ar  301  0G6301     -0.0003
     10  CE2       28.5800   30.4220   18.2550 C.ar  301  0G6301     -0.0003
     11  CZ        28.0510   29.1350   18.3190 C.ar  301  0G6301     -0.0000
     12  N1        25.2410   32.0050   21.4790 N.am  301  0G6301     -0.2718
     13  CA1       24.3030   32.7810   20.6600 C.3   301  0G6301      0.1535
     14  C1        23.7830   33.9630   21.4810 C.2   301  0G6301      0.2595
     15  O1        23.6710   33.8710   22.7030 O.2   301  0G6301     -0.2716
     16  CB1       23.1900   31.7780   20.3500 C.3   301  0G6301      0.0310
     17  CG1       23.8720   30.4480   20.4440 C.3   301  0G6301      0.0237
     18  CD        24.7780   30.6140   21.6400 C.3   301  0G6301      0.0939
     19  N2        23.4730   35.0680   20.8120 N.am  301  0G6301     -0.2032
     20  CA2       22.9560   36.2450   21.4970 C.3   301  0G6301      0.1257
     21  C2        21.5310   36.4960   21.0510 C.3   301  0G6301      0.1718
     22  O2        20.8090   37.2310   21.7520 O.3   301  0G6301     -0.2213
     23  CB2       23.8250   37.4710   21.2060 C.3   301  0G6301      0.0280
     24  CG2       25.1540   37.4460   21.9350 C.3   301  0G6301      0.0488
     25  CD3       25.9730   38.7110   21.7310 C.3   301  0G6301      0.2205
     26  NE        27.0880   38.7300   22.6730 N.pl3 301  0G6301     -0.0865
     27  CZ1       28.0660   39.6310   22.6820 C.cat 301  0G6301      0.5346
     28  NH1       28.0870   40.6120   21.7850 N.pl3 301  0G6301      0.1354
     29  NH2       29.0210   39.5560   23.6010 N.pl3 301  0G6301      0.1354
     30  C3        20.7720   34.9320   20.6330 C.3   301  0G6301      0.0373
@<TRIPOS>BOND
     1    10    11   ar
     2    10     8   ar
     3    11     9   ar
     4     8     6   ar
     5     9     7   ar
     6    16    17    1
     7    16    13    1
     8    17    18    1
     9    30    21    1
    10    13    12    1
    11    13    14    1
    12     6     7   ar
    13     6     5    1
    14    19    14   am
    15    19    20    1
    16    21    20    1
    17    21    22    1
    18    23    20    1
    19    23    24    1
    20     4     3    2
    21    12    18    1
    22    12     3   am
    23    14    15    2
    24    25    24    1
    25    25    26    1
    26    28    27    1
    27     3     2    1
    28     5     2    1
    29    26    27    2
    30     2     1    1
    31    27    29    1
