@<TRIPOS>MOLECULE
1tq9_CPA_A_1.pdb
 37 41 0 0 0
SMALL
GASTEIGER

@<TRIPOS>ATOM
      1  P         11.7930    7.3670   18.1800 P.3   126  CPA126      0.2141
      2  O1P       12.9780    7.0930   17.3460 O.2   126  CPA126     -0.5172
      3  O2P       10.8920    8.4900   17.8480 O.3   126  CPA126     -0.4373
      4  O5D        9.4560    4.5990   21.7410 O.3   126  CPA126     -0.2176
      5  C5X       10.0920    3.8830   20.6610 C.3   126  CPA126      0.2140
      6  C4X        9.6210    4.4400   19.3450 C.3   126  CPA126      0.1774
      7  O4D        8.1930    4.2780   19.2900 O.3   126  CPA126     -0.3339
      8  C3X        9.8540    5.9360   19.1530 C.3   126  CPA126      0.1557
      9  O3D       10.8940    6.0600   18.2090 O.3   126  CPA126     -0.3139
     10  C2X        8.6510    6.4170   18.3350 C.3   126  CPA126      0.0845
     11  C1X        7.6890    5.2350   18.3970 C.3   126  CPA126      0.2089
     12  N1C        6.2770    5.5100   18.6810 N.am  126  CPA126     -0.1802
     13  CC2        5.5510    6.2420   17.7460 C.1   126  CPA126      0.2756
     14  N3C        4.2300    6.4120   17.9290 N.2   126  CPA126     -0.3024
     15  CC4        3.6350    5.9050   19.0110 C.2   126  CPA126      0.2346
     16  CC5        4.3670    5.1980   20.0050 C.2   126  CPA126      0.0687
     17  CC6        5.6740    5.0300   19.8070 C.2   126  CPA126      0.0835
     18  O2C        6.1470    6.7200   16.7680 O.2   126  CPA126     -0.1925
     19  N4C        2.3150    6.0710   19.1430 N.pl3 126  CPA126     -0.0921
     20  O5B       12.2840    7.5850   19.6680 O.3   126  CPA126     -0.3114
     21  C5B       13.4150    6.8440   20.1600 C.3   126  CPA126      0.1812
     22  C4B       14.6280    7.7400   20.2140 C.3   126  CPA126      0.1795
     23  O4B       14.2160    8.9260   20.8950 O.3   126  CPA126     -0.3155
     24  C3B       15.7830    7.1540   21.0160 C.3   126  CPA126      0.1883
     25  O3B       16.7680    6.7990   20.0770 O.3   126  CPA126     -0.2202
     26  C2B       16.3420    8.3190   21.8220 C.3   126  CPA126      0.1151
     27  C1B       15.1940    9.3230   21.8100 C.3   126  CPA126      0.2873
     28  N9A       14.5030    9.7100   23.0300 N.pl3 126  CPA126     -0.1460
     29  C8A       13.5800    9.0310   23.7770 C.3   126  CPA126      0.3377
     30  N7A       13.0020    9.7790   24.6880 N.2   126  CPA126     -0.2095
     31  C5A       13.6170   11.0120   24.5530 C.2   126  CPA126      0.2526
     32  C6A       13.4260   12.2510   25.1920 C.2   126  CPA126      0.4393
     33  N6A       12.4590   12.4870   26.0770 N.pl3 126  CPA126      0.2180
     34  N1A       14.2490   13.2670   24.8550 N.2   126  CPA126      0.0021
     35  C2A       15.1670   13.0590   23.9010 C.3   126  CPA126      0.5254
     36  N3A       15.4040   11.9580   23.1920 N.2   126  CPA126     -0.0055
     37  C4A       14.5880   10.9640   23.5750 C.2   126  CPA126      0.3518
@<TRIPOS>BOND
     1    18    13    2
     2     2     1    2
     3    13    14    2
     4    13    12   am
     5     3     1    1
     6    14    15    2
     7     1     9    1
     8     1    20    1
     9     9     8    1
    10    10    11    1
    11    10     8    1
    12    11    12    1
    13    11     7    1
    14    12    17    1
    15    15    19    1
    16    15    16    1
    17     8     6    1
    18     7     6    1
    19     6     5    1
    20    20    21    1
    21    17    16    2
    22    25    24    1
    23    21    22    1
    24    22    23    1
    25    22    24    1
    26     5     4    1
    27    23    27    1
    28    24    26    1
    29    27    26    1
    30    27    28    1
    31    28    37    1
    32    28    29    1
    33    36    37    2
    34    36    35    1
    35    37    31    1
    36    29    30    1
    37    35    34    1
    38    31    30    2
    39    31    32    1
    40    34    32    2
    41    32    33    1
