@<TRIPOS>MOLECULE
1tqf_32P_A_1.pdb
 40 42 0 0 0
SMALL
GASTEIGER

@<TRIPOS>ATOM
      1  C1        29.1450   47.9380   -1.4330 C.ar  401  32P401     -0.0003
      2  C2        29.6830   48.6860   -0.3040 C.ar  401  32P401     -0.0000
      3  C3        28.9440   48.9120    0.9340 C.ar  401  32P401     -0.0003
      4  C4        27.6110   48.3430    1.0500 C.ar  401  32P401     -0.0025
      5  C5        27.0730   47.5700   -0.0740 C.ar  401  32P401      0.0028
      6  C6        27.8150   47.3690   -1.3180 C.ar  401  32P401     -0.0025
      7  S1        25.7840   45.3610    0.8680 S.3   401  32P401      0.0347
      8  O1        26.8070   44.5430   -0.0520 O.3   401  32P401     -0.3601
      9  O2        24.4800   44.7680    0.7460 O.3   401  32P401     -0.0613
     10  O3        26.3500   45.5060    2.1580 O.3   401  32P401     -0.0613
     11  C7        25.7000   46.9510    0.0570 C.3   401  32P401      0.1933
     12  C8        27.9080   43.9220    0.5350 C.ar  401  32P401      0.1746
     13  C9        27.9110   42.4880    0.5710 C.ar  401  32P401      0.0766
     14  C10       29.0410   41.7640    1.0760 C.ar  401  32P401      0.1426
     15  C11       30.1700   42.5090    1.5700 C.ar  401  32P401      0.0417
     16  C12       30.1950   43.9430    1.5680 C.ar  401  32P401      0.0612
     17  C13       29.0560   44.6430    1.0390 C.ar  401  32P401      0.0445
     18  O4        28.9570   40.3800    0.9750 O.3   401  32P401     -0.4655
     19  C14       31.3560   44.7110    2.0600 C.2   401  32P401      0.2652
     20  C15       29.8550   39.4890    1.6800 C.3   401  32P401      0.2911
     21  C16       31.2210   39.4660    1.0150 C.2   401  32P401      0.2859
     22  N1        32.1790   38.9480    1.8100 N.am  401  32P401     -0.2023
     23  O5        31.3680   39.8700   -0.1400 O.2   401  32P401     -0.2693
     24  N2        32.0960   44.1180    3.0160 N.am  401  32P401     -0.1989
     25  O6        31.6650   45.8270    1.6380 O.2   401  32P401     -0.2684
     26  C17       33.1220   44.8870    3.7140 C.3   401  32P401      0.1178
     27  C18       34.3680   44.0050    3.8410 C.3   401  32P401      0.0283
     28  C19       34.6720   41.2220    0.1430 C.3   401  32P401      0.0206
     29  C20       34.3900   41.0360    1.6310 C.3   401  32P401      0.0034
     30  C21       34.5560   39.5900    2.0620 C.3   401  32P401      0.0235
     31  C22       33.5440   38.6830    1.3730 C.3   401  32P401      0.1153
     32  N3        34.7350   42.7940   -1.7160 N.3   401  32P401     -0.1314
     33  C23       34.4590   42.6720   -0.2750 C.3   401  32P401      0.1093
     34  C24       32.2830   44.4750    6.1330 C.ar  401  32P401     -0.0003
     35  C25       32.6680   45.3850    5.0380 C.ar  401  32P401     -0.0024
     36  C26       32.6390   46.8350    5.1450 C.ar  401  32P401     -0.0003
     37  C27       32.2320   47.4130    6.3880 C.ar  401  32P401      0.0294
     38  C28       31.9080   46.5040    7.4680 C.ar  401  32P401      0.1401
     39  C29       31.9150   45.0580    7.3940 C.ar  401  32P401      0.0294
     40  F1        31.5670   47.0590    8.6200 F     401  32P401     -0.2042
@<TRIPOS>BOND
     1    32    33    1
     2     1     6   ar
     3     1     2   ar
     4     6     5   ar
     5     2     3   ar
     6    33    28    1
     7    23    21    2
     8     5    11    1
     9     5     4   ar
    10     8    12    1
    11     8     7    1
    12    11     7    1
    13    28    29    1
    14    12    13   ar
    15    12    17   ar
    16    13    14   ar
    17     9     7    1
    18     7    10    1
    19     3     4   ar
    20    18    14    1
    21    18    20    1
    22    21    20    1
    23    21    22   am
    24    17    16   ar
    25    14    15   ar
    26    31    22    1
    27    31    30    1
    28    16    15   ar
    29    16    19    1
    30    29    30    1
    31    25    19    2
    32    19    24   am
    33    24    26    1
    34    26    27    1
    35    26    35    1
    36    35    36   ar
    37    35    34   ar
    38    36    37   ar
    39    34    39   ar
    40    37    38   ar
    41    39    38   ar
    42    38    40    1
