@<TRIPOS>MOLECULE
1tqm_ANP_A_1.pdb
 31 33 0 0 0
SMALL
GASTEIGER

@<TRIPOS>ATOM
      1  PG        42.1730   21.7460   25.1150 P.3   283  ANP283      0.4884
      2  O1G       43.1560   22.3660   26.2010 O.3   283  ANP283     -0.1240
      3  O2G       40.8990   20.9730   25.6730 O.3   283  ANP283     -0.1240
      4  O3G       41.5820   22.9890   24.3350 O.2   283  ANP283     -0.2331
      5  PB        44.4740   20.6460   23.5920 P.3   283  ANP283      0.4669
      6  O1B       45.3380   21.3830   24.6570 O.3   283  ANP283     -0.1253
      7  O2B       45.3350   19.3160   23.4570 O.2   283  ANP283     -0.2351
      8  N3B       42.8290   20.5070   24.0280 N.3   283  ANP283     -0.0163
      9  PA        44.3510   22.8590   21.8110 P.3   283  ANP283      0.2220
     10  O1A       43.9560   22.9880   20.2050 O.2   283  ANP283     -0.5170
     11  O2A       43.1810   23.5030   22.6040 O.3   283  ANP283     -0.4370
     12  O3A       44.7370   21.3950   22.1850 O.3   283  ANP283     -0.2360
     13  O5'       45.7180   23.6090   21.9370 O.3   283  ANP283     -0.3111
     14  C5'       46.2990   23.9020   23.2770 C.3   283  ANP283      0.1813
     15  C4'       46.5600   25.4020   23.4070 C.3   283  ANP283      0.1821
     16  O4'       47.5970   25.9820   22.5530 O.3   283  ANP283     -0.3135
     17  C3'       45.3140   26.2750   23.2990 C.3   283  ANP283      0.2184
     18  O3'       44.3000   26.3180   24.3430 O.3   283  ANP283     -0.2174
     19  C2'       45.8340   27.5500   22.7770 C.3   283  ANP283      0.2570
     20  O2'       46.0930   28.2880   24.0090 O.3   283  ANP283     -0.2130
     21  C1'       47.1890   27.2420   22.1400 C.3   283  ANP283      0.3186
     22  N9        46.9450   27.0570   20.6560 N.pl3 283  ANP283     -0.1439
     23  C8        46.6530   25.9260   19.9780 C.3   283  ANP283      0.3377
     24  N7        46.4090   26.1230   18.6390 N.2   283  ANP283     -0.2095
     25  C5        46.6340   27.4280   18.4690 C.2   283  ANP283      0.2526
     26  C6        46.5870   28.4280   17.4310 C.2   283  ANP283      0.4393
     27  N6        46.3010   27.9800   16.1950 N.pl3 283  ANP283      0.2180
     28  N1        46.8600   29.7370   17.6930 N.2   283  ANP283      0.0021
     29  C2        47.1680   30.2090   18.9410 C.3   283  ANP283      0.5254
     30  N3        47.2290   29.3970   19.9910 N.2   283  ANP283     -0.0055
     31  C4        46.8810   28.0040   19.7900 C.2   283  ANP283      0.3518
@<TRIPOS>BOND
     1    27    26    1
     2    26    28    2
     3    26    25    1
     4    28    29    1
     5    25    24    2
     6    25    31    1
     7    24    23    1
     8    29    30    1
     9    31    30    2
    10    31    22    1
    11    23    22    1
    12    10     9    2
    13    22    21    1
    14     9    13    1
    15     9    12    1
    16     9    11    1
    17    13    14    1
    18    21    16    1
    19    21    19    1
    20    12     5    1
    21    16    15    1
    22    19    17    1
    23    19    20    1
    24    14    15    1
    25    17    15    1
    26    17    18    1
    27     7     5    2
    28     5     8    1
    29     5     6    1
    30     8     1    1
    31     4     1    2
    32     1     3    1
    33     1     2    1
