@<TRIPOS>MOLECULE
1tqn_HEM_A_1.pdb
 43 50 0 0 0
SMALL
GASTEIGER

@<TRIPOS>ATOM
      1  CHA      -15.5600  -19.7210  -10.6460 C.2   508  HEM508      0.0000
      2  CHB      -16.4520  -22.2960  -14.5150 C.2   508  HEM508      0.0000
      3  CHC      -16.8140  -26.1480  -11.8200 C.2   508  HEM508      0.0000
      4  CHD      -15.5520  -23.6430   -7.9980 C.2   508  HEM508      0.0000
      5  C1A      -15.5970  -20.0500  -12.0140 C.ar  508  HEM508      0.0000
      6  C2A      -15.5440  -19.1830  -13.1210 C.ar  508  HEM508      0.0000
      7  C3A      -15.7800  -19.9560  -14.2230 C.ar  508  HEM508      0.0000
      8  C4A      -15.9760  -21.2510  -13.7640 C.ar  508  HEM508      0.0000
      9  CMA      -15.8110  -19.4710  -15.7460 C.3   508  HEM508      0.0000
     10  CAA      -15.2680  -17.6780  -13.1420 C.3   508  HEM508      0.0000
     11  CBA      -13.8040  -17.3800  -13.2960 C.3   508  HEM508      0.0000
     12  CGA      -13.4480  -15.9310  -13.4150 C.2   508  HEM508      0.0000
     13  O1A      -12.3760  -15.6410  -13.9490 O.co2 508  HEM508      0.0000
     14  O2A      -14.2090  -15.0420  -13.0600 O.co2 508  HEM508      0.0000
     15  C1B      -16.4760  -23.6570  -14.2360 C.2   508  HEM508      0.0000
     16  C2B      -16.8420  -24.6990  -15.1290 C.2   508  HEM508      0.0000
     17  C3B      -17.0050  -25.8400  -14.2930 C.2   508  HEM508      0.0000
     18  C4B      -16.7240  -25.3850  -12.9770 C.2   508  HEM508      0.0000
     19  CMB      -17.0040  -24.5590  -16.6340 C.3   508  HEM508      0.0000
     20  CAB      -17.3670  -27.1780  -14.6340 C.3   508  HEM508      0.0000
     21  CBB      -17.2050  -27.9260  -15.8960 C.3   508  HEM508      0.0000
     22  C1C      -16.3630  -25.9030  -10.5290 C.ar  508  HEM508      0.0000
     23  C2C      -16.3300  -26.8300   -9.5140 C.ar  508  HEM508      0.0000
     24  C3C      -15.9860  -26.1200   -8.3420 C.ar  508  HEM508      0.0000
     25  C4C      -15.8330  -24.7770   -8.7680 C.ar  508  HEM508      0.0000
     26  CMC      -16.6180  -28.3670   -9.6540 C.3   508  HEM508      0.0000
     27  CAC      -15.8060  -26.5190   -7.0290 C.3   508  HEM508      0.0000
     28  CBC      -15.0860  -27.6250   -6.5260 C.3   508  HEM508      0.0000
     29  C1D      -15.5610  -22.3340   -8.3620 C.2   508  HEM508      0.0000
     30  C2D      -15.4310  -21.2800   -7.4780 C.2   508  HEM508      0.0000
     31  C3D      -15.2790  -20.1410   -8.2130 C.2   508  HEM508      0.0000
     32  C4D      -15.3290  -20.5630   -9.5630 C.2   508  HEM508      0.0000
     33  CMD      -15.4470  -21.3450   -5.9370 C.3   508  HEM508      0.0000
     34  CAD      -15.0920  -18.7150   -7.6490 C.3   508  HEM508      0.0000
     35  CBD      -13.5780  -18.4190   -7.4350 C.3   508  HEM508      0.0000
     36  CGD      -13.1460  -17.0570   -6.8440 C.2   508  HEM508      0.0000
     37  O1D      -12.1060  -16.9550   -6.2190 O.co2 508  HEM508      0.0000
     38  O2D      -13.8670  -16.0610   -7.0050 O.co2 508  HEM508      0.0000
     39  NA       -15.8620  -21.3170  -12.4470 N.ar  508  HEM508      0.0000
     40  NB       -16.4150  -24.1090  -12.9670 N.2   508  HEM508      0.0000
     41  NC       -16.0690  -24.6860  -10.0990 N.ar  508  HEM508      0.0000
     42  ND       -15.4950  -21.8910   -9.6050 N.2   508  HEM508      0.0000
     43 FE        -15.8460  -23.0320  -11.2930 Fe    508  HEM508      0.0000
@<TRIPOS>BOND
     1    19    16    1
     2    21    20    1
     3     9     7    1
     4    16    17    2
     5    16    15    1
     6    20    17    1
     7     2    15    1
     8     2     8    2
     9    17    18    1
    10    15    40    2
    11     7     8   ar
    12     7     6   ar
    13    13    12   ar
    14     8    39   ar
    15    12    11    1
    16    12    14   ar
    17    11    10    1
    18    10     6    1
    19     6     5   ar
    20    18    40    1
    21    18     3    2
    22    40    43    1
    23    39     5   ar
    24    39    43    1
    25     5     1    2
    26     3    22    1
    27    43    41    1
    28    43    42    1
    29     1    32    1
    30    22    41   ar
    31    22    23   ar
    32    41    25   ar
    33    26    23    1
    34    42    32    2
    35    42    29    1
    36    32    31    1
    37    23    24   ar
    38    25    24   ar
    39    25     4    1
    40    29     4    2
    41    29    30    1
    42    24    27    1
    43    31    34    1
    44    31    30    2
    45    34    35    1
    46    30    33    1
    47    35    36    1
    48    27    28    1
    49    38    36   ar
    50    36    37   ar
