@<TRIPOS>MOLECULE
1tqp_ATP_A_1.pdb
 31 33 0 0 0
SMALL
GASTEIGER

@<TRIPOS>ATOM
      1  PG        43.2400   22.2530   25.6210 P.3   283  ATP283      0.5373
      2  O1G       43.8100   23.4900   26.2000 O.3   283  ATP283     -0.1143
      3  O2G       42.0480   22.5700   24.7180 O.2   283  ATP283     -0.2221
      4  O3G       42.7130   21.3800   26.7670 O.3   283  ATP283     -0.1143
      5  PB        44.4790   20.5060   23.5470 P.3   283  ATP283      0.2277
      6  O1B       43.0950   20.0500   23.2110 O.2   283  ATP283     -0.5168
      7  O2B       45.5130   19.3770   23.5280 O.3   283  ATP283     -0.4368
      8  O3B       44.4560   21.4140   24.9070 O.3   283  ATP283     -0.2258
      9  PA        44.7490   22.8910   21.9650 P.3   283  ATP283      0.2189
     10  O1A       44.2510   22.9470   20.4900 O.2   283  ATP283     -0.5170
     11  O2A       43.6970   23.5110   22.9250 O.3   283  ATP283     -0.4371
     12  O3A       45.1620   21.3870   22.3600 O.3   283  ATP283     -0.2700
     13  O5'       46.1410   23.6370   22.1670 O.3   283  ATP283     -0.3112
     14  C5'       46.6140   23.9150   23.5090 C.3   283  ATP283      0.1813
     15  C4'       46.9290   25.4100   23.6890 C.3   283  ATP283      0.1821
     16  O4'       47.9170   25.8790   22.7550 O.3   283  ATP283     -0.3135
     17  C3'       45.6710   26.2460   23.4410 C.3   283  ATP283      0.2184
     18  O3'       44.5840   26.2180   24.4200 O.3   283  ATP283     -0.2174
     19  C2'       46.2930   27.5580   23.0730 C.3   283  ATP283      0.2570
     20  O2'       46.6070   28.3460   24.2270 O.3   283  ATP283     -0.2130
     21  C1'       47.5600   27.1430   22.2690 C.3   283  ATP283      0.3186
     22  N9        47.2660   27.0160   20.7850 N.pl3 283  ATP283     -0.1439
     23  C8        46.9650   25.8980   20.0490 C.3   283  ATP283      0.3377
     24  N7        46.7120   26.1860   18.7860 N.2   283  ATP283     -0.2095
     25  C5        46.9330   27.5180   18.6450 C.2   283  ATP283      0.2526
     26  C6        46.8990   28.4040   17.5730 C.2   283  ATP283      0.4393
     27  N6        46.5230   28.1300   16.2870 N.pl3 283  ATP283      0.2180
     28  N1        47.1420   29.7160   17.8720 N.2   283  ATP283      0.0021
     29  C2        47.4520   30.1850   19.1450 C.3   283  ATP283      0.5254
     30  N3        47.6530   29.2930   20.1670 N.2   283  ATP283     -0.0055
     31  C4        47.2460   28.0290   19.9180 C.2   283  ATP283      0.3518
@<TRIPOS>BOND
     1    27    26    1
     2    26    28    2
     3    26    25    1
     4    28    29    1
     5    25    24    2
     6    25    31    1
     7    24    23    1
     8    29    30    1
     9    31    30    2
    10    31    22    1
    11    23    22    1
    12    10     9    2
    13    22    21    1
    14     9    13    1
    15     9    12    1
    16     9    11    1
    17    13    14    1
    18    21    16    1
    19    21    19    1
    20    12     5    1
    21    16    15    1
    22    19    17    1
    23    19    20    1
    24     6     5    2
    25    17    15    1
    26    17    18    1
    27    14    15    1
    28     7     5    1
    29     5     8    1
    30     3     1    2
    31     8     1    1
    32     1     2    1
    33     1     4    1
