@<TRIPOS>MOLECULE
1tqs_SSO_A_1.pdb
 20 20 0 0 0
SMALL
GASTEIGER

@<TRIPOS>ATOM
      1  C1        31.5200   66.4630    6.7110 C.3   1201  SSO1201     0.1946
      2  O1        31.6060   67.5640    5.7960 O.3   1201  SSO1201    -0.2194
      3  C2        32.6720   66.6360    7.7890 C.3   1201  SSO1201     0.1929
      4  O2        33.7970   65.8930    7.2650 O.3   1201  SSO1201    -0.2195
      5  C3        32.2390   66.0580    9.1460 C.3   1201  SSO1201     0.0839
      6  S4        30.5180   65.4300    8.9030 S.3   1201  SSO1201    -0.1702
      7  C5        30.2570   66.6020    7.4570 C.3   1201  SSO1201     0.1051
      8  C6        28.9520   66.4090    6.6840 C.3   1201  SSO1201     0.1946
      9  O6        27.7770   66.6270    7.5150 O.3   1201  SSO1201    -0.2194
     10  C7        29.7730   65.9680   10.4880 C.3   1201  SSO1201     0.0839
     11  C8        28.3500   65.3370   10.5580 C.3   1201  SSO1201     0.1938
     12  O8        28.4320   63.8710   10.7780 O.3   1201  SSO1201    -0.2194
     13  C9        27.4210   66.0730   11.5970 C.3   1201  SSO1201     0.2069
     14  C10       26.5900   65.2960   12.6180 C.3   1201  SSO1201     0.2165
     15  O10       25.5790   66.2680   12.8350 O.3   1201  SSO1201    -0.2175
     16  O9        27.3140   67.5640   11.4460 O.3   1201  SSO1201    -0.2383
     17  S9        27.5770   68.5980   12.4870 S.3   1201  SSO1201    -0.0001
     18  O11       28.9570   68.9970   12.4510 O.2   1201  SSO1201    -0.3452
     19  O12       27.2030   67.9790   13.7850 O.3   1201  SSO1201    -0.2682
     20  O13       26.8030   69.7730   12.1450 O.2   1201  SSO1201    -0.3452
@<TRIPOS>BOND
     1     2     1    1
     2     8     7    1
     3     8     9    1
     4     1     7    1
     5     1     3    1
     6     4     3    1
     7     7     6    1
     8     3     5    1
     9     6     5    1
    10     6    10    1
    11    10    11    1
    12    11    12    1
    13    11    13    1
    14    16    13    1
    15    16    17    1
    16    13    14    1
    17    20    17    2
    18    18    17    2
    19    17    19    1
    20    14    15    1
