@<TRIPOS>MOLECULE
1tqt_SSD_A_1.pdb
 20 20 0 0 0
SMALL
GASTEIGER

@<TRIPOS>ATOM
      1  C1        31.6450   66.3340    6.7900 C.3   1201  SSD1201     0.1946
      2  C2        32.6540   66.5060    7.9130 C.3   1201  SSD1201     0.1929
      3  C3        32.2120   65.7520    9.1450 C.3   1201  SSD1201     0.0839
      4  C5        30.2510   66.5090    7.4380 C.3   1201  SSD1201     0.1051
      5  S4        30.5050   65.3080    8.7660 S.3   1201  SSD1201    -0.1702
      6  O2        33.8040   66.0110    7.2820 O.3   1201  SSD1201    -0.2195
      7  O1        31.7150   67.3100    5.7710 O.3   1201  SSD1201    -0.2194
      8  C6        29.0730   66.2880    6.4860 C.3   1201  SSD1201     0.1946
      9  O6        27.9090   66.4140    7.2690 O.3   1201  SSD1201    -0.2194
     10  C7        29.6200   65.9470   10.1780 C.3   1201  SSD1201     0.0839
     11  C8        29.3380   65.0430   11.3310 C.3   1201  SSD1201     0.1938
     12  C9        28.2290   65.5730   12.2690 C.3   1201  SSD1201     0.2069
     13  C10       28.0340   64.6970   13.4960 C.3   1201  SSD1201     0.2165
     14  O10       29.1960   64.6730   14.2940 O.3   1201  SSD1201    -0.2175
     15  O8        28.7950   63.7910   10.8910 O.3   1201  SSD1201    -0.2194
     16  O9        28.4820   66.9020   12.7360 O.3   1201  SSD1201    -0.2383
     17  S9        27.6150   68.0770   12.3870 S.3   1201  SSD1201    -0.0001
     18  O11       27.2890   68.0650   10.9970 O.2   1201  SSD1201    -0.3452
     19  O12       28.3810   69.2550   12.8170 O.2   1201  SSD1201    -0.3452
     20  O13       26.4340   67.8860   13.1270 O.3   1201  SSD1201    -0.2682
@<TRIPOS>BOND
     1     7     1    1
     2     8     9    1
     3     8     4    1
     4     1     4    1
     5     1     2    1
     6     6     2    1
     7     4     5    1
     8     2     3    1
     9     5     3    1
    10     5    10    1
    11    10    11    1
    12    15    11    1
    13    18    17    2
    14    11    12    1
    15    12    16    1
    16    12    13    1
    17    17    16    1
    18    17    19    2
    19    17    20    1
    20    13    14    1
