@<TRIPOS>MOLECULE
1tqu_GHA_A_1.pdb
 20 20 0 0 0
SMALL
GASTEIGER

@<TRIPOS>ATOM
      1  C1        31.4470   66.1940    6.4380 C.3   1300  GHA1300     0.2005
      2  O1        31.3220   67.2130    5.4750 O.3   1300  GHA1300    -0.2188
      3  C2        32.6590   66.3200    7.3730 C.3   1300  GHA1300     0.1994
      4  O2        33.8480   65.6280    7.1030 O.3   1300  GHA1300    -0.2189
      5  C3        32.0790   66.0050    8.7380 C.3   1300  GHA1300     0.1082
      6  N4        30.7030   65.4780    8.6360 N.3   1300  GHA1300    -0.2651
      7  C5        30.3030   66.2740    7.4660 C.3   1300  GHA1300     0.1242
      8  C6        28.8900   65.9530    6.9300 C.3   1300  GHA1300     0.2006
      9  O6        27.6370   66.2490    7.4710 O.3   1300  GHA1300    -0.2188
     10  C7        29.8730   65.5920    9.8640 C.3   1300  GHA1300     0.1082
     11  C8        28.8710   64.4840   10.1390 C.3   1300  GHA1300     0.1997
     12  O8        28.9190   63.1050    9.9310 O.3   1300  GHA1300    -0.2189
     13  C9        27.6230   65.0900   10.7560 C.3   1300  GHA1300     0.2075
     14  C10       26.9200   64.0060   11.5300 C.3   1300  GHA1300     0.2165
     15  O10       26.1250   63.5470   10.4490 O.3   1300  GHA1300    -0.2175
     16  O9        27.0650   66.4120   10.8130 O.3   1300  GHA1300    -0.2383
     17  S9        27.0640   67.5000   11.7970 S.3   1300  GHA1300    -0.0001
     18  O11       28.4180   68.0310   11.9130 O.2   1300  GHA1300    -0.3452
     19  O12       26.6050   66.9440   13.0700 O.3   1300  GHA1300    -0.2682
     20  O13       26.1630   68.4420   11.2030 O.2   1300  GHA1300    -0.3452
@<TRIPOS>BOND
     1     2     1    1
     2     1     3    1
     3     1     7    1
     4     8     7    1
     5     8     9    1
     6     4     3    1
     7     3     5    1
     8     7     6    1
     9     6     5    1
    10     6    10    1
    11    10    11    1
    12    12    11    1
    13    11    13    1
    14    15    14    1
    15    13    16    1
    16    13    14    1
    17    16    17    1
    18    20    17    2
    19    17    18    2
    20    17    19    1
