@<TRIPOS>MOLECULE
1tqv_SSE_A_1.pdb
 20 19 0 0 0
SMALL
GASTEIGER

@<TRIPOS>ATOM
      1  C1        31.6210   66.2070    6.8500 C.3   1200  SSE1200     0.0000
      2  O1        31.5780   67.2200    5.8430 O.3   1200  SSE1200     0.0000
      3  C2        32.7350   66.4140    7.8510 C.3   1200  SSE1200     0.0000
      4  O2        33.8610   65.7800    7.2980 O.3   1200  SSE1200     0.0000
      5  C3        32.3900   66.0910    9.2940 C.3   1200  SSE1200     0.0000
      6 SE4        30.6840   65.1820    9.1680 Se    1200  SSE1200     0.0000
      7  C5        30.3610   66.4340    7.6700 C.3   1200  SSE1200     0.0000
      8  C6        29.1000   66.2220    6.8570 C.3   1200  SSE1200     0.0000
      9  O6        27.8200   66.3320    7.4530 O.3   1200  SSE1200     0.0000
     10  C7        29.7140   66.1150   10.5770 C.3   1200  SSE1200     0.0000
     11  C8        28.3760   65.3760   10.5370 C.3   1200  SSE1200     0.0000
     12  O8        28.3000   63.9150   10.6170 O.3   1200  SSE1200     0.0000
     13  C9        27.5440   66.0360   11.5900 C.3   1200  SSE1200     0.0000
     14  C10       26.9610   65.2520   12.7380 C.3   1200  SSE1200     0.0000
     15  O10       25.6350   65.7220   12.6030 O.3   1200  SSE1200     0.0000
     16  O9        27.5200   67.4710   11.4830 O.3   1200  SSE1200     0.0000
     17  S9        27.4140   68.5290   12.5270 S.3   1200  SSE1200     0.0000
     18  O11       26.9260   67.9790   13.8020 O.3   1200  SSE1200    -0.3300
     19  O12       26.5090   69.5250   11.9820 O.2   1200  SSE1200    -0.3300
     20  O13       28.7850   68.9930   12.6630 O.2   1200  SSE1200    -0.3300
@<TRIPOS>BOND
     1     2     1    1
     2     1     7    1
     3     1     3    1
     4     8     9    1
     5     8     7    1
     6     4     3    1
     7     3     5    1
     8     6     5    1
     9     6    10    1
    10    11    10    1
    11    11    12    1
    12    11    13    1
    13    16    13    1
    14    16    17    1
    15    13    14    1
    16    19    17    2
    17    17    20    2
    18    17    18    1
    19    15    14    1
