@<TRIPOS>MOLECULE
1tqw_BLT_A_1.pdb
 20 19 0 0 0
SMALL
GASTEIGER

@<TRIPOS>ATOM
      1  C1        31.6120   66.5900    6.7720 C.3   1300  BLT1300     0.0000
      2  O1        31.7170   67.6010    5.7240 O.3   1300  BLT1300     0.0000
      3  C2        32.8120   66.7330    7.7530 C.3   1300  BLT1300     0.0000
      4  O2        33.9270   66.0840    7.2430 O.3   1300  BLT1300     0.0000
      5  C3        32.3140   66.0380    9.0580 C.3   1300  BLT1300     0.0000
      6 SE4        30.4960   65.3860    8.8950 Se    1300  BLT1300     0.0000
      7  C5        30.2700   66.7460    7.4910 C.3   1300  BLT1300     0.0000
      8  C6        29.0540   66.4510    6.5270 C.3   1300  BLT1300     0.0000
      9  O6        27.8540   66.6750    7.3400 O.3   1300  BLT1300     0.0000
     10  C7        29.4980   66.1660   10.2370 C.3   1300  BLT1300     0.0000
     11  C8        29.1890   65.3580   11.4590 C.3   1300  BLT1300     0.0000
     12  O8        28.7570   64.0220   11.0320 O.3   1300  BLT1300     0.0000
     13  C9        28.1190   65.8830   12.3960 C.3   1300  BLT1300     0.0000
     14  C10       28.0040   64.9740   13.6450 C.3   1300  BLT1300     0.0000
     15  O10       29.2030   65.1150   14.4200 O.3   1300  BLT1300     0.0000
     16  O9        28.4820   67.2470   12.6990 O.3   1300  BLT1300     0.0000
     17  S9        27.6380   68.5020   12.3940 S.3   1300  BLT1300     0.0000
     18  O11       27.2830   68.5600   10.9890 O.2   1300  BLT1300    -0.3300
     19  O12       28.3870   69.6800   12.8220 O.2   1300  BLT1300    -0.3300
     20  O13       26.4760   68.2570   13.2480 O.3   1300  BLT1300    -0.3300
@<TRIPOS>BOND
     1     2     1    1
     2     8     9    1
     3     8     7    1
     4     1     7    1
     5     1     3    1
     6     4     3    1
     7     3     5    1
     8     6     5    1
     9     6    10    1
    10    10    11    1
    11    18    17    2
    12    12    11    1
    13    11    13    1
    14    17    16    1
    15    17    19    2
    16    17    20    1
    17    13    16    1
    18    13    14    1
    19    14    15    1
