@<TRIPOS>MOLECULE
1tr5_THP_A_1.pdb
 25 26 0 0 0
SMALL
GASTEIGER

@<TRIPOS>ATOM
      1  P2        18.0430    7.1260    4.9890 P.3   300  THP300      0.5327
      2  O4P       16.9410    7.9990    5.4720 O.3   300  THP300     -0.1145
      3  O5P       18.1120    5.7090    5.4000 O.3   300  THP300     -0.1145
      4  O6P       19.4080    7.8150    5.3530 O.2   300  THP300     -0.2224
      5  P1        21.0140   10.9950    0.5520 P.3   300  THP300      0.5326
      6  O1P       20.0210   12.0740    0.6950 O.3   300  THP300     -0.1145
      7  O2P       22.2150   10.9730   -0.3010 O.2   300  THP300     -0.2224
      8  O3P       21.4950   10.6310    2.0380 O.3   300  THP300     -0.1145
      9  O5'       18.0530    7.1890    3.4050 O.3   300  THP300     -0.2675
     10  C5'       17.9780    8.4070    2.6880 C.3   300  THP300      0.1857
     11  C4'       18.8540    8.2680    1.4520 C.3   300  THP300      0.1748
     12  O4'       18.3840    7.1950    0.6450 O.3   300  THP300     -0.3340
     13  C3'       18.7990    9.5060    0.5940 C.3   300  THP300      0.1600
     14  O3'       20.0920    9.7790    0.0410 O.3   300  THP300     -0.2700
     15  C2'       17.8320    9.2030   -0.4980 C.3   300  THP300      0.0847
     16  C1'       18.0130    7.6920   -0.6380 C.3   300  THP300      0.2089
     17  N1        16.7110    7.1780   -1.0700 N.am  300  THP300     -0.1794
     18  C2        16.5180    6.9970   -2.4310 C.1   300  THP300      0.2844
     19  O2        17.3620    7.2350   -3.2670 O.2   300  THP300     -0.1918
     20  N3        15.3000    6.5250   -2.8240 N.2   300  THP300     -0.2455
     21  C4        14.2520    6.2160   -1.9870 C.1   300  THP300      0.2134
     22  O4        13.2290    5.8060   -2.4950 O.2   300  THP300     -0.2088
     23  C5        14.4990    6.4210   -0.5560 C.2   300  THP300      0.0891
     24  C5M       13.4030    6.1160    0.4800 C.3   300  THP300      0.0462
     25  C6        15.7040    6.8900   -0.1550 C.2   300  THP300      0.0877
@<TRIPOS>BOND
     1    19    18    2
     2    20    18    2
     3    20    21    2
     4    22    21    2
     5    18    17   am
     6    21    23    1
     7    17    16    1
     8    17    25    1
     9    16    15    1
    10    16    12    1
    11    23    25    2
    12    23    24    1
    13    15    13    1
    14     7     5    2
    15    14     5    1
    16    14    13    1
    17     5     6    1
    18     5     8    1
    19    13    11    1
    20    12    11    1
    21    11    10    1
    22    10     9    1
    23     9     1    1
    24     1     4    2
    25     1     3    1
    26     1     2    1
