@<TRIPOS>MOLECULE
1tr7_DEG_A_1.pdb
 16 16 0 0 0
SMALL
GASTEIGER

@<TRIPOS>ATOM
      1  C3'       63.5950   22.5340   62.2480 C.3   501  DEG501      0.0026
      2  C4'       63.1920   23.3940   63.4210 C.3   501  DEG501      0.0001
      3  C1'       62.7310   22.1290   59.9480 C.3   501  DEG501      0.1449
      4  C2'       63.0790   23.1820   60.9780 C.3   501  DEG501      0.0322
      5  C2        59.5560   20.6760   59.2550 C.3   501  DEG501      0.2406
      6  O2        59.0920   20.1710   57.9910 O.3   501  DEG501     -0.2149
      7  C3        59.3100   19.7130   60.4400 C.3   501  DEG501      0.2198
      8  O3        57.9430   19.4030   60.6580 O.3   501  DEG501     -0.2174
      9  C4        60.0970   18.3990   60.2230 C.3   501  DEG501      0.2144
     10  O4        59.8910   17.4790   61.2840 O.3   501  DEG501     -0.2176
     11  C5        61.6370   18.6470   60.0680 C.3   501  DEG501      0.1835
     12  O5        61.9920   19.6500   59.0810 O.3   501  DEG501     -0.3256
     13  C6        62.3890   17.3590   59.7450 C.3   501  DEG501      0.2142
     14  O6        61.8900   16.7900   58.5530 O.3   501  DEG501     -0.2176
     15  O1        61.5250   21.4240   60.2470 O.3   501  DEG501     -0.3286
     16  C1        61.0640   20.7300   59.0790 C.3   501  DEG501      0.2695
@<TRIPOS>BOND
     1     6     5    1
     2    14    13    1
     3    16    12    1
     4    16     5    1
     5    16    15    1
     6    12    11    1
     7     5     7    1
     8    13    11    1
     9     3    15    1
    10     3     4    1
    11    11     9    1
    12     9     7    1
    13     9    10    1
    14     7     8    1
    15     4     1    1
    16     1     2    1
