@<TRIPOS>MOLECULE
1trd_PGH_B_1.pdb
 10 9 0 0 0
SMALL
GASTEIGER

@<TRIPOS>ATOM
      1  C1         5.5290  -23.8010  -16.5380 C.2   300  PGH300      0.1177
      2  C2         6.6220  -23.2920  -17.4190 C.3   300  PGH300      0.2044
      3  N2         4.3230  -23.2400  -16.9160 N.am  300  PGH300     -0.2004
      4  O2         3.3800  -23.2260  -16.0600 O.3   300  PGH300     -0.4026
      5  O1         5.7270  -24.6640  -15.6010 O.2   300  PGH300     -0.5374
      6  O1P        7.9420  -23.3230  -16.8780 O.3   300  PGH300     -0.2633
      7  O2P        9.1450  -22.2780  -18.8980 O.2   300  PGH300     -0.2224
      8  O3P       10.4930  -22.8840  -16.8370 O.3   300  PGH300     -0.1145
      9  O4P        9.5040  -24.7050  -18.2960 O.3   300  PGH300     -0.1145
     10  P          9.2890  -23.2910  -17.7190 P.3   300  PGH300      0.5330
@<TRIPOS>BOND
     1     7    10    2
     2     9    10    1
     3    10     6    1
     4    10     8    1
     5     2     6    1
     6     2     1    1
     7     3     1   am
     8     3     4    1
     9     1     5    2
