@<TRIPOS>MOLECULE
1trg_CB3_A_1.pdb
 35 37 0 0 0
SMALL
GASTEIGER

@<TRIPOS>ATOM
      1  N1        29.8320  -19.3920   35.1620 N.2   566  CB3566     -0.3286
      2  C2        28.5170  -19.5160   34.8250 C.1   566  CB3566      0.2515
      3  NA2       28.1240  -19.9160   33.6140 N.pl3 566  CB3566     -0.0226
      4  N3        27.5780  -19.2520   35.7340 N.2   566  CB3566     -0.2501
      5  C4        27.9070  -18.9390   37.0180 C.1   566  CB3566      0.2179
      6  O4        26.9080  -18.5670   37.8880 O.2   566  CB3566     -0.2085
      7  C4A       29.2450  -18.9650   37.4360 C.2   566  CB3566      0.1217
      8  C5        29.6400  -18.8320   38.7810 C.2   566  CB3566      0.0121
      9  C6        31.0050  -18.9000   39.1610 C.2   566  CB3566     -0.0054
     10  C7        31.9730  -19.0580   38.1660 C.2   566  CB3566     -0.0212
     11  C8        31.5680  -19.1960   36.8340 C.3   566  CB3566      0.0865
     12  C8A       30.2160  -19.1700   36.4470 C.2   566  CB3566      0.1389
     13  C9        31.4250  -19.1370   40.5680 C.3   566  CB3566      0.1182
     14  N10       30.3270  -19.4110   41.5150 N.pl3 566  CB3566     -0.2924
     15  C11       27.9630  -22.8260   41.3390 C.ar  566  CB3566      0.0551
     16  C12       29.1670  -22.7810   40.6380 C.ar  566  CB3566      0.0058
     17  C13       29.9510  -21.6350   40.7120 C.ar  566  CB3566      0.0147
     18  C14       29.5460  -20.5110   41.4740 C.ar  566  CB3566      0.0488
     19  C15       28.3180  -20.5600   42.1560 C.ar  566  CB3566      0.0147
     20  C16       27.5310  -21.7120   42.0860 C.ar  566  CB3566      0.0058
     21  C         27.2320  -24.0700   41.3640 C.2   566  CB3566      0.2652
     22  O         27.4000  -24.9690   40.5330 O.2   566  CB3566     -0.2684
     23  N         26.3550  -24.2050   42.3580 N.am  566  CB3566     -0.1918
     24  CA        25.5290  -25.3910   42.5960 C.3   566  CB3566      0.1986
     25  CB        25.9950  -26.0240   43.9090 C.3   566  CB3566      0.0451
     26  CG        27.0020  -27.1380   43.7300 C.3   566  CB3566      0.1164
     27  CD        27.8940  -27.3360   44.9400 C.2   566  CB3566      0.3649
     28  OE1       27.3820  -27.5020   46.0690 O.co2 566  CB3566     -0.2457
     29  OE2       29.1270  -27.3370   44.7550 O.co2 566  CB3566     -0.2457
     30  CT        24.0660  -24.9700   42.7000 C.2   566  CB3566      0.3842
     31  O1        23.8110  -23.8070   43.0750 O.co2 566  CB3566     -0.2437
     32  O2        23.1940  -25.8100   42.4060 O.co2 566  CB3566     -0.2437
     33  CP1       30.0900  -18.3750   42.5140 C.3   566  CB3566      0.1697
     34  CP2       28.9170  -17.6100   42.1610 C.1   566  CB3566     -0.0557
     35  CP3       27.9890  -16.9000   41.9100 C.1   566  CB3566     -0.0124
@<TRIPOS>BOND
     1     3     2    1
     2     2     1    2
     3     2     4    2
     4     1    12    2
     5     4     5    2
     6    12    11    1
     7    12     7    1
     8    11    10    1
     9     5     7    1
    10     5     6    2
    11     7     8    2
    12    10     9    2
    13     8     9    1
    14     9    13    1
    15    22    21    2
    16    13    14    1
    17    16    17   ar
    18    16    15   ar
    19    17    18   ar
    20    15    21    1
    21    15    20   ar
    22    21    23   am
    23    18    14    1
    24    18    19   ar
    25    14    33    1
    26    35    34    3
    27    20    19   ar
    28    34    33    1
    29    23    24    1
    30    32    30   ar
    31    24    30    1
    32    24    25    1
    33    30    31   ar
    34    26    25    1
    35    26    27    1
    36    29    27   ar
    37    27    28   ar
