@<TRIPOS>MOLECULE
1trg_UMP_A_1.pdb
 20 21 0 0 0
SMALL
GASTEIGER

@<TRIPOS>ATOM
      1  N1        28.6830  -15.1970   36.8870 N.am  565  UMP565     -0.2018
      2  C2        27.7210  -14.8810   37.8350 C.1   565  UMP565      0.2802
      3  N3        28.1980  -14.5950   39.0980 N.2   565  UMP565     -0.2497
      4  C4        29.5260  -14.6660   39.5080 C.1   565  UMP565      0.1941
      5  C5        30.5410  -15.2550   38.5510 C.3   565  UMP565      0.1579
      6  C6        30.1610  -15.0300   37.0810 C.3   565  UMP565      0.1249
      7  O2        26.5150  -14.8680   37.5540 O.2   565  UMP565     -0.1922
      8  O4        29.8720  -14.2270   40.6020 O.2   565  UMP565     -0.2133
      9  C1'       28.2580  -15.6840   35.5600 C.3   565  UMP565      0.2048
     10  C2'       28.0640  -14.5600   34.5410 C.3   565  UMP565      0.0871
     11  C3'       28.2350  -15.3100   33.2350 C.3   565  UMP565      0.1857
     12  C4'       29.4300  -16.2390   33.4480 C.3   565  UMP565      0.1774
     13  O3'       27.0960  -16.1480   33.0310 O.3   565  UMP565     -0.2203
     14  O4'       29.2740  -16.5420   34.8930 O.3   565  UMP565     -0.3342
     15  C5'       30.7450  -15.4860   33.2690 C.3   565  UMP565      0.1858
     16  O5'       30.7750  -15.3160   31.8250 O.3   565  UMP565     -0.2675
     17  P         31.1310  -13.9820   31.1610 P.3   565  UMP565      0.5327
     18  OP1       31.1800  -14.2570   29.6880 O.2   565  UMP565     -0.2224
     19  OP2       30.0740  -13.0010   31.4260 O.3   565  UMP565     -0.1145
     20  OP3       32.4370  -13.4950   31.5910 O.3   565  UMP565     -0.1145
@<TRIPOS>BOND
     1    18    17    2
     2    17    19    1
     3    17    20    1
     4    17    16    1
     5    16    15    1
     6    13    11    1
     7    11    12    1
     8    11    10    1
     9    15    12    1
    10    12    14    1
    11    10     9    1
    12    14     9    1
    13     9     1    1
    14     1     6    1
    15     1     2   am
    16     6     5    1
    17     7     2    2
    18     2     3    2
    19     5     4    1
    20     3     4    2
    21     4     8    2
