@<TRIPOS>MOLECULE
1trj_NUC_C_1.pdb
 27 0 0 0 0
SMALL
GASTEIGER

@<TRIPOS>ATOM
      1  P       -116.4630   14.4410   40.3410 P.3   1156  RG1156      0.0000
      2  P       -111.9300   12.9510   42.3410 P.3   1157  RA1157      0.0000
      3  P       -106.3510   13.2500   39.3950 P.3   1158  RC1158      0.0000
      4  P       -101.6250   15.0970   43.3660 P.3   1159  RU1159      0.0000
      5  P       -103.3360   16.4570   48.5960 P.3   1160  RG1160      0.0000
      6  P       -106.3320   16.1970   53.2060 P.3   1161  RC1161      0.0000
      7  P       -107.0500   13.8940   58.2820 P.3   1162  RC1162      0.0000
      8  P       -104.2670   11.4340   62.3650 P.3   1163  RC1163      0.0000
      9  P        -98.8770   10.5060   64.4900 P.3   1164  RG1164      0.0000
     10  P        -93.5250   11.3700   64.2260 P.3   1165  RC1165      0.0000
     11  P        -89.1010   14.8370   62.6670 P.3   1166  RG1166      0.0000
     12  P        -87.6080   19.4340   60.4040 P.3   1167  RA1167      0.0000
     13  P        -92.8470   21.1870   57.6020 P.3   1168  RA1168      0.0000
     14  P        -95.2510   20.7300   51.9970 P.3   1169  RA1169      0.0000
     15  P        -95.5390   17.6490   47.0320 P.3   1171  RG1171      0.0000
     16  P        -93.2340   11.1700   47.1280 P.3   1172  RC1172      0.0000
     17  P        -92.7120    6.0040   48.9600 P.3   1173  RG1173      0.0000
     18  P        -94.6130    1.5240   51.7060 P.3   1174  RG1174      0.0000
     19  P        -99.4650   -0.8550   53.8820 P.3   1175  RG1175      0.0000
     20  P       -105.5410   -1.2840   54.8050 P.3   1176  RA1176      0.0000
     21  P       -110.9900   -0.9910   53.4820 P.3   1177  RG1177      0.0000
     22  P       -115.4260    0.4010   49.8910 P.3   1178  RG1178      0.0000
     23  P       -115.4420   -0.4000   44.4090 P.3   1179  RA1179      0.0000
     24  P       -110.0680   -1.4180   43.5850 P.3   1180  RA1180      0.0000
     25  P       -104.6750    0.6680   42.8310 P.3   1181  RG1181      0.0000
     26  P        -99.3670    3.8240   43.0340 P.3   1182  RG1182      0.0000
     27  P        -96.1970    9.5950   41.4650 P.3   1183  RA1183      0.0000
@<TRIPOS>BOND
