@<TRIPOS>MOLECULE
1trk_TPP_A_1.pdb
 26 27 0 0 0
SMALL
GASTEIGER

@<TRIPOS>ATOM
      1  N1'       -3.1780   60.6700   19.9310 N.2   682  TPP682     -0.1861
      2  C2'       -2.2810   59.7110   20.2840 C.1   682  TPP682      0.0663
      3  CM2       -0.9570   60.1450   20.7190 C.3   682  TPP682      0.1291
      4  N3'       -2.5700   58.4410   20.3000 N.2   682  TPP682     -0.3368
      5  C4'       -3.7910   58.0580   19.8260 C.2   682  TPP682      0.2292
      6  N4'       -4.0140   56.7590   19.7870 N.pl3 682  TPP682     -0.0925
      7  C5'       -4.7820   59.0280   19.4340 C.2   682  TPP682      0.0654
      8  C6'       -4.4200   60.3320   19.5140 C.2   682  TPP682      0.1115
      9  C7'       -6.1340   58.6370   18.8830 C.3   682  TPP682      0.1237
     10  N3        -5.9050   57.9420   17.5360 N.pl3 682  TPP682     -0.2970
     11  C2        -5.8710   56.6110   17.3710 C.3   682  TPP682      0.1543
     12  S1        -5.7050   56.1480   15.7660 S.3   682  TPP682     -0.0951
     13  C5        -5.6890   57.8260   15.3090 C.2   682  TPP682      0.0164
     14  C4        -5.8200   58.6330   16.3960 C.2   682  TPP682      0.0279
     15  CM4       -5.9990   60.1240   16.3670 C.3   682  TPP682      0.0473
     16  C6        -5.7300   58.2900   13.8770 C.3   682  TPP682      0.0661
     17  C7        -5.6360   57.3030   12.7720 C.3   682  TPP682      0.1544
     18  O7        -4.2230   57.0840   12.5600 O.3   682  TPP682     -0.3134
     19  PA        -3.7430   56.1880   11.3490 P.3   682  TPP682      0.2230
     20  O1A       -2.4140   55.7260   11.8220 O.3   682  TPP682     -0.4370
     21  O2A       -3.8150   57.0030   10.1220 O.2   682  TPP682     -0.5169
     22  O3A       -4.8440   55.0160   11.2350 O.3   682  TPP682     -0.2261
     23  PB        -5.2070   53.8180   10.2800 P.3   682  TPP682      0.5373
     24  O1B       -4.9670   54.3610    8.9450 O.2   682  TPP682     -0.2221
     25  O2B       -6.6090   53.4530   10.5490 O.3   682  TPP682     -0.1143
     26  O3B       -4.2030   52.8190   10.7090 O.3   682  TPP682     -0.1143
@<TRIPOS>BOND
     1    24    23    2
     2    21    19    2
     3    23    25    1
     4    23    26    1
     5    23    22    1
     6    22    19    1
     7    19    20    1
     8    19    18    1
     9    18    17    1
    10    17    16    1
    11    16    13    1
    12    13    12    1
    13    13    14    2
    14    12    11    1
    15    15    14    1
    16    14    10    1
    17    11    10    1
    18    10     9    1
    19     9     7    1
    20     7     8    2
    21     7     5    1
    22     8     1    1
    23     6     5    1
    24     5     4    2
    25     1     2    2
    26     2     4    2
    27     2     3    1
