@<TRIPOS>MOLECULE
1tro_TRP_A_1.pdb
 13 14 0 0 0
SMALL
GASTEIGER

@<TRIPOS>ATOM
      1  N         20.7460    7.4570   25.1740 N.3   109  TRP109     -0.1326
      2  CA        22.2270    7.4820   24.9480 C.3   109  TRP109      0.0959
      3  C         22.6320    8.9690   24.6690 C.3   109  TRP109      0.0208
      4  CB        22.4120    6.5140   23.7450 C.3   109  TRP109      0.0433
      5  CG        23.7880    5.9160   23.6740 C.2   109  TRP109     -0.0144
      6  CD1       24.8430    6.5140   23.0150 C.2   109  TRP109      0.0907
      7  CD2       24.2900    4.7110   24.2140 C.3   109  TRP109      0.0819
      8  NE1       25.9860    5.7530   23.1700 N.2   109  TRP109     -0.2482
      9  CE2       25.6850    4.6820   23.9510 C.2   109  TRP109      0.0665
     10  CE3       23.7620    3.7990   25.1250 C.2   109  TRP109     -0.0164
     11  CZ2       26.5060    3.7040   24.5130 C.2   109  TRP109      0.0153
     12  CZ3       24.5170    2.6840   25.4770 C.2   109  TRP109     -0.0038
     13  CH2       25.8950    2.6260   25.1650 C.2   109  TRP109      0.0009
@<TRIPOS>BOND
     1     6     8    1
     2     6     5    2
     3     8     9    2
     4     5     4    1
     5     5     7    1
     6     4     2    1
     7     9     7    1
     8     9    11    1
     9     7    10    1
    10    11    13    2
    11     3     2    1
    12     2     1    1
    13    10    12    2
    14    13    12    1
