@<TRIPOS>MOLECULE
1trp_2GP_A_1.pdb
 24 26 0 0 0
SMALL
GASTEIGER

@<TRIPOS>ATOM
      1  P         48.1730   32.6860    0.9120 P.3   105  2GP105      0.5327
      2  O1P       49.4010   33.0660    0.1340 O.2   105  2GP105     -0.2224
      3  O2P       48.2500   31.2770    1.4410 O.3   105  2GP105     -0.1145
      4  O3P       47.7960   33.6870    1.9900 O.3   105  2GP105     -0.1145
      5  O5'       45.5650   33.4060   -5.1880 O.3   105  2GP105     -0.2176
      6  C5'       46.1730   32.2880   -4.5480 C.3   105  2GP105      0.2142
      7  C4'       46.2030   32.5240   -3.0600 C.3   105  2GP105      0.1827
      8  O4'       44.9420   32.0900   -2.4920 O.3   105  2GP105     -0.3326
      9  C3'       47.2620   31.7210   -2.3380 C.3   105  2GP105      0.2132
     10  O3'       48.4940   32.4250   -2.3420 O.3   105  2GP105     -0.2176
     11  C2'       46.6680   31.5960   -0.9430 C.3   105  2GP105      0.2054
     12  O2'       46.9740   32.7130   -0.1450 O.3   105  2GP105     -0.2657
     13  C1'       45.1610   31.5430   -1.2060 C.3   105  2GP105      0.2266
     14  N9        44.5870   30.1950   -1.1420 N.pl3 105  2GP105     -0.2354
     15  C8        43.3890   29.7960   -0.5810 C.3   105  2GP105      0.2246
     16  N7        43.1380   28.5180   -0.7230 N.2   105  2GP105     -0.2322
     17  C5        44.2350   28.0420   -1.4350 C.2   105  2GP105      0.2182
     18  C6        44.5490   26.7320   -1.8290 C.1   105  2GP105      0.2372
     19  O6        43.8540   25.7230   -1.6680 O.2   105  2GP105     -0.2069
     20  N1        45.7610   26.6790   -2.5260 N.2   105  2GP105     -0.2485
     21  C2        46.5630   27.7660   -2.7880 C.1   105  2GP105      0.2531
     22  N2        47.6940   27.5370   -3.4660 N.pl3 105  2GP105     -0.0226
     23  N3        46.2970   28.9960   -2.3820 N.2   105  2GP105     -0.3074
     24  C4        45.1330   29.0580   -1.7020 C.2   105  2GP105      0.2300
@<TRIPOS>BOND
     1     5     6    1
     2     6     7    1
     3    22    21    1
     4     7     8    1
     5     7     9    1
     6    21    20    2
     7    21    23    2
     8    20    18    2
     9     8    13    1
    10    23    24    2
    11    10     9    1
    12     9    11    1
    13    18    19    2
    14    18    17    1
    15    24    17    1
    16    24    14    1
    17    17    16    2
    18    13    14    1
    19    13    11    1
    20    14    15    1
    21    11    12    1
    22    16    15    1
    23    12     1    1
    24     2     1    2
    25     1     3    1
    26     1     4    1
