@<TRIPOS>MOLECULE
1trq_2GP_A_1.pdb
 24 26 0 0 0
SMALL
GASTEIGER

@<TRIPOS>ATOM
      1  P         48.2080   32.6340    1.0570 P.3   105  2GP105      0.5327
      2  O1P       47.7550   33.6000    2.1200 O.3   105  2GP105     -0.1145
      3  O2P       49.4370   33.0880    0.3050 O.2   105  2GP105     -0.2224
      4  O3P       48.3040   31.2140    1.5570 O.3   105  2GP105     -0.1145
      5  O5'       44.9750   31.4490   -4.7010 O.3   105  2GP105     -0.2176
      6  C5'       46.1890   32.1140   -4.4010 C.3   105  2GP105      0.2142
      7  C4'       46.2730   32.4120   -2.9170 C.3   105  2GP105      0.1827
      8  O4'       45.0220   32.0220   -2.2970 O.3   105  2GP105     -0.3326
      9  C3'       47.3410   31.6230   -2.1800 C.3   105  2GP105      0.2132
     10  O3'       48.5630   32.3360   -2.1950 O.3   105  2GP105     -0.2176
     11  C2'       46.7640   31.5090   -0.7710 C.3   105  2GP105      0.2054
     12  O2'       47.0360   32.6490   -0.0040 O.3   105  2GP105     -0.2657
     13  C1'       45.2630   31.4620   -1.0200 C.3   105  2GP105      0.2266
     14  N9        44.6980   30.1210   -0.9520 N.pl3 105  2GP105     -0.2354
     15  C8        43.5530   29.8320   -0.2460 C.3   105  2GP105      0.2246
     16  N7        43.1920   28.5820   -0.3300 N.2   105  2GP105     -0.2322
     17  C5        44.2020   27.9940   -1.0900 C.2   105  2GP105      0.2182
     18  C6        44.3830   26.6530   -1.4850 C.1   105  2GP105      0.2372
     19  O6        43.6740   25.6780   -1.2300 O.2   105  2GP105     -0.2069
     20  N1        45.5160   26.4870   -2.2720 N.2   105  2GP105     -0.2485
     21  C2        46.3720   27.4970   -2.6370 C.1   105  2GP105      0.2531
     22  N2        47.4090   27.1530   -3.4120 N.pl3 105  2GP105     -0.0226
     23  N3        46.2130   28.7600   -2.2820 N.2   105  2GP105     -0.3074
     24  C4        45.1210   28.9310   -1.4980 C.2   105  2GP105      0.2300
@<TRIPOS>BOND
     1     5     6    1
     2     6     7    1
     3    22    21    1
     4     7     8    1
     5     7     9    1
     6    21    23    2
     7    21    20    2
     8     8    13    1
     9    23    24    2
    10    20    18    2
    11    10     9    1
    12     9    11    1
    13    24    17    1
    14    24    14    1
    15    18    19    2
    16    18    17    1
    17    17    16    2
    18    13    14    1
    19    13    11    1
    20    14    15    1
    21    11    12    1
    22    16    15    1
    23    12     1    1
    24     3     1    2
    25     1     4    1
    26     1     2    1
