@<TRIPOS>MOLECULE
1trr_TRP_A_1.pdb
 15 16 0 0 0
SMALL
GASTEIGER

@<TRIPOS>ATOM
      1  N         10.4390   -8.9430    0.5440 N.3   109  TRP109     -0.1205
      2  CA        10.2830   -9.9100    1.6460 C.3   109  TRP109      0.1984
      3  C         10.5300  -11.2710    1.0780 C.2   109  TRP109      0.3822
      4  O         10.2400  -11.4250   -0.1160 O.co2 109  TRP109     -0.2440
      5  CB         8.8760   -9.8540    2.2060 C.3   109  TRP109      0.0549
      6  CG         8.7560  -10.4810    3.4930 C.2   109  TRP109     -0.0138
      7  CD1        8.3000  -11.7170    3.7370 C.2   109  TRP109      0.0907
      8  CD2        9.0810   -9.9040    4.7410 C.3   109  TRP109      0.0819
      9  NE1        8.3110  -11.9670    5.0710 N.2   109  TRP109     -0.2482
     10  CE2        8.7910  -10.8630    5.7180 C.2   109  TRP109      0.0665
     11  CE3        9.5900   -8.6670    5.1350 C.2   109  TRP109     -0.0164
     12  CZ2        8.9840  -10.6310    7.0710 C.2   109  TRP109      0.0153
     13  CZ3        9.7850   -8.4310    6.4650 C.2   109  TRP109     -0.0038
     14  CH2        9.4800   -9.4130    7.4280 C.2   109  TRP109      0.0009
     15  OXT       11.0380  -12.1520    1.8130 O.co2 109  TRP109     -0.2440
@<TRIPOS>BOND
     1     4     3   ar
     2     1     2    1
     3     3     2    1
     4     3    15   ar
     5     2     5    1
     6     5     6    1
     7     6     7    2
     8     6     8    1
     9     7     9    1
    10     8    11    1
    11     8    10    1
    12     9    10    2
    13    11    13    2
    14    10    12    1
    15    13    14    1
    16    12    14    2
