@<TRIPOS>MOLECULE
1ts6_HC4_A_1.pdb
 11 11 0 0 0
SMALL
GASTEIGER

@<TRIPOS>ATOM
      1  C1         3.5700  -12.0370    7.3640 C.2   169  HC4169      0.2343
      2  O1         3.4410  -12.2690    8.5870 O.2   169  HC4169     -0.2831
      3  C2         4.7690  -12.2770    6.5880 C.2   169  HC4169      0.0454
      4  C3         5.9140  -12.6300    7.1810 C.2   169  HC4169      0.0034
      5  C1'        7.0940  -13.0990    6.5470 C.ar  169  HC4169      0.0003
      6  C2'        8.2670  -13.3950    7.3590 C.ar  169  HC4169      0.0033
      7  C3'        9.4010  -13.9130    6.7850 C.ar  169  HC4169      0.0420
      8  C4'        9.4210  -14.2320    5.4290 C.ar  169  HC4169      0.1957
      9  C5'        8.2950  -13.9520    4.6330 C.ar  169  HC4169      0.0420
     10  C6'        7.1520  -13.4100    5.2060 C.ar  169  HC4169      0.0033
     11  O4'       10.5030  -14.7570    4.8630 O.3   169  HC4169     -0.2866
@<TRIPOS>BOND
     1     9    10   ar
     2     9     8   ar
     3    11     8    1
     4    10     5   ar
     5     8     7   ar
     6     5     4    1
     7     5     6   ar
     8     3     4    2
     9     3     1    1
    10     7     6   ar
    11     1     2    2
