@<TRIPOS>MOLECULE
1tsd_UMP_A_1.pdb
 20 21 0 0 0
SMALL
GASTEIGER

@<TRIPOS>ATOM
      1  N1        17.3890   20.2420   31.4440 N.am  267  UMP267     -0.1790
      2  C2        18.2890   20.1200   32.5180 C.1   267  UMP267      0.2844
      3  N3        19.1880   19.1180   32.5390 N.2   267  UMP267     -0.2452
      4  C4        19.3720   18.1550   31.5770 C.1   267  UMP267      0.2182
      5  C5        18.4600   18.2910   30.4630 C.2   267  UMP267      0.1242
      6  C6        17.5520   19.3120   30.4930 C.2   267  UMP267      0.0928
      7  O2        18.2730   20.8220   33.4280 O.2   267  UMP267     -0.1918
      8  O4        20.1590   17.2460   31.6800 O.2   267  UMP267     -0.2085
      9  C1'       16.4350   21.1410   31.2880 C.3   267  UMP267      0.2090
     10  C2'       16.7000   22.7000   31.1030 C.3   267  UMP267      0.0874
     11  C3'       15.3510   23.2030   30.5530 C.3   267  UMP267      0.1857
     12  C4'       14.9860   22.0340   29.6000 C.3   267  UMP267      0.1774
     13  O3'       14.3740   23.4090   31.5410 O.3   267  UMP267     -0.2203
     14  O4'       15.4200   20.8140   30.2580 O.3   267  UMP267     -0.3339
     15  C5'       15.3370   22.1420   28.2250 C.3   267  UMP267      0.1858
     16  O5'       14.7430   23.0560   27.4520 O.3   267  UMP267     -0.2675
     17  P         15.3370   24.0770   26.4030 P.3   267  UMP267      0.5327
     18  OP1       14.2750   24.9070   25.7790 O.3   267  UMP267     -0.1145
     19  OP2       16.3490   24.9000   27.4000 O.3   267  UMP267     -0.1145
     20  OP3       16.0990   23.1910   25.4110 O.2   267  UMP267     -0.2224
@<TRIPOS>BOND
     1    20    17    2
     2    18    17    1
     3    17    19    1
     4    17    16    1
     5    16    15    1
     6    15    12    1
     7    12    14    1
     8    12    11    1
     9    14     9    1
    10     5     6    2
    11     5     4    1
    12     6     1    1
    13    11    10    1
    14    11    13    1
    15    10     9    1
    16     9     1    1
    17     1     2   am
    18     4     8    2
    19     4     3    2
    20     2     3    2
    21     2     7    2
