@<TRIPOS>MOLECULE
1tsd_F89_A_1.pdb
 37 41 0 0 0
SMALL
GASTEIGER

@<TRIPOS>ATOM
      1  C1        14.7200   18.2690   33.0620 C.1   268  F89268      0.2000
      2  O1A       15.3600   18.1850   34.0970 O.2   268  F89268     -0.2127
      3  N2        13.7670   19.2120   32.9620 N.2   268  F89268     -0.2741
      4  C3        12.9960   19.3750   31.7440 C.1   268  F89268      0.1262
      5  C3M       11.9490   20.4330   31.6540 C.3   268  F89268      0.1438
      6  N4        13.1640   18.5840   30.7420 N.2   268  F89268     -0.3457
      7  C4A       14.1110   17.4900   30.7040 C.2   268  F89268      0.1415
      8  C5        14.2770   16.7140   29.5700 C.2   268  F89268      0.0300
      9  C6        15.1670   15.6550   29.5390 C.2   268  F89268      0.0021
     10  C6A       15.9890   15.3850   30.6300 C.ar  268  F89268     -0.0025
     11  C7        16.9230   14.3500   30.5800 C.ar  268  F89268     -0.0005
     12  C8        17.7370   14.0790   31.6600 C.ar  268  F89268     -0.0026
     13  C9        17.6840   14.8860   32.8030 C.ar  268  F89268     -0.0009
     14  C10       16.7370   15.9180   32.8920 C.ar  268  F89268     -0.0053
     15  C1B       15.8880   16.1920   31.8040 C.ar  268  F89268      0.0005
     16  C1A       14.9440   17.2580   31.8480 C.3   268  F89268      0.1939
     17  C11       18.6660   14.7620   33.9800 C.3   268  F89268      0.1385
     18  N12       19.3200   13.4520   34.1650 N.pl3 268  F89268     -0.2328
     19  C13       18.5060   12.3410   34.6280 C.ar  268  F89268      0.0654
     20  C14       17.1470   12.6940   34.8310 C.ar  268  F89268      0.0136
     21  C15       16.2580   11.7410   35.3010 C.ar  268  F89268      0.0033
     22  C16       16.7120   10.4270   35.5340 C.ar  268  F89268      0.0513
     23  C17       18.0580   10.0530   35.3470 C.ar  268  F89268      0.0056
     24  C18       18.9400   11.0370   34.9040 C.ar  268  F89268      0.0162
     25  C19       15.0250   11.9440   36.1490 C.3   268  F89268      0.1211
     26  C         15.5490    9.6310   36.0400 C.2   268  F89268      0.2494
     27  O         15.6620    8.4230   36.0260 O.2   268  F89268     -0.2699
     28  N         14.6400   10.5110   36.4420 N.am  268  F89268     -0.2636
     29  CA        13.5450   10.2480   37.4900 C.3   268  F89268      0.1800
     30  CT        14.3020    9.6190   38.7150 C.2   268  F89268      0.3825
     31  O1        14.5960   10.6140   39.6150 O.co2 268  F89268     -0.2438
     32  O2        14.5960    8.4120   38.7230 O.co2 268  F89268     -0.2438
     33  CB        12.5540    9.2240   36.7960 C.3   268  F89268      0.0433
     34  CG        11.6800   10.0340   35.7310 C.3   268  F89268      0.1163
     35  CD        11.2840    9.0680   34.6080 C.2   268  F89268      0.3649
     36  OE1       10.2190    9.1360   33.9860 O.co2 268  F89268     -0.2457
     37  OE2       12.2620    8.0980   34.5050 O.co2 268  F89268     -0.2457
@<TRIPOS>BOND
     1     9     8    2
     2     9    10    1
     3     8     7    1
     4    11    10   ar
     5    11    12   ar
     6    10    15   ar
     7     7     6    2
     8     7    16    1
     9     6     4    2
    10     5     4    1
    11    12    13   ar
    12     4     3    2
    13    15    16    1
    14    15    14   ar
    15    16     1    1
    16    13    14   ar
    17    13    17    1
    18     3     1    2
    19     1     2    2
    20    17    18    1
    21    36    35   ar
    22    18    19    1
    23    37    35   ar
    24    35    34    1
    25    19    20   ar
    26    19    24   ar
    27    20    21   ar
    28    24    23   ar
    29    21    22   ar
    30    21    25    1
    31    23    22   ar
    32    22    26    1
    33    34    33    1
    34    27    26    2
    35    26    28   am
    36    25    28    1
    37    28    29    1
    38    33    29    1
    39    29    30    1
    40    30    32   ar
    41    30    31   ar
