@<TRIPOS>MOLECULE
1tsi_4PB_A_1.pdb
 11 10 0 0 0
SMALL
GASTEIGER

@<TRIPOS>ATOM
      1  C1        36.2570   30.8760   19.4530 C.2   600  4PB600      0.0868
      2  C2        36.1360   31.1160   20.9330 C.3   600  4PB600      0.0517
      3  C3        35.0510   30.1260   21.3560 C.3   600  4PB600      0.0144
      4  C4        34.8020   29.9530   22.8710 C.3   600  4PB600      0.0594
      5  N         35.6270   31.7560   18.6790 N.am  600  4PB600     -0.2030
      6  O1        36.8980   29.9150   19.0440 O.2   600  4PB600     -0.5396
      7  ON        35.6400   31.7050   17.2760 O.3   600  4PB600     -0.4026
      8  P         33.3350   28.9660   23.2360 P.3   600  4PB600      0.1172
      9  O1P       32.0700   29.8110   23.0370 O.3   600  4PB600     -0.3571
     10  O2P       33.2020   27.7200   22.3420 O.2   600  4PB600     -0.4601
     11  O3P       33.4560   28.5380   24.7080 O.3   600  4PB600     -0.3571
@<TRIPOS>BOND
     1     7     5    1
     2     5     1   am
     3     6     1    2
     4     1     2    1
     5     2     3    1
     6     3     4    1
     7    10     8    2
     8     4     8    1
     9     9     8    1
    10     8    11    1
