@<TRIPOS>MOLECULE
1tsl_A15_A_1.pdb
 30 34 0 0 0
SMALL
GASTEIGER

@<TRIPOS>ATOM
      1  C1        20.8960   54.8800  -57.8540 C.2   318  A15318      0.3419
      2  C2        20.8040   56.2990  -58.1210 C.ar  318  A15318      0.0755
      3  C3        19.8920   56.7860  -59.1650 C.ar  318  A15318      0.0064
      4  C4        19.8430   58.1350  -59.5050 C.ar  318  A15318      0.0002
      5  C5        20.6830   59.0530  -58.8720 C.ar  318  A15318     -0.0000
      6  C6        21.6010   58.6210  -57.8210 C.ar  318  A15318      0.0000
      7  C7        22.5810   59.5380  -57.2680 C.ar  318  A15318     -0.0000
      8  C8        23.5540   59.0870  -56.3800 C.ar  318  A15318     -0.0002
      9  C9        23.5480   57.7700  -55.9310 C.ar  318  A15318     -0.0003
     10  C10       22.5690   56.7770  -56.4450 C.ar  318  A15318      0.0218
     11  C11       21.6370   57.2280  -57.4360 C.ar  318  A15318      0.0061
     12  C12       22.6700   55.3790  -56.0960 C.3   318  A15318      0.1923
     13  C13       24.0360   54.9750  -56.2250 C.ar  318  A15318      0.0226
     14  C14       24.5350   54.5720  -57.4770 C.ar  318  A15318      0.0143
     15  C15       25.8760   54.1710  -57.6070 C.ar  318  A15318      0.0963
     16  C16       26.7210   54.1720  -56.4870 C.ar  318  A15318      0.2061
     17  C17       26.2490   54.6070  -55.2480 C.ar  318  A15318      0.0427
     18  C18       24.9240   54.9920  -55.1100 C.ar  318  A15318      0.0030
     19  C19       22.2140   55.1210  -54.7420 C.ar  318  A15318      0.0226
     20  C20       22.1740   56.1200  -53.7300 C.ar  318  A15318      0.0143
     21  C21       21.7110   55.8070  -52.4360 C.ar  318  A15318      0.0963
     22  C22       21.3070   54.4980  -52.1310 C.ar  318  A15318      0.2061
     23  C23       21.3390   53.5000  -53.1190 C.ar  318  A15318      0.0427
     24  C24       21.7810   53.8060  -54.4020 C.ar  318  A15318      0.0030
     25  O1        21.7940   54.4490  -56.9110 O.3   318  A15318     -0.4399
     26  O2        20.2050   54.0660  -58.4680 O.2   318  A15318     -0.2449
     27  O3        28.0440   53.6830  -56.5930 O.3   318  A15318     -0.2857
     28  O4        20.8650   54.1770  -50.8130 O.3   318  A15318     -0.2857
     29 CL1        26.4820   53.6830  -59.1410 Cl    318  A15318     -0.0789
     30 CL2        21.5860   57.0360  -51.2420 Cl    318  A15318     -0.0789
@<TRIPOS>BOND
     1     4     3   ar
     2     4     5   ar
     3     3     2   ar
     4    29    15    1
     5     5     6   ar
     6    26     1    2
     7     2     1    1
     8     2    11   ar
     9     1    25    1
    10     6    11   ar
    11     6     7   ar
    12    15    14   ar
    13    15    16   ar
    14    14    13   ar
    15    11    10   ar
    16     7     8   ar
    17    25    12    1
    18    27    16    1
    19    16    17   ar
    20    10    12    1
    21    10     9   ar
    22     8     9   ar
    23    13    12    1
    24    13    18   ar
    25    12    19    1
    26    17    18   ar
    27    19    24   ar
    28    19    20   ar
    29    24    23   ar
    30    20    21   ar
    31    23    22   ar
    32    21    22   ar
    33    21    30    1
    34    22    28    1
