@<TRIPOS>MOLECULE
1tsm_MR2_A_1.pdb
 31 35 0 0 0
SMALL
GASTEIGER

@<TRIPOS>ATOM
      1  C1        19.1400   52.3650  -54.5110 C.2   318  MR2318      0.3419
      2  C2        19.2490   51.3070  -53.6750 C.ar  318  MR2318      0.0756
      3  C3        19.1820   49.9760  -54.2220 C.ar  318  MR2318      0.0064
      4  C4        19.1520   48.8770  -53.3460 C.ar  318  MR2318      0.0003
      5  C5        19.2090   49.0770  -51.9510 C.ar  318  MR2318      0.0016
      6  C6        19.3070   50.4360  -51.4290 C.ar  318  MR2318      0.0225
      7  C7        19.2630   50.6410  -49.9950 C.ar  318  MR2318      0.1428
      8  C8        19.1980   52.0120  -49.4880 C.ar  318  MR2318      0.0239
      9  C9        19.2130   53.0780  -50.3440 C.ar  318  MR2318      0.0014
     10  C10       19.2950   52.8300  -51.8180 C.ar  318  MR2318      0.0219
     11  C11       19.3150   51.5100  -52.3070 C.ar  318  MR2318      0.0077
     12  C12       19.1620   53.9250  -52.7170 C.3   318  MR2318      0.1922
     13  C13       17.9460   54.6200  -52.4750 C.ar  318  MR2318      0.0217
     14  C14       16.7900   53.9210  -51.9750 C.ar  318  MR2318      0.0030
     15  C15       15.6380   54.6100  -51.6260 C.ar  318  MR2318      0.0418
     16  C16       15.5790   55.9860  -51.8940 C.ar  318  MR2318      0.1957
     17  C17       16.6990   56.6870  -52.3590 C.ar  318  MR2318      0.0418
     18  C18       17.8610   56.0240  -52.6880 C.ar  318  MR2318      0.0030
     19  C19       20.2990   54.8550  -52.7160 C.ar  318  MR2318      0.0217
     20  C20       20.9020   55.2200  -53.9520 C.ar  318  MR2318      0.0030
     21  C21       21.9710   56.1140  -54.0190 C.ar  318  MR2318      0.0418
     22  C22       22.4350   56.7200  -52.8440 C.ar  318  MR2318      0.1957
     23  C23       21.7880   56.4720  -51.6250 C.ar  318  MR2318      0.0418
     24  C24       20.7650   55.5330  -51.5290 C.ar  318  MR2318      0.0030
     25  N1        19.2800   49.4160  -48.9600 N.pl3 318  MR2318      0.0577
     26  O1        19.0840   53.5120  -54.1160 O.3   318  MR2318     -0.4399
     27  O2        19.1240   52.1170  -55.7070 O.2   318  MR2318     -0.2449
     28  O3        14.3100   56.6030  -51.8670 O.3   318  MR2318     -0.2866
     29  O4        23.6010   57.5340  -52.8860 O.3   318  MR2318     -0.2866
     30  O5        18.8190   49.6150  -47.8250 O.2   318  MR2318     -0.1261
     31  O6        19.7410   48.4290  -49.3730 O.2   318  MR2318     -0.1261
@<TRIPOS>BOND
     1    27     1    2
     2     1    26    1
     3     1     2    1
     4     3     2   ar
     5     3     4   ar
     6    26    12    1
     7    21    20   ar
     8    21    22   ar
     9    20    19   ar
    10     2    11   ar
    11     4     5   ar
    12    29    22    1
    13    22    23   ar
    14    12    19    1
    15    12    13    1
    16    12    10    1
    17    19    24   ar
    18    18    13   ar
    19    18    17   ar
    20    13    14   ar
    21    17    16   ar
    22    11    10   ar
    23    11     6   ar
    24    14    15   ar
    25     5     6   ar
    26    16    28    1
    27    16    15   ar
    28    10     9   ar
    29    23    24   ar
    30     6     7   ar
    31     9     8   ar
    32     7     8   ar
    33     7    25    1
    34    31    25    2
    35    25    30    2
