@<TRIPOS>MOLECULE
1tsn_C2F_A_1.pdb
 33 35 0 0 0
SMALL
GASTEIGER

@<TRIPOS>ATOM
      1  N1        41.8850  -19.5550   41.6760 N.2   266  C2F266     -0.2726
      2  C2        43.2460  -19.6590   41.8960 C.1   266  C2F266      0.2603
      3  NA2       43.7590  -20.1490   43.0860 N.pl3 266  C2F266     -0.0221
      4  N3        44.1820  -19.3000   40.9290 N.2   266  C2F266     -0.2515
      5  C4        43.7560  -18.7950   39.6470 C.1   266  C2F266      0.2218
      6  O4        44.5110  -18.4600   38.7380 O.2   266  C2F266     -0.2109
      7  C4A       42.2610  -18.6890   39.4540 C.3   266  C2F266      0.2763
      8  N5        41.6810  -18.1750   38.2300 N.3   266  C2F266     -0.2435
      9  C6        40.4310  -18.6230   37.8440 C.3   266  C2F266      0.1062
     10  C7        39.4550  -18.5450   38.9770 C.3   266  C2F266      0.1547
     11  N8        40.0060  -18.9850   40.2610 N.2   266  C2F266     -0.2096
     12  C8A       41.3830  -19.0630   40.4650 C.1   266  C2F266      0.1050
     13  C9        40.4310  -20.0270   37.1840 C.3   266  C2F266      0.1302
     14  N10       41.4640  -19.9030   36.0790 N.pl3 266  C2F266     -0.2361
     15  C11       42.0100  -16.8290   37.7440 C.3   266  C2F266      0.0915
     16  C12       44.2790  -23.0870   35.5020 C.ar  266  C2F266      0.0551
     17  C13       43.4240  -23.0550   36.6130 C.ar  266  C2F266      0.0059
     18  C14       42.5270  -22.0290   36.8150 C.ar  266  C2F266      0.0162
     19  C15       42.4500  -20.9580   35.8930 C.ar  266  C2F266      0.0654
     20  C16       43.2890  -20.9990   34.7420 C.ar  266  C2F266      0.0162
     21  C17       44.1930  -22.0070   34.5730 C.ar  266  C2F266      0.0059
     22  C         45.2700  -24.2310   35.2710 C.2   266  C2F266      0.2652
     23  O         45.2940  -25.1540   36.1200 O.2   266  C2F266     -0.2684
     24  N         46.0830  -24.1570   34.1270 N.am  266  C2F266     -0.1918
     25  CA        46.9530  -25.3340   34.0350 C.3   266  C2F266      0.1986
     26  CB        46.3510  -26.2210   32.9220 C.3   266  C2F266      0.0451
     27  CG        45.4000  -25.9090   31.7440 C.3   266  C2F266      0.1164
     28  CD        44.3670  -27.0920   31.6170 C.2   266  C2F266      0.3649
     29  OE1       44.8790  -28.2500   31.7160 O.co2 266  C2F266     -0.2457
     30  OE2       43.1630  -26.7830   31.5320 O.co2 266  C2F266     -0.2457
     31  CT        48.3410  -24.8040   33.7560 C.2   266  C2F266      0.3842
     32  O1        48.3320  -23.6040   33.3910 O.co2 266  C2F266     -0.2437
     33  O2        49.2840  -25.5990   33.8830 O.co2 266  C2F266     -0.2437
@<TRIPOS>BOND
     1    30    28   ar
     2    28    29   ar
     3    28    27    1
     4    27    26    1
     5    26    25    1
     6    32    31   ar
     7    31    33   ar
     8    31    25    1
     9    25    24    1
    10    24    22   am
    11    21    20   ar
    12    21    16   ar
    13    20    19   ar
    14    22    16    1
    15    22    23    2
    16    16    17   ar
    17    19    14    1
    18    19    18   ar
    19    14    13    1
    20    17    18   ar
    21    13     9    1
    22    15     8    1
    23     9     8    1
    24     9    10    1
    25     8     7    1
    26     6     5    2
    27    10    11    1
    28     7     5    1
    29     7    12    1
    30     5     4    2
    31    11    12    2
    32    12     1    2
    33     4     2    2
    34     1     2    2
    35     2     3    1
