@<TRIPOS>MOLECULE
1tsn_UFP_A_1.pdb
 21 22 0 0 0
SMALL
GASTEIGER

@<TRIPOS>ATOM
      1  N1        43.4460  -15.2460   39.9040 N.am  265  UFP265     -0.1989
      2  C2        44.3560  -14.7980   38.9840 C.1   265  UFP265      0.2803
      3  N3        43.9470  -14.4280   37.7100 N.2   265  UFP265     -0.2470
      4  C4        42.6530  -14.5080   37.2200 C.1   265  UFP265      0.2265
      5  C5        41.5800  -15.4460   38.0400 C.3   265  UFP265      0.2980
      6  C6        41.9420  -15.2430   39.5940 C.3   265  UFP265      0.1597
      7  O2        45.5550  -14.6910   39.2020 O.2   265  UFP265     -0.1922
      8  O4        42.3260  -14.0620   36.1060 O.2   265  UFP265     -0.2106
      9  F5        40.3100  -15.2860   37.7130 F     265  UFP265     -0.2160
     10  C1'       43.7960  -15.7760   41.2100 C.3   265  UFP265      0.2049
     11  C2'       44.1610  -14.6620   42.1550 C.3   265  UFP265      0.0871
     12  C3'       43.8290  -15.3760   43.4710 C.3   265  UFP265      0.1857
     13  C4'       42.5630  -16.1690   43.1830 C.3   265  UFP265      0.1774
     14  O3'       44.9180  -16.2050   43.8390 O.3   265  UFP265     -0.2203
     15  O4'       42.5930  -16.4500   41.7420 O.3   265  UFP265     -0.3342
     16  C5'       41.2280  -15.4320   43.4720 C.3   265  UFP265      0.1858
     17  O5'       41.1120  -15.2990   44.9310 O.3   265  UFP265     -0.2675
     18  P         40.6820  -13.8990   45.5440 P.3   265  UFP265      0.5327
     19  O1P       39.3960  -13.4840   44.9800 O.2   265  UFP265     -0.2224
     20  O2P       41.7310  -12.8950   45.3910 O.3   265  UFP265     -0.1145
     21  O3P       40.6620  -14.4110   47.0270 O.3   265  UFP265     -0.1145
@<TRIPOS>BOND
     1     8     4    2
     2     4     3    2
     3     4     5    1
     4     3     2    2
     5     9     5    1
     6     5     6    1
     7     2     7    2
     8     2     1   am
     9     6     1    1
    10     1    10    1
    11    10    15    1
    12    10    11    1
    13    15    13    1
    14    11    12    1
    15    13    12    1
    16    13    16    1
    17    12    14    1
    18    16    17    1
    19    17    18    1
    20    19    18    2
    21    20    18    1
    22    18    21    1
