@<TRIPOS>MOLECULE
1tsv_UMP_A_1.pdb
 20 21 0 0 0
SMALL
GASTEIGER

@<TRIPOS>ATOM
      1  N1        14.4780   48.7240  -54.1800 N.am  317  UMP317     -0.1790
      2  C2        13.8840   47.5730  -53.6230 C.1   317  UMP317      0.2844
      3  N3        13.0460   47.7830  -52.5440 N.2   317  UMP317     -0.2452
      4  C4        12.7710   49.0380  -52.0070 C.1   317  UMP317      0.2182
      5  C5        13.4240   50.1590  -52.6500 C.2   317  UMP317      0.1242
      6  C6        14.2650   49.9320  -53.7330 C.2   317  UMP317      0.0928
      7  O2        14.0320   46.4210  -54.0160 O.2   317  UMP317     -0.1918
      8  O4        12.0050   49.1630  -51.0540 O.2   317  UMP317     -0.2085
      9  C1'       15.4790   48.6790  -55.2520 C.3   317  UMP317      0.2090
     10  C2'       14.9760   48.2180  -56.6210 C.3   317  UMP317      0.0874
     11  C3'       16.2260   48.4520  -57.4530 C.3   317  UMP317      0.1857
     12  C4'       16.7110   49.8670  -57.0920 C.3   317  UMP317      0.1774
     13  O3'       17.1700   47.4470  -57.0150 O.3   317  UMP317     -0.2203
     14  O4'       16.3050   49.8920  -55.6460 O.3   317  UMP317     -0.3339
     15  C5'       15.9090   50.9220  -57.8610 C.3   317  UMP317      0.1858
     16  O5'       16.3650   50.8260  -59.2460 O.3   317  UMP317     -0.2675
     17  P         15.8210   51.6810  -60.4910 P.3   317  UMP317      0.5327
     18  OP1       16.7450   51.6980  -61.6670 O.2   317  UMP317     -0.2224
     19  OP2       14.6320   50.9900  -61.0030 O.3   317  UMP317     -0.1145
     20  OP3       15.4760   53.0790  -60.0670 O.3   317  UMP317     -0.1145
@<TRIPOS>BOND
     1    18    17    2
     2    19    17    1
     3    17    20    1
     4    17    16    1
     5    16    15    1
     6    15    12    1
     7    11    12    1
     8    11    13    1
     9    11    10    1
    10    12    14    1
    11    10     9    1
    12    14     9    1
    13     9     1    1
    14     1     6    1
    15     1     2   am
    16     7     2    2
    17     6     5    2
    18     2     3    2
    19     5     4    1
    20     3     4    2
    21     4     8    2
