@<TRIPOS>MOLECULE
1tsx_UMP_A_1.pdb
 20 21 0 0 0
SMALL
GASTEIGER

@<TRIPOS>ATOM
      1  N1        14.4480   48.7040  -53.7130 N.am  317  UMP317     -0.1790
      2  C2        13.6820   47.6450  -53.1740 C.1   317  UMP317      0.2844
      3  N3        12.9550   47.9540  -52.0470 N.2   317  UMP317     -0.2452
      4  C4        12.9360   49.2100  -51.4450 C.1   317  UMP317      0.2182
      5  C5        13.7620   50.2400  -52.0660 C.2   317  UMP317      0.1242
      6  C6        14.4970   49.9250  -53.2060 C.2   317  UMP317      0.0928
      7  O2        13.6030   46.4960  -53.6030 O.2   317  UMP317     -0.1918
      8  O4        12.2210   49.4230  -50.4680 O.2   317  UMP317     -0.2085
      9  C1'       15.3390   48.5120  -54.8590 C.3   317  UMP317      0.2090
     10  C2'       14.6640   48.3240  -56.2170 C.3   317  UMP317      0.0874
     11  C3'       15.8910   48.2580  -57.1130 C.3   317  UMP317      0.1857
     12  C4'       16.7770   49.4450  -56.7160 C.3   317  UMP317      0.1774
     13  O3'       16.5880   47.0510  -56.7400 O.3   317  UMP317     -0.2203
     14  O4'       16.4260   49.5080  -55.2450 O.3   317  UMP317     -0.3339
     15  C5'       16.3010   50.7330  -57.3930 C.3   317  UMP317      0.1858
     16  O5'       16.5310   50.6970  -58.8360 O.3   317  UMP317     -0.2675
     17  P         15.5090   51.5120  -59.7920 P.3   317  UMP317      0.5327
     18  OP1       15.1950   52.8990  -59.3310 O.3   317  UMP317     -0.1145
     19  OP2       16.0170   51.5820  -61.1900 O.2   317  UMP317     -0.2224
     20  OP3       14.2930   50.6950  -59.7870 O.3   317  UMP317     -0.1145
@<TRIPOS>BOND
     1    19    17    2
     2    17    20    1
     3    17    18    1
     4    17    16    1
     5    16    15    1
     6    15    12    1
     7    11    13    1
     8    11    12    1
     9    11    10    1
    10    12    14    1
    11    10     9    1
    12    14     9    1
    13     9     1    1
    14     1     6    1
    15     1     2   am
    16     7     2    2
    17     6     5    2
    18     2     3    2
    19     5     4    1
    20     3     4    2
    21     4     8    2
