@<TRIPOS>MOLECULE
1tsy_UMP_A_1.pdb
 20 21 0 0 0
SMALL
GASTEIGER

@<TRIPOS>ATOM
      1  N1        14.4320   48.8460  -53.9840 N.am  317  UMP317     -0.1790
      2  C2        13.6810   47.7990  -53.4490 C.1   317  UMP317      0.2844
      3  N3        12.9580   48.0870  -52.3080 N.2   317  UMP317     -0.2452
      4  C4        12.9180   49.3370  -51.6860 C.1   317  UMP317      0.2182
      5  C5        13.7170   50.3590  -52.3230 C.2   317  UMP317      0.1242
      6  C6        14.4450   50.0460  -53.4640 C.2   317  UMP317      0.0928
      7  O2        13.5510   46.6740  -53.9080 O.2   317  UMP317     -0.1918
      8  O4        12.2290   49.5410  -50.6860 O.2   317  UMP317     -0.2085
      9  C1'       15.4310   48.7120  -55.0260 C.3   317  UMP317      0.2090
     10  C2'       14.9880   48.4110  -56.4520 C.3   317  UMP317      0.0874
     11  C3'       16.2850   48.6140  -57.2230 C.3   317  UMP317      0.1857
     12  C4'       16.8830   49.9300  -56.7110 C.3   317  UMP317      0.1774
     13  O3'       17.1560   47.5630  -56.7960 O.3   317  UMP317     -0.2203
     14  O4'       16.3330   49.8850  -55.3080 O.3   317  UMP317     -0.3339
     15  C5'       16.3040   51.1290  -57.4720 C.3   317  UMP317      0.1858
     16  O5'       16.8970   51.2580  -58.8460 O.3   317  UMP317     -0.2675
     17  P         15.9310   51.7260  -59.9750 P.3   317  UMP317      0.5327
     18  OP1       15.2600   53.0010  -59.6920 O.3   317  UMP317     -0.1145
     19  OP2       16.4480   51.8180  -61.3870 O.2   317  UMP317     -0.2224
     20  OP3       14.9570   50.6300  -59.8960 O.3   317  UMP317     -0.1145
@<TRIPOS>BOND
     1    19    17    2
     2    17    20    1
     3    17    18    1
     4    17    16    1
     5    16    15    1
     6    15    12    1
     7    11    13    1
     8    11    12    1
     9    11    10    1
    10    12    14    1
    11    10     9    1
    12    14     9    1
    13     9     1    1
    14     1     6    1
    15     1     2   am
    16     7     2    2
    17     6     5    2
    18     2     3    2
    19     5     4    1
    20     3     4    2
    21     4     8    2
