@<TRIPOS>MOLECULE
1tt1_KAI_A_1.pdb
 15 15 0 0 0
SMALL
GASTEIGER

@<TRIPOS>ATOM
      1  N          2.1690    0.5040   24.1980 N.3   998  KAI998     -0.2080
      2  CD         0.8890    0.0040   24.8850 C.3   998  KAI998      0.0933
      3  CD1       -0.9750   -0.0870   27.1820 C.2   998  KAI998     -0.0091
      4  CD2        0.7020   -0.2880   28.9520 C.3   998  KAI998      0.0264
      5  CA         3.1870    0.7010   25.2160 C.3   998  KAI998      0.1766
      6  CB         2.4360    0.9210   26.5050 C.3   998  KAI998      0.0434
      7  CB1        1.8050    2.3820   26.7350 C.3   998  KAI998      0.1164
      8  CG         1.3620   -0.1190   26.4070 C.3   998  KAI998      0.0382
      9  CG1        2.8530    3.3780   27.2490 C.2   998  KAI998      0.3649
     10  CG2        0.2610   -0.1620   27.5430 C.2   998  KAI998     -0.0428
     11  C          4.2550   -0.4590   25.2630 C.2   998  KAI998      0.3803
     12  O          4.3490   -1.1400   24.2180 O.co2 998  KAI998     -0.2441
     13  OD1        2.4780    4.5590   27.2590 O.co2 998  KAI998     -0.2457
     14  OD2        3.9750    2.9610   27.6130 O.co2 998  KAI998     -0.2457
     15  OXT        4.9320   -0.5650   26.3310 O.co2 998  KAI998     -0.2441
@<TRIPOS>BOND
     1     1     2    1
     2     1     5    1
     3    12    11   ar
     4     2     8    1
     5     5    11    1
     6     5     6    1
     7    11    15   ar
     8     8     6    1
     9     8    10    1
    10     6     7    1
    11     7     9    1
    12     3    10    2
    13     9    13   ar
    14     9    14   ar
    15    10     4    1
