@<TRIPOS>MOLECULE
1tt2_THP_A_1.pdb
 25 26 0 0 0
SMALL
GASTEIGER

@<TRIPOS>ATOM
      1  P2         5.8690   13.7550   21.3410 P.3   501  THP501      0.5327
      2  O4P        4.7020   13.6620   20.4360 O.2   501  THP501     -0.2224
      3  O5P        7.0840   14.4880   20.9320 O.3   501  THP501     -0.1145
      4  O6P        6.2680   12.2800   21.7690 O.3   501  THP501     -0.1145
      5  P1         4.3060   11.5300   27.1010 P.3   501  THP501      0.5326
      6  O1P        3.1920   10.9750   26.3320 O.3   501  THP501     -0.1145
      7  O2P        4.6210   11.3010   28.5210 O.3   501  THP501     -0.1145
      8  O3P        5.6300   11.1880   26.2860 O.2   501  THP501     -0.2224
      9  O5'        5.4160   14.3910   22.6970 O.3   501  THP501     -0.2675
     10  C5'        4.2950   13.9590   23.4130 C.3   501  THP501      0.1857
     11  C4'        4.6710   14.1200   24.8680 C.3   501  THP501      0.1748
     12  O4'        4.9380   15.4980   25.1000 O.3   501  THP501     -0.3340
     13  C3'        3.5290   13.7310   25.7600 C.3   501  THP501      0.1600
     14  O3'        4.0450   13.1210   26.9560 O.3   501  THP501     -0.2700
     15  C2'        2.8290   15.0110   26.0840 C.3   501  THP501      0.0847
     16  C1'        3.9970   16.0040   26.0390 C.3   501  THP501      0.2089
     17  N1         3.4340   17.2770   25.5850 N.am  501  THP501     -0.1794
     18  C2         3.0240   18.1810   26.5540 C.1   501  THP501      0.2844
     19  O2         3.1070   17.9790   27.7540 O.2   501  THP501     -0.1918
     20  N3         2.4990   19.3590   26.1080 N.2   501  THP501     -0.2455
     21  C4         2.3460   19.7180   24.7830 C.1   501  THP501      0.2134
     22  O4         1.8570   20.8090   24.5400 O.2   501  THP501     -0.2088
     23  C5         2.7920   18.7400   23.8040 C.2   501  THP501      0.0891
     24  C5M        2.6670   19.0440   22.2960 C.3   501  THP501      0.0462
     25  C6         3.3130   17.5690   24.2280 C.2   501  THP501      0.0877
@<TRIPOS>BOND
     1     2     1    2
     2     3     1    1
     3     1     4    1
     4     1     9    1
     5    24    23    1
     6     9    10    1
     7    10    11    1
     8    23    25    2
     9    23    21    1
    10    25    17    1
    11    22    21    2
    12    21    20    2
    13    11    12    1
    14    11    13    1
    15    12    16    1
    16    17    16    1
    17    17    18   am
    18    13    15    1
    19    13    14    1
    20    16    15    1
    21    20    18    2
    22     8     5    2
    23     6     5    1
    24    18    19    2
    25    14     5    1
    26     5     7    1
