@<TRIPOS>MOLECULE
1tt6_DES_A_1.pdb
 20 21 0 0 0
SMALL
GASTEIGER

@<TRIPOS>ATOM
      1  CP9       23.0180   40.4180   38.8090 C.3   129  DES129      0.0050
      2  CP8       22.7060   41.8710   38.5560 C.3   129  DES129      0.0260
      3  CP7       21.3690   42.1890   39.1780 C.2   129  DES129     -0.0261
      4  CP6       21.2380   42.2610   40.6670 C.ar  129  DES129     -0.0041
      5  CP1       21.2840   43.4920   41.3100 C.ar  129  DES129      0.0030
      6  CP2       21.1600   43.5460   42.6910 C.ar  129  DES129      0.0420
      7  CP3       20.9880   42.3740   43.4170 C.ar  129  DES129      0.1957
      8  OP3       20.8670   42.4310   44.7560 O.3   129  DES129     -0.2866
      9  CP4       20.9420   41.1430   42.7730 C.ar  129  DES129      0.0420
     10  CP5       21.0660   41.0870   41.3900 C.ar  129  DES129      0.0030
     11  C7        20.3020   42.3910   38.4230 C.2   129  DES129     -0.0261
     12  C6        20.3990   42.3280   36.9340 C.ar  129  DES129     -0.0041
     13  C5        19.4780   41.5690   36.2190 C.ar  129  DES129      0.0030
     14  C4        19.5560   41.5070   34.8320 C.ar  129  DES129      0.0420
     15  C3        20.5560   42.2080   34.1700 C.ar  129  DES129      0.1957
     16  O3        20.6370   42.1520   32.8260 O.3   129  DES129     -0.2866
     17  C2        21.4770   42.9660   34.8880 C.ar  129  DES129      0.0420
     18  C1        21.3990   43.0270   36.2750 C.ar  129  DES129      0.0030
     19  C8        18.9790   42.7130   39.0750 C.3   129  DES129      0.0260
     20  C9        18.8910   44.2150   39.2490 C.3   129  DES129      0.0050
@<TRIPOS>BOND
     1    16    15    1
     2    15    14   ar
     3    15    17   ar
     4    14    13   ar
     5    17    18   ar
     6    13    12   ar
     7    18    12   ar
     8    12    11    1
     9    11    19    1
    10    11     3    2
    11     2     1    1
    12     2     3    1
    13    19    20    1
    14     3     4    1
    15     4     5   ar
    16     4    10   ar
    17     5     6   ar
    18    10     9   ar
    19     6     7   ar
    20     9     7   ar
    21     7     8    1
