@<TRIPOS>MOLECULE
1tth_PAL_A_1.pdb
 16 15 0 0 0
SMALL
GASTEIGER

@<TRIPOS>ATOM
      1  P         46.0470   29.5060   15.8020 P.3   1311  PAL1311     0.1264
      2  O1P       46.0440   30.2840   17.1350 O.3   1311  PAL1311    -0.3568
      3  O2P       47.1940   28.6060   15.5860 O.3   1311  PAL1311    -0.3568
      4  O3P       46.2170   30.6900   14.7060 O.2   1311  PAL1311    -0.4596
      5  C1P       44.4190   28.8450   15.3990 C.3   1311  PAL1311     0.1454
      6  C1        43.2860   29.8020   15.7640 C.2   1311  PAL1311     0.2492
      7  O1        43.1300   30.8560   15.0950 O.2   1311  PAL1311    -0.2728
      8  N2        42.8180   29.6760   17.0220 N.am  1311  PAL1311    -0.1946
      9  C2        41.6610   30.4050   17.5070 C.3   1311  PAL1311     0.2090
     10  C4        41.8960   31.7980   18.0480 C.2   1311  PAL1311     0.3848
     11  O2        40.8790   32.5350   18.3260 O.co2 1311  PAL1311    -0.2437
     12  O3        43.0700   32.0170   18.4260 O.co2 1311  PAL1311    -0.2437
     13  C3        40.8540   29.5250   18.4930 C.3   1311  PAL1311     0.1472
     14  C5        41.5820   29.2720   19.8040 C.2   1311  PAL1311     0.3672
     15  O4        42.1450   30.2500   20.3630 O.co2 1311  PAL1311    -0.2456
     16  O5        41.3310   28.1840   20.3890 O.co2 1311  PAL1311    -0.2456
@<TRIPOS>BOND
     1     4     1    2
     2     7     6    2
     3     5     6    1
     4     5     1    1
     5     3     1    1
     6     6     8   am
     7     1     2    1
     8     8     9    1
     9     9    10    1
    10     9    13    1
    11    10    11   ar
    12    10    12   ar
    13    13    14    1
    14    14    15   ar
    15    14    16   ar
