@<TRIPOS>MOLECULE
1ttj_PGH_A_1.pdb
 10 9 0 0 0
SMALL
GASTEIGER

@<TRIPOS>ATOM
      1  C1        13.6810   -7.3510    9.7880 C.2   600  PGH600      0.1177
      2  C2        13.0260   -8.6900    9.7310 C.3   600  PGH600      0.2044
      3  N2        14.5050   -7.0370   10.6940 N.am  600  PGH600     -0.2004
      4  O2        15.0580   -5.8480   10.8210 O.3   600  PGH600     -0.4026
      5  O1        13.3400   -6.4040    8.9180 O.2   600  PGH600     -0.5374
      6  O1P       13.5910   -9.5660   10.6860 O.3   600  PGH600     -0.2633
      7  O2P       13.8340  -11.9200   11.4100 O.3   600  PGH600     -0.1145
      8  O3P       11.8390  -11.3120   10.0440 O.2   600  PGH600     -0.2224
      9  O4P       11.9810  -10.4990   12.4500 O.3   600  PGH600     -0.1145
     10  P         12.7740  -10.8480   11.1640 P.3   600  PGH600      0.5330
@<TRIPOS>BOND
     1     5     1    2
     2     2     1    1
     3     2     6    1
     4     1     3   am
     5     8    10    2
     6     6    10    1
     7     3     4    1
     8    10     7    1
     9    10     9    1
