@<TRIPOS>MOLECULE
1ttm_667_A_1.pdb
 21 23 0 0 0
SMALL
GASTEIGER

@<TRIPOS>ATOM
      1  S1        20.5690   26.4520   19.2310 S.3   264  667264      0.1232
      2  O1        21.3150   26.3360   20.6850 O.3   264  667264     -0.0428
      3  O2        19.0570   27.0450   19.3460 O.3   264  667264     -0.0428
      4  O3        21.2820   27.4270   18.5820 O.3   264  667264     -0.3467
      5  N1        20.7390   25.0690   18.3140 N.3   264  667264      0.0501
      6  C1        21.7450   28.6190   19.0710 C.ar  264  667264      0.1759
      7  C2        23.0690   28.7160   19.4890 C.ar  264  667264      0.0400
      8  C3        23.5700   29.9610   19.9990 C.ar  264  667264      0.0059
      9  C4        22.6950   31.1240   20.0790 C.ar  264  667264      0.0308
     10  C5        21.2990   30.9990   19.6420 C.ar  264  667264      0.1515
     11  C6        20.8240   29.7470   19.1310 C.ar  264  667264      0.0774
     12  C7        23.2110   32.5060   20.6320 C.ar  264  667264     -0.0170
     13  C8        22.3350   33.5890   20.7000 C.ar  264  667264      0.0499
     14  C9        20.8620   33.4090   20.2290 C.ar  264  667264      0.3414
     15  C10       24.7000   32.6450   21.0920 C.3   264  667264      0.0263
     16  C11       22.7580   35.0200   21.2470 C.3   264  667264      0.0326
     17  O5        20.0950   34.3550   20.2900 O.2   264  667264     -0.2448
     18  O4        20.2490   31.9870   19.6280 O.2   264  667264     -0.4212
     19  C12       23.7850   35.0700   22.4410 C.3   264  667264      0.0049
     20  C13       23.9120   33.7640   23.2780 C.3   264  667264      0.0007
     21  C14       24.8480   32.7150   22.6220 C.3   264  667264      0.0047
@<TRIPOS>BOND
     1     5     1    1
     2     4     6    1
     3     4     1    1
     4     6    11   ar
     5     6     7   ar
     6    11    10   ar
     7     1     3    1
     8     1     2    1
     9     7     8   ar
    10    18    10   ar
    11    18    14   ar
    12    10     9   ar
    13     8     9   ar
    14     9    12   ar
    15    14    17    2
    16    14    13   ar
    17    12    13   ar
    18    12    15    1
    19    13    16    1
    20    15    21    1
    21    16    19    1
    22    19    20    1
    23    21    20    1
