@<TRIPOS>MOLECULE
1ttp_PLP_B_1.pdb
 15 15 0 0 0
SMALL
GASTEIGER

@<TRIPOS>ATOM
      1  N1        85.3700   13.4500   12.0530 N.2   402  PLP402     -0.2764
      2  C2        85.6080   14.1000   10.8430 C.2   402  PLP402      0.0619
      3  C2A       87.0140   14.0400   10.3130 C.3   402  PLP402      0.0495
      4  C3        84.4930   14.8930   10.2970 C.3   402  PLP402      0.1872
      5  O3        84.7110   15.5740    9.1220 O.3   402  PLP402     -0.2170
      6  C4        83.1360   14.9900   11.0790 C.3   402  PLP402      0.0403
      7  C4A       81.7980   15.5160   10.2470 C.3   402  PLP402      0.0032
      8  C5        82.9990   14.2830   12.3870 C.3   402  PLP402      0.0574
      9  C6        84.1720   13.4790   12.8140 C.3   402  PLP402      0.1274
     10  C5A       82.0120   14.6060   13.4540 C.3   402  PLP402      0.1558
     11  O4P       81.0450   13.7190   13.6630 O.3   402  PLP402     -0.2702
     12  P         80.9270   12.2210   13.8230 P.3   402  PLP402      0.5326
     13  O1P       79.5000   12.0120   13.9010 O.3   402  PLP402     -0.1145
     14  O2P       81.6570   11.8770   15.1190 O.3   402  PLP402     -0.1145
     15  O3P       81.4640   11.3820   12.9270 O.2   402  PLP402     -0.2224
@<TRIPOS>BOND
     1     5     4    1
     2     7     6    1
     3     4     2    1
     4     4     6    1
     5     3     2    1
     6     2     1    2
     7     6     8    1
     8     1     9    1
     9     8     9    1
    10     8    10    1
    11    15    12    2
    12    10    11    1
    13    11    12    1
    14    12    13    1
    15    12    14    1
