@<TRIPOS>MOLECULE
1ttq_PLP_B_1.pdb
 15 15 0 0 0
SMALL
GASTEIGER

@<TRIPOS>ATOM
      1  N1        85.7480   13.9650   11.9210 N.ar  401  PLP401     -0.2452
      2  C2        85.7300   14.1370   10.5600 C.ar  401  PLP401      0.0978
      3  C2A       87.0790   14.2150    9.8900 C.3   401  PLP401      0.0555
      4  C3        84.4300   14.3670    9.9410 C.ar  401  PLP401      0.2049
      5  O3        84.3420   14.5320    8.6010 O.3   401  PLP401     -0.2857
      6  C4        83.1900   14.4310   10.8190 C.ar  401  PLP401      0.0182
      7  C4A       81.7600   14.3980   10.0960 C.3   401  PLP401      0.0342
      8  C5        83.3200   14.2700   12.2370 C.ar  401  PLP401      0.0261
      9  C6        84.6410   13.9980   12.7500 C.ar  401  PLP401      0.0965
     10  C5A       82.2730   14.6380   13.2380 C.3   401  PLP401      0.1815
     11  O4P       81.1130   13.8990   13.2430 O.3   401  PLP401     -0.2653
     12  P         80.6570   12.5870   13.8170 P.3   401  PLP401      0.5329
     13  O1P       79.2540   12.4810   13.3930 O.2   401  PLP401     -0.2224
     14  O2P       80.7930   12.7690   15.3450 O.3   401  PLP401     -0.1145
     15  O3P       81.3660   11.3750   13.4770 O.3   401  PLP401     -0.1145
@<TRIPOS>BOND
     1     5     4    1
     2     3     2    1
     3     4     2   ar
     4     4     6   ar
     5     7     6    1
     6     2     1   ar
     7     6     8   ar
     8     1     9   ar
     9     8     9   ar
    10     8    10    1
    11    10    11    1
    12    11    12    1
    13    13    12    2
    14    15    12    1
    15    12    14    1
