@<TRIPOS>MOLECULE
1ttt_PHE_D_1.pdb
 11 11 0 0 0
SMALL
GASTEIGER

@<TRIPOS>ATOM
      1  N         93.7130   -0.6670    9.5260 N.3    77  PHE77      -0.1298
      2  CA        93.9100   -1.8770   10.1720 C.3    77  PHE77       0.1290
      3  C         94.7230   -2.8300    9.3940 C.3    77  PHE77       0.2013
      4  O         94.0580   -3.7310    8.8480 O.3    77  PHE77      -0.2188
      5  CB        92.6550   -2.6890   10.4090 C.3    77  PHE77       0.0480
      6  CG        93.0930   -3.6890   11.4490 C.ar   77  PHE77      -0.0206
      7  CD1       93.4070   -3.2630   12.7280 C.ar   77  PHE77      -0.0042
      8  CD2       93.2070   -5.0330   11.1350 C.ar   77  PHE77      -0.0042
      9  CE1       93.8160   -4.1650   13.6770 C.ar   77  PHE77      -0.0003
     10  CE2       93.6200   -5.9470   12.0880 C.ar   77  PHE77      -0.0003
     11  CZ        93.9250   -5.5130   13.3520 C.ar   77  PHE77      -0.0000
@<TRIPOS>BOND
     1     4     3    1
     2     3     2    1
     3     1     2    1
     4     2     5    1
     5     5     6    1
     6     8     6   ar
     7     8    10   ar
     8     6     7   ar
     9    10    11   ar
    10     7     9   ar
    11    11     9   ar
