@<TRIPOS>MOLECULE
1ttt_GNP_A_1.pdb
 32 34 0 0 0
SMALL
GASTEIGER

@<TRIPOS>ATOM
      1  PG        81.8490  -15.3100   23.1350 P.3   406  GNP406      0.4884
      2  O1G       82.6770  -16.5200   23.4170 O.3   406  GNP406     -0.1240
      3  O2G       81.3030  -14.6950   24.3700 O.3   406  GNP406     -0.1240
      4  O3G       82.6210  -14.4810   22.1430 O.2   406  GNP406     -0.2331
      5  N3B       80.4420  -15.6670   22.4950 N.3   406  GNP406     -0.0163
      6  PB        79.6580  -14.9940   21.3100 P.3   406  GNP406      0.4669
      7  O1B       78.6090  -14.0640   21.7260 O.3   406  GNP406     -0.1253
      8  O2B       80.7240  -14.6210   20.3770 O.2   406  GNP406     -0.2351
      9  O3A       78.8370  -16.1020   20.6550 O.3   406  GNP406     -0.2360
     10  PA        78.8250  -17.0390   19.4760 P.3   406  GNP406      0.2220
     11  O1A       80.2070  -17.5570   19.6190 O.3   406  GNP406     -0.4370
     12  O2A       78.3140  -16.4040   18.2450 O.2   406  GNP406     -0.5170
     13  O5'       77.7760  -18.2090   19.4630 O.3   406  GNP406     -0.3111
     14  C5'       77.4040  -18.6270   20.7190 C.3   406  GNP406      0.1813
     15  C4'       76.5680  -19.8020   20.3000 C.3   406  GNP406      0.1799
     16  O4'       75.1620  -19.5520   20.0420 O.3   406  GNP406     -0.3326
     17  C3'       77.0310  -20.4150   19.0080 C.3   406  GNP406      0.2158
     18  O3'       76.6530  -21.7610   19.1830 O.3   406  GNP406     -0.2175
     19  C2'       76.0200  -19.8470   18.0360 C.3   406  GNP406      0.2310
     20  O2'       75.9740  -20.6130   16.8540 O.3   406  GNP406     -0.2158
     21  C1'       74.7980  -20.1780   18.8610 C.3   406  GNP406      0.2293
     22  N9        73.6210  -19.4870   18.4040 N.pl3 406  GNP406     -0.2354
     23  C8        74.2430  -18.3450   17.9470 C.3   406  GNP406      0.2246
     24  N7        73.4000  -17.4830   17.4220 N.2   406  GNP406     -0.2322
     25  C5        72.1750  -18.1270   17.5550 C.2   406  GNP406      0.2182
     26  C6        70.9140  -17.6610   17.2030 C.1   406  GNP406      0.2372
     27  O6        70.6660  -16.5750   16.6420 O.2   406  GNP406     -0.2069
     28  N1        69.9360  -18.5960   17.5230 N.2   406  GNP406     -0.2485
     29  C2        70.1450  -19.8310   18.1040 C.1   406  GNP406      0.2531
     30  N2        69.0580  -20.5920   18.3090 N.pl3 406  GNP406     -0.0226
     31  N3        71.3350  -20.2800   18.4720 N.2   406  GNP406     -0.3074
     32  C4        72.2800  -19.3610   18.1480 C.2   406  GNP406      0.2300
@<TRIPOS>BOND
     1    27    26    2
     2    20    19    1
     3    26    28    2
     4    26    25    1
     5    24    25    2
     6    24    23    1
     7    28    29    2
     8    25    32    1
     9    23    22    1
    10    19    21    1
    11    19    17    1
    12    29    30    1
    13    29    31    2
    14    32    22    1
    15    32    31    2
    16    12    10    2
    17    22    21    1
    18    21    16    1
    19    17    18    1
    20    17    15    1
    21    13    10    1
    22    13    14    1
    23    10    11    1
    24    10     9    1
    25    16    15    1
    26    15    14    1
    27     8     6    2
    28     9     6    1
    29     6     7    1
    30     6     5    1
    31     4     1    2
    32     5     1    1
    33     1     2    1
    34     1     3    1
