@<TRIPOS>MOLECULE
1tu3_GNP_A_1.pdb
 32 34 0 0 0
SMALL
GASTEIGER

@<TRIPOS>ATOM
      1  PG        11.5900  -10.6570   63.4160 P.3   1202  GNP1202     0.4884
      2  O1G       11.1480   -9.4880   62.6180 O.2   1202  GNP1202    -0.2331
      3  O2G       12.7320  -11.3260   62.7020 O.3   1202  GNP1202    -0.1240
      4  O3G       10.4870  -11.6540   63.7050 O.3   1202  GNP1202    -0.1240
      5  N3B       12.0800   -9.9170   64.8980 N.3   1202  GNP1202    -0.0163
      6  PB        12.6690  -10.8250   66.1580 P.3   1202  GNP1202     0.4669
      7  O1B       11.6420  -11.3710   66.9910 O.3   1202  GNP1202    -0.1253
      8  O2B       13.6800  -11.7460   65.5090 O.2   1202  GNP1202    -0.2351
      9  O3A       13.5070   -9.7280   67.0450 O.3   1202  GNP1202    -0.2360
     10  PA        15.0510   -9.4580   67.0320 P.3   1202  GNP1202     0.2220
     11  O1A       15.8500  -10.6040   67.5680 O.3   1202  GNP1202    -0.4370
     12  O2A       15.3930   -8.9650   65.6580 O.2   1202  GNP1202    -0.5170
     13  O5'       15.1260   -8.3360   68.0650 O.3   1202  GNP1202    -0.3111
     14  C5'       14.4900   -7.0690   67.8860 C.3   1202  GNP1202     0.1813
     15  C4'       14.9390   -6.1200   68.9650 C.3   1202  GNP1202     0.1799
     16  O4'       14.7650   -6.5240   70.2830 O.3   1202  GNP1202    -0.3326
     17  C3'       16.4590   -5.7590   68.8650 C.3   1202  GNP1202     0.2158
     18  O3'       16.6700   -4.3440   69.0340 O.3   1202  GNP1202    -0.2175
     19  C2'       17.0720   -6.5430   70.0030 C.3   1202  GNP1202     0.2310
     20  O2'       18.2920   -6.0370   70.4500 O.3   1202  GNP1202    -0.2158
     21  C1'       15.9680   -6.4450   71.0060 C.3   1202  GNP1202     0.2293
     22  N9        16.0450   -7.5500   71.9970 N.pl3 1202  GNP1202    -0.2354
     23  C8        16.0530   -8.9650   71.6330 C.3   1202  GNP1202     0.2246
     24  N7        16.1350   -9.7170   72.7030 N.2   1202  GNP1202    -0.2322
     25  C5        16.1810   -8.7550   73.8290 C.2   1202  GNP1202     0.2182
     26  C6        16.2740   -9.0120   75.2720 C.1   1202  GNP1202     0.2372
     27  O6        16.3230  -10.0320   75.8460 O.2   1202  GNP1202    -0.2069
     28  N1        16.2970   -7.8110   75.9940 N.2   1202  GNP1202    -0.2485
     29  C2        16.2350   -6.6100   75.2990 C.1   1202  GNP1202     0.2531
     30  N2        16.2740   -5.5140   76.2310 N.pl3 1202  GNP1202    -0.0226
     31  N3        16.1470   -6.3050   74.0480 N.2   1202  GNP1202    -0.3074
     32  C4        16.1300   -7.4750   73.3420 C.2   1202  GNP1202     0.2300
@<TRIPOS>BOND
     1     2     1    2
     2     3     1    1
     3     1     4    1
     4     1     5    1
     5     5     6    1
     6     8     6    2
     7    12    10    2
     8     6     7    1
     9     6     9    1
    10    10     9    1
    11    10    11    1
    12    10    13    1
    13    14    13    1
    14    14    15    1
    15    17    15    1
    16    17    18    1
    17    17    19    1
    18    15    16    1
    19    19    20    1
    20    19    21    1
    21    16    21    1
    22    21    22    1
    23    23    22    1
    24    23    24    1
    25    22    32    1
    26    24    25    2
    27    32    25    1
    28    32    31    2
    29    25    26    1
    30    31    29    2
    31    26    27    2
    32    26    28    2
    33    29    28    2
    34    29    30    1
