@<TRIPOS>MOLECULE
1tu4_GDP_A_1.pdb
 28 30 0 0 0
SMALL
GASTEIGER

@<TRIPOS>ATOM
      1  PB        54.9070    6.8590   47.4730 P.3   1200  GDP1200     0.5373
      2  O1B       54.8300    8.3050   47.8320 O.3   1200  GDP1200    -0.1143
      3  O2B       56.1680    6.1700   47.9550 O.3   1200  GDP1200    -0.1143
      4  O3B       54.6730    6.5980   45.9870 O.2   1200  GDP1200    -0.2221
      5  O3A       53.6410    6.1550   48.2960 O.3   1200  GDP1200    -0.2261
      6  PA        52.2290    6.7360   48.5670 P.3   1200  GDP1200     0.2231
      7  O1A       51.6480    7.2670   47.3230 O.2   1200  GDP1200    -0.5169
      8  O2A       52.2800    7.7140   49.7190 O.3   1200  GDP1200    -0.4370
      9  O5'       51.3780    5.4700   49.0730 O.3   1200  GDP1200    -0.3111
     10  C5'       51.1180    4.3380   48.2290 C.3   1200  GDP1200     0.1813
     11  C4'       49.9490    3.5610   48.8060 C.3   1200  GDP1200     0.1799
     12  O4'       50.3670    2.9770   50.0860 O.3   1200  GDP1200    -0.3326
     13  C3'       48.6730    4.3910   49.0810 C.3   1200  GDP1200     0.2158
     14  O3'       47.5800    3.4650   48.7700 O.3   1200  GDP1200    -0.2175
     15  C2'       48.7600    4.6610   50.5590 C.3   1200  GDP1200     0.2310
     16  O2'       47.5380    5.0170   51.1310 O.3   1200  GDP1200    -0.2158
     17  C1'       49.4490    3.3710   51.0720 C.3   1200  GDP1200     0.2293
     18  N9        50.2110    3.6240   52.4310 N.pl3 1200  GDP1200    -0.2354
     19  C8        51.1290    4.6020   52.6610 C.3   1200  GDP1200     0.2246
     20  N7        51.5770    4.5440   53.9030 N.2   1200  GDP1200    -0.2322
     21  C5        50.9120    3.4730   54.4870 C.2   1200  GDP1200     0.2182
     22  C6        50.9990    2.9440   55.8060 C.1   1200  GDP1200     0.2372
     23  O6        51.7330    3.3720   56.7220 O.2   1200  GDP1200    -0.2069
     24  N1        50.1480    1.8380   56.0210 N.2   1200  GDP1200    -0.2485
     25  C2        49.3110    1.3220   55.0370 C.1   1200  GDP1200     0.2531
     26  N2        48.5400    0.2670   55.3550 N.pl3 1200  GDP1200    -0.0226
     27  N3        49.2390    1.8290   53.7870 N.2   1200  GDP1200    -0.3074
     28  C4        50.0620    2.8950   53.5910 C.2   1200  GDP1200     0.2300
@<TRIPOS>BOND
     1     4     1    2
     2     7     6    2
     3     1     2    1
     4     1     3    1
     5     1     5    1
     6    10    11    1
     7    10     9    1
     8     5     6    1
     9     6     9    1
    10     6     8    1
    11    14    13    1
    12    11    13    1
    13    11    12    1
    14    13    15    1
    15    12    17    1
    16    15    17    1
    17    15    16    1
    18    17    18    1
    19    18    19    1
    20    18    28    1
    21    19    20    1
    22    28    27    2
    23    28    21    1
    24    27    25    2
    25    20    21    2
    26    21    22    1
    27    25    26    1
    28    25    24    2
    29    22    24    2
    30    22    23    2
