@<TRIPOS>MOLECULE
1tu6_FSP_A_1.pdb
 32 34 0 0 0
SMALL
GASTEIGER

@<TRIPOS>ATOM
      1  C1        58.8930  -76.4580  142.0490 C.3   551  FSP551      0.0000
      2  C2        58.1060  -75.4250  142.9000 C.3   551  FSP551      0.0001
      3  C3        58.4740  -75.5790  144.3850 C.3   551  FSP551      0.0019
      4  C4        60.0060  -75.5190  144.5440 C.3   551  FSP551      0.0250
      5  C5        60.4470  -75.4470  146.0620 C.3   551  FSP551      0.1406
      6  N6        59.5100  -74.6350  146.7770 N.am  551  FSP551     -0.1673
      7  C7        58.9070  -75.1030  147.8670 C.2   551  FSP551      0.4212
      8  O8        58.8110  -76.3180  148.0480 O.2   551  FSP551     -0.2246
      9  O9        58.4440  -74.2650  148.7330 O.3   551  FSP551     -0.4335
     10  C10       57.6960  -74.8740  149.7560 C.3   551  FSP551      0.2103
     11  C11       56.7050  -73.8480  150.2680 C.3   551  FSP551      0.0446
     12  C12       55.6210  -73.4330  149.2050 C.3   551  FSP551      0.0299
     13  C13       55.0750  -74.6610  148.4890 C.ar  551  FSP551     -0.0219
     14  C14       55.3460  -74.8540  147.1460 C.ar  551  FSP551     -0.0020
     15  C15       54.8510  -75.9710  146.4920 C.ar  551  FSP551      0.0293
     16  C16       54.0850  -76.8900  147.1780 C.ar  551  FSP551      0.1401
     17  F17       53.6080  -77.9670  146.5440 F     551  FSP551     -0.2042
     18  C18       53.8100  -76.7010  148.5260 C.ar  551  FSP551      0.0293
     19  C19       54.3000  -75.5900  149.1800 C.ar  551  FSP551     -0.0020
     20  C20       56.1170  -74.2210  151.6250 C.3   551  FSP551      0.0039
     21  C21       56.8490  -73.0330  152.2570 C.3   551  FSP551      0.0003
     22  C22       57.4120  -72.6440  150.8690 C.3   551  FSP551      0.0039
     23  C25       62.8470  -75.3900  145.1720 C.2   551  FSP551      0.3837
     24  O26       63.0330  -76.6040  145.2030 O.2   551  FSP551     -0.2400
     25  N27       63.5180  -74.6080  144.3000 N.am  551  FSP551      0.0330
     26  C28       64.1880  -75.1430  143.2440 C.2   551  FSP551      0.3779
     27  C29       63.5900  -75.7300  142.1670 C.3   551  FSP551      0.1749
     28  C30       64.5960  -76.1330  141.3410 C.2   551  FSP551      0.1355
     29  N31       65.8060  -75.7760  141.9430 N.2   551  FSP551     -0.0369
     30  N32       65.5490  -75.1540  143.1370 N.2   551  FSP551      0.0797
     31  C23       61.7910  -74.7360  146.0540 C.3   551  FSP551      0.2758
     32  O24       61.8630  -73.4250  146.2750 O.3   551  FSP551     -0.2086
@<TRIPOS>BOND
     1    28    29    2
     2    28    27    1
     3    29    30    1
     4     1     2    1
     5    27    26    1
     6     2     3    1
     7    30    26    2
     8    26    25    1
     9    25    23   am
    10     3     4    1
    11     4     5    1
    12    23    24    2
    13    23    31    1
    14    31     5    1
    15    31    32    1
    16     5     6    1
    17    15    14   ar
    18    15    16   ar
    19    17    16    1
    20     6     7   am
    21    14    13   ar
    22    16    18   ar
    23     7     8    2
    24     7     9    1
    25    13    19   ar
    26    13    12    1
    27    18    19   ar
    28     9    10    1
    29    12    11    1
    30    10    11    1
    31    11    22    1
    32    11    20    1
    33    22    21    1
    34    20    21    1
