@<TRIPOS>MOLECULE
1tu7_GSH_A_1.pdb
 20 19 0 0 0
SMALL
GASTEIGER

@<TRIPOS>ATOM
      1  N1        12.6650   -1.7440   21.3010 N.3   1001  GSH1001    -0.1208
      2  CA1       13.4290   -1.1910   22.3520 C.3   1001  GSH1001     0.1948
      3  C1        13.0370    0.1830   22.6990 C.2   1001  GSH1001     0.3819
      4  O11       12.7080    0.9360   21.6330 O.co2 1001  GSH1001    -0.2441
      5  O12       13.0400    0.7930   23.8300 O.co2 1001  GSH1001    -0.2441
      6  CB1       14.8830   -1.3880   22.4210 C.3   1001  GSH1001     0.0402
      7  CG1       15.5680   -1.1900   23.7480 C.3   1001  GSH1001     0.0889
      8  CD1       17.0590   -1.4690   23.6370 C.2   1001  GSH1001     0.2418
      9  OE1       17.5310   -2.0530   22.5100 O.2   1001  GSH1001    -0.2733
     10  N2        17.8250   -1.1090   24.6310 N.am  1001  GSH1001    -0.1968
     11  CA2       19.2820   -1.2560   24.6270 C.3   1001  GSH1001     0.1843
     12  C2        19.7040   -1.7690   25.9480 C.2   1001  GSH1001     0.2627
     13  O2        18.9540   -1.5090   27.0760 O.2   1001  GSH1001    -0.2714
     14  CB2       19.9640    0.0940   24.4260 C.3   1001  GSH1001     0.0997
     15  SG2       19.8120    0.6640   22.7190 S.3   1001  GSH1001    -0.0797
     16  N3        20.8050   -2.4950   26.0400 N.am  1001  GSH1001    -0.1917
     17  CA3       21.1970   -2.9630   27.3420 C.3   1001  GSH1001     0.2285
     18  C3        21.2140   -4.4560   27.3930 C.2   1001  GSH1001     0.3865
     19  O31       20.4490   -5.2370   26.6580 O.co2 1001  GSH1001    -0.2437
     20  O32       22.1160   -5.0290   28.2990 O.co2 1001  GSH1001    -0.2437
@<TRIPOS>BOND
     1     1     2    1
     2     4     3   ar
     3     2     6    1
     4     2     3    1
     5     6     7    1
     6     9     8    2
     7     3     5   ar
     8    15    14    1
     9     8     7    1
    10     8    10   am
    11    14    11    1
    12    11    10    1
    13    11    12    1
    14    12    16   am
    15    12    13    2
    16    16    17    1
    17    19    18   ar
    18    17    18    1
    19    18    20   ar
