@<TRIPOS>MOLECULE
1tu8_GTX_A_1.pdb
 26 25 0 0 0
SMALL
GASTEIGER

@<TRIPOS>ATOM
      1  N1        12.7830    0.8680   35.0430 N.3   2001  GTX2001    -0.1208
      2  CA1       13.4770    1.2980   33.8370 C.3   2001  GTX2001     0.1948
      3  C1        14.7880    1.9050   34.2470 C.2   2001  GTX2001     0.3819
      4  O11       14.9080    2.3950   35.4420 O.co2 2001  GTX2001    -0.2441
      5  O12       15.8110    1.9560   33.4330 O.co2 2001  GTX2001    -0.2441
      6  CB1       12.6000    2.3050   33.0980 C.3   2001  GTX2001     0.0402
      7  CG1       13.1430    2.6250   31.7050 C.3   2001  GTX2001     0.0889
      8  CD1       12.2660    3.6290   30.9900 C.2   2001  GTX2001     0.2418
      9  OE1       11.0220    3.9850   31.5090 O.2   2001  GTX2001    -0.2733
     10  N2        12.7440    4.1210   29.8460 N.am  2001  GTX2001    -0.1969
     11  CA2       12.0480    5.0790   29.0030 C.3   2001  GTX2001     0.1834
     12  C2        12.0450    4.6310   27.5720 C.2   2001  GTX2001     0.2626
     13  O2        13.1440    3.9380   27.0380 O.2   2001  GTX2001    -0.2714
     14  CB2       12.7660    6.4200   29.0770 C.3   2001  GTX2001     0.0886
     15  SG2       12.7770    7.0700   30.7630 S.3   2001  GTX2001    -0.1379
     16  C1S       11.2210    7.9820   30.5780 C.3   2001  GTX2001     0.0576
     17  C2S       11.4220    9.4360   30.1350 C.3   2001  GTX2001     0.0116
     18  C3S       11.7210    9.5330   28.6430 C.3   2001  GTX2001     0.0009
     19  C4S       11.2720   10.8470   28.0140 C.3   2001  GTX2001     0.0000
     20  C5S       11.6360   10.8670   26.5290 C.3   2001  GTX2001     0.0000
     21  C6S       10.7550    9.9310   25.7080 C.3   2001  GTX2001     0.0000
     22  N3        10.9600    4.9030   26.8600 N.am  2001  GTX2001    -0.1917
     23  CA3       10.9590    4.7770   25.4090 C.3   2001  GTX2001     0.2285
     24  C3        10.0480    3.6680   24.9510 C.2   2001  GTX2001     0.3865
     25  O31        9.8680    3.4620   23.6730 O.co2 2001  GTX2001    -0.2437
     26  O32        9.4280    2.8970   25.8120 O.co2 2001  GTX2001    -0.2437
@<TRIPOS>BOND
     1    25    24   ar
     2    24    23    1
     3    24    26   ar
     4    23    22    1
     5    21    20    1
     6    20    19    1
     7    22    12   am
     8    13    12    2
     9    12    11    1
    10    19    18    1
    11    18    17    1
    12    11    14    1
    13    11    10    1
    14    14    15    1
    15    10     8   am
    16    17    16    1
    17    16    15    1
    18     8     9    2
    19     8     7    1
    20     7     6    1
    21     6     2    1
    22     5     3   ar
    23     2     3    1
    24     2     1    1
    25     3     4   ar
