@<TRIPOS>MOLECULE
1tu9_HEM_A_1.pdb
 43 50 0 0 0
SMALL
GASTEIGER

@<TRIPOS>ATOM
      1  CHA        4.9750   21.7500    2.2060 C.2   301  HEM301      0.0000
      2  CHB        9.1380   19.4890    3.6090 C.2   301  HEM301      0.0000
      3  CHC        7.1140   15.3120    2.6190 C.2   301  HEM301      0.0000
      4  CHD        3.4330   17.5030    0.4030 C.2   301  HEM301      0.0000
      5  C1A        6.2360   21.4730    2.7450 C.2   301  HEM301      0.0000
      6  C2A        7.1390   22.4380    3.3590 C.2   301  HEM301      0.0000
      7  C3A        8.2700   21.8350    3.7280 C.2   301  HEM301      0.0000
      8  C4A        8.1690   20.4380    3.3800 C.2   301  HEM301      0.0000
      9  CMA        9.4780   22.5100    4.4180 C.3   301  HEM301      0.0000
     10  CAA        6.8180   23.9230    3.5580 C.3   301  HEM301      0.0000
     11  CBA        6.5890   24.1860    5.0530 C.3   301  HEM301      0.0000
     12  CGA        5.7040   23.1520    5.7200 C.2   301  HEM301      0.0000
     13  O1A        4.4940   23.0940    5.3990 O.co2 301  HEM301      0.0000
     14  O2A        6.1890   22.3800    6.5930 O.co2 301  HEM301      0.0000
     15  C1B        8.9720   18.1410    3.5010 C.ar  301  HEM301      0.0000
     16  C2B        9.9010   17.0770    3.8550 C.ar  301  HEM301      0.0000
     17  C3B        9.3300   15.9070    3.5860 C.ar  301  HEM301      0.0000
     18  C4B        8.0130   16.2300    3.0340 C.ar  301  HEM301      0.0000
     19  CMB       11.3230   17.2930    4.4260 C.3   301  HEM301      0.0000
     20  CAB        9.9310   14.4860    3.7660 C.2   301  HEM301      0.0000
     21  CBB       10.6510   14.1380    4.8370 C.2   301  HEM301      0.0000
     22  C1C        5.9920   15.5680    1.8700 C.2   301  HEM301      0.0000
     23  C2C        5.2700   14.5490    1.1790 C.2   301  HEM301      0.0000
     24  C3C        4.2670   15.1340    0.5350 C.2   301  HEM301      0.0000
     25  C4C        4.3180   16.5460    0.8250 C.2   301  HEM301      0.0000
     26  CMC        5.6460   13.0660    1.2140 C.3   301  HEM301      0.0000
     27  CAC        3.2370   14.3860   -0.3190 C.2   301  HEM301      0.0000
     28  CBC        2.6710   14.9290   -1.3860 C.2   301  HEM301      0.0000
     29  C1D        3.4710   18.8330    0.6940 C.ar  301  HEM301      0.0000
     30  C2D        2.4990   19.7690    0.2260 C.ar  301  HEM301      0.0000
     31  C3D        2.9460   21.1060    0.7600 C.ar  301  HEM301      0.0000
     32  C4D        4.1690   20.8560    1.5040 C.ar  301  HEM301      0.0000
     33  CMD        1.2720   19.4680   -0.6400 C.3   301  HEM301      0.0000
     34  CAD        2.2140   22.4220    0.4690 C.3   301  HEM301      0.0000
     35  CBD        2.5310   22.8550   -0.9730 C.3   301  HEM301      0.0000
     36  CGD        1.7490   24.0970   -1.3600 C.2   301  HEM301      0.0000
     37  O1D        0.5040   23.9960   -1.5130 O.co2 301  HEM301      0.0000
     38  O2D        2.3530   25.1950   -1.5070 O.co2 301  HEM301      0.0000
     39  NA         6.9190   20.2760    2.7850 N.2   301  HEM301      0.0000
     40  NB         7.8140   17.5890    3.0100 N.ar  301  HEM301      0.0000
     41  NC         5.4020   16.7910    1.6430 N.2   301  HEM301      0.0000
     42  ND         4.4270   19.4940    1.4380 N.ar  301  HEM301      0.0000
     43 FE          6.0770   18.6400    2.2690 Fe    301  HEM301      0.0000
@<TRIPOS>BOND
     1    37    36   ar
     2    38    36   ar
     3    28    27    2
     4    36    35    1
     5    35    34    1
     6    33    30    1
     7    27    24    1
     8    30    29   ar
     9    30    31   ar
    10     4    29    2
    11     4    25    1
    12    34    31    1
    13    24    25    1
    14    24    23    2
    15    29    42   ar
    16    31    32   ar
    17    25    41    2
    18    23    26    1
    19    23    22    1
    20    42    32   ar
    21    42    43    1
    22    32     1    2
    23    41    22    1
    24    41    43    1
    25    22     3    2
    26     1     5    1
    27    43    39    1
    28    43    40    1
    29     3    18    1
    30     5    39    2
    31     5     6    1
    32    39     8    1
    33    40    18   ar
    34    40    15   ar
    35    18    17   ar
    36     6    10    1
    37     6     7    2
    38     8     2    2
    39     8     7    1
    40    15     2    1
    41    15    16   ar
    42    10    11    1
    43    17    20    1
    44    17    16   ar
    45     7     9    1
    46    20    21    2
    47    16    19    1
    48    11    12    1
    49    13    12   ar
    50    12    14   ar
