@<TRIPOS>MOLECULE
1tub_GDP_B_1.pdb
 28 30 0 0 0
SMALL
GASTEIGER

@<TRIPOS>ATOM
      1  PB       -95.1150   47.3460  -35.8660 P.3   500  GDP500      0.5373
      2  O1B      -94.2410   47.8930  -36.8470 O.2   500  GDP500     -0.2221
      3  O2B      -94.8620   47.5970  -34.4610 O.3   500  GDP500     -0.1143
      4  O3B      -96.5580   47.6820  -36.2510 O.3   500  GDP500     -0.1143
      5  O3A      -95.0140   45.8500  -36.1100 O.3   500  GDP500     -0.2261
      6  PA       -94.6660   44.7250  -35.0760 P.3   500  GDP500      0.2231
      7  O1A      -93.2400   44.7430  -34.7830 O.2   500  GDP500     -0.5169
      8  O2A      -95.6460   44.7240  -33.9870 O.3   500  GDP500     -0.4370
      9  O5'      -94.9690   43.5300  -36.0490 O.3   500  GDP500     -0.3111
     10  C5'      -94.5180   43.5520  -37.3890 C.3   500  GDP500      0.1813
     11  C4'      -94.1120   42.2100  -37.8400 C.3   500  GDP500      0.1799
     12  O4'      -93.0080   41.7950  -37.0720 O.3   500  GDP500     -0.3326
     13  C3'      -95.1670   41.1690  -37.6940 C.3   500  GDP500      0.2158
     14  O3'      -95.8620   40.9830  -38.9120 O.3   500  GDP500     -0.2175
     15  C2'      -94.4680   39.9910  -37.1460 C.3   500  GDP500      0.2310
     16  O2'      -94.1620   39.0460  -38.1120 O.3   500  GDP500     -0.2158
     17  C1'      -93.2400   40.5350  -36.5420 C.3   500  GDP500      0.2293
     18  N9       -93.2570   40.5500  -35.0660 N.pl3 500  GDP500     -0.2354
     19  C8       -94.1370   41.0170  -34.1490 C.3   500  GDP500      0.2246
     20  N7       -93.8090   40.8460  -32.8990 N.2   500  GDP500     -0.2322
     21  C5       -92.6090   40.2030  -32.9890 C.2   500  GDP500      0.2182
     22  C6       -91.7410   39.7450  -31.9650 C.1   500  GDP500      0.2372
     23  O6       -91.8870   39.8260  -30.7600 O.2   500  GDP500     -0.2069
     24  N1       -90.6030   39.1410  -32.5010 N.2   500  GDP500     -0.2485
     25  C2       -90.3340   39.0020  -33.8660 C.1   500  GDP500      0.2531
     26  N2       -89.2300   38.4230  -34.2220 N.pl3 500  GDP500     -0.0226
     27  N3       -91.1440   39.4200  -34.8090 N.2   500  GDP500     -0.3074
     28  C4       -92.2570   40.0170  -34.3090 C.2   500  GDP500      0.2300
@<TRIPOS>BOND
     1    14    13    1
     2    16    15    1
     3    11    13    1
     4    11    10    1
     5    11    12    1
     6    13    15    1
     7    10     9    1
     8    15    17    1
     9    12    17    1
    10     2     1    2
    11    17    18    1
    12     4     1    1
    13     5     1    1
    14     5     6    1
    15     9     6    1
    16     1     3    1
    17     6     7    2
    18     6     8    1
    19    18    28    1
    20    18    19    1
    21    27    28    2
    22    27    25    2
    23    28    21    1
    24    26    25    1
    25    19    20    1
    26    25    24    2
    27    21    20    2
    28    21    22    1
    29    24    22    2
    30    22    23    2
