@<TRIPOS>MOLECULE
1tub_GTP_A_1.pdb
 32 34 0 0 0
SMALL
GASTEIGER

@<TRIPOS>ATOM
      1  PG       -57.5510   49.0250  -35.4930 P.3   500  GTP500      0.5373
      2  O1G      -56.7530   49.9370  -34.6420 O.3   500  GTP500     -0.1143
      3  O2G      -57.7040   49.7880  -36.8250 O.2   500  GTP500     -0.2221
      4  O3G      -59.0220   48.9210  -34.8520 O.3   500  GTP500     -0.1143
      5  O3B      -56.8060   47.6470  -35.6870 O.3   500  GTP500     -0.2258
      6  PB       -56.2300   46.8000  -34.4720 P.3   500  GTP500      0.2277
      7  O1B      -57.4950   46.3630  -33.9130 O.2   500  GTP500     -0.5168
      8  O2B      -55.1120   47.2720  -33.5950 O.3   500  GTP500     -0.4368
      9  O3A      -55.7350   45.5840  -35.2270 O.3   500  GTP500     -0.2700
     10  PA       -56.4040   44.1910  -35.1570 P.3   500  GTP500      0.2189
     11  O1A      -57.5980   44.2250  -36.0480 O.2   500  GTP500     -0.5170
     12  O2A      -56.5580   43.8750  -33.7090 O.3   500  GTP500     -0.4371
     13  O5'      -55.3280   43.3010  -35.8330 O.3   500  GTP500     -0.3112
     14  C5'      -54.9130   43.5510  -37.1510 C.3   500  GTP500      0.1813
     15  C4'      -54.0850   42.4610  -37.6180 C.3   500  GTP500      0.1799
     16  O4'      -53.1590   42.2160  -36.5670 O.3   500  GTP500     -0.3326
     17  C3'      -54.8380   41.2230  -37.8400 C.3   500  GTP500      0.2158
     18  O3'      -54.5380   40.7130  -39.1170 O.3   500  GTP500     -0.2175
     19  C2'      -54.2780   40.3000  -36.8230 C.3   500  GTP500      0.2310
     20  O2'      -54.1190   39.0730  -37.3590 O.3   500  GTP500     -0.2158
     21  C1'      -52.9610   40.8880  -36.4710 C.3   500  GTP500      0.2293
     22  N9       -52.6060   40.6420  -35.0870 N.pl3 500  GTP500     -0.2354
     23  C8       -53.0940   41.2560  -33.9730 C.3   500  GTP500      0.2246
     24  N7       -52.6090   40.8070  -32.8420 N.2   500  GTP500     -0.2322
     25  C5       -51.7560   39.8210  -33.2470 C.2   500  GTP500      0.2182
     26  C6       -50.8900   39.0460  -32.4830 C.1   500  GTP500      0.2372
     27  O6       -50.6820   39.0800  -31.2710 O.2   500  GTP500     -0.2069
     28  N1       -50.1230   38.2670  -33.2770 N.2   500  GTP500     -0.2485
     29  C2       -50.2130   38.2030  -34.6410 C.1   500  GTP500      0.2531
     30  N2       -49.4190   37.3430  -35.2340 N.pl3 500  GTP500     -0.0226
     31  N3       -51.0120   38.9290  -35.3790 N.2   500  GTP500     -0.3074
     32  C4       -51.7400   39.7240  -34.6230 C.2   500  GTP500      0.2300
@<TRIPOS>BOND
     1    18    17    1
     2    17    15    1
     3    17    19    1
     4    15    14    1
     5    15    16    1
     6    20    19    1
     7    14    13    1
     8     3     1    2
     9    19    21    1
    10    16    21    1
    11    21    22    1
    12    11    10    2
    13    13    10    1
    14     5     1    1
    15     5     6    1
    16     1     4    1
    17     1     2    1
    18    31    29    2
    19    31    32    2
    20    30    29    1
    21     9    10    1
    22     9     6    1
    23    10    12    1
    24    22    32    1
    25    22    23    1
    26    29    28    2
    27    32    25    1
    28     6     7    2
    29     6     8    1
    30    23    24    1
    31    28    26    2
    32    25    24    2
    33    25    26    1
    34    26    27    2
