@<TRIPOS>MOLECULE
1tuf_AZ1_A_1.pdb
 13 12 0 0 0
SMALL
GASTEIGER

@<TRIPOS>ATOM
      1  C1        55.8270   12.0530   20.1930 C.2   502  AZ1502      0.3692
      2  C2        57.2020   12.3620   20.7970 C.3   502  AZ1502      0.1397
      3  C3        58.1500   13.3320   21.5110 C.2   502  AZ1502     -0.0186
      4  C4        59.6030   13.1790   21.9690 C.2   502  AZ1502     -0.0254
      5  C5        60.4950   11.9840   21.6530 C.3   502  AZ1502      0.0513
      6  C6        61.9830   12.2750   21.4350 C.2   502  AZ1502     -0.0254
      7  C7        62.7800   12.4650   20.1360 C.2   502  AZ1502     -0.0186
      8  C8        64.1710   13.0970   20.0820 C.3   502  AZ1502      0.1397
      9  C9        65.2970   12.2710   20.6740 C.2   502  AZ1502      0.3692
     10  O1        55.5610   10.8470   19.6280 O.co2 502  AZ1502     -0.2453
     11  O2        54.9470   12.9130   20.2240 O.co2 502  AZ1502     -0.2453
     12  O3        65.6090   11.0730   20.0780 O.co2 502  AZ1502     -0.2453
     13  O4        65.8720   12.7200   21.6800 O.co2 502  AZ1502     -0.2453
@<TRIPOS>BOND
     1    10     1   ar
     2    12     9   ar
     3     8     7    1
     4     8     9    1
     5     7     6    2
     6     1    11   ar
     7     1     2    1
     8     9    13   ar
     9     2     3    1
    10     6     5    1
    11     3     4    2
    12     5     4    1
