@<TRIPOS>MOLECULE
1tug_CTP_B_1.pdb
 29 30 0 0 0
SMALL
GASTEIGER

@<TRIPOS>ATOM
      1  N1        14.3610   84.8330   25.9410 N.am  1156  CTP1156    -0.1778
      2  C2        15.6780   85.5260   25.9060 C.1   1156  CTP1156     0.2756
      3  N3        16.0950   86.4260   24.7920 N.2   1156  CTP1156    -0.3024
      4  C4        15.1270   86.7020   23.6990 C.2   1156  CTP1156     0.2346
      5  C5        13.9100   86.0600   23.7830 C.2   1156  CTP1156     0.0687
      6  C6        13.6170   85.1990   24.8380 C.2   1156  CTP1156     0.0836
      7  O2        16.4950   85.3580   26.8160 O.2   1156  CTP1156    -0.1925
      8  N4        15.4270   87.5970   22.7650 N.pl3 1156  CTP1156    -0.0921
      9  C1'       14.2180   83.4600   26.5190 C.3   1156  CTP1156     0.2400
     10  C2'       13.1650   83.4410   27.6290 C.3   1156  CTP1156     0.2319
     11  O2'       13.7450   83.7070   28.9060 O.3   1156  CTP1156    -0.2157
     12  C3'       12.5230   82.0370   27.6170 C.3   1156  CTP1156     0.2158
     13  C4'       13.0540   81.4750   26.2930 C.3   1156  CTP1156     0.1799
     14  O4'       13.6760   82.5540   25.5850 O.3   1156  CTP1156    -0.3320
     15  O3'       12.9570   81.2040   28.6820 O.3   1156  CTP1156    -0.2175
     16  C5'       11.8340   81.0270   25.4860 C.3   1156  CTP1156     0.1813
     17  O5'       10.8440   82.0380   25.6890 O.3   1156  CTP1156    -0.3112
     18  PA         9.5450   81.7830   24.7680 P.3   1156  CTP1156     0.2189
     19  O1A        9.3900   82.7820   23.5220 O.2   1156  CTP1156    -0.5170
     20  O2A        9.9310   80.3820   24.0750 O.3   1156  CTP1156    -0.4371
     21  O3A        8.1430   81.7430   25.5760 O.3   1156  CTP1156    -0.2700
     22  PB         8.3460   80.5110   26.6200 P.3   1156  CTP1156     0.2277
     23  O1B        6.8520   80.7530   27.0440 O.2   1156  CTP1156    -0.5168
     24  O2B        9.2010   80.2210   27.9490 O.3   1156  CTP1156    -0.4368
     25  O3B        8.4250   79.1030   25.7290 O.3   1156  CTP1156    -0.2258
     26  PG         8.0530   77.7090   26.5770 P.3   1156  CTP1156     0.5373
     27  O1G        9.3840   77.0000   26.0180 O.2   1156  CTP1156    -0.2221
     28  O2G        6.9780   76.5460   26.3810 O.3   1156  CTP1156    -0.1143
     29  O3G        8.0570   78.2040   28.1250 O.3   1156  CTP1156    -0.1143
@<TRIPOS>BOND
     1     8     4    1
     2    19    18    2
     3     4     5    1
     4     4     3    2
     5     5     6    2
     6    20    18    1
     7    18    21    1
     8    18    17    1
     9     3     2    2
    10     6     1    1
    11    16    17    1
    12    16    13    1
    13    21    22    1
    14    14    13    1
    15    14     9    1
    16    25    26    1
    17    25    22    1
    18     2     1   am
    19     2     7    2
    20     1     9    1
    21    27    26    2
    22    13    12    1
    23    28    26    1
    24     9    10    1
    25    26    29    1
    26    22    23    2
    27    22    24    1
    28    12    10    1
    29    12    15    1
    30    10    11    1
