@<TRIPOS>MOLECULE
1tui_GDP_A_1.pdb
 28 30 0 0 0
SMALL
GASTEIGER

@<TRIPOS>ATOM
      1  PB        67.3810   31.6720  106.7240 P.3   407  GDP407      0.5373
      2  O1B       67.6070   31.6580  108.1980 O.3   407  GDP407     -0.1143
      3  O2B       66.2460   32.4120  106.0510 O.2   407  GDP407     -0.2221
      4  O3B       68.5660   32.3350  106.0600 O.3   407  GDP407     -0.1143
      5  O3A       67.5020   30.3100  106.1210 O.3   407  GDP407     -0.2261
      6  PA        67.2260   29.4050  104.9560 P.3   407  GDP407      0.2231
      7  O1A       66.8110   30.2860  103.8450 O.2   407  GDP407     -0.5169
      8  O2A       66.2410   28.3930  105.4750 O.3   407  GDP407     -0.4370
      9  O5'       68.5030   28.5310  104.5360 O.3   407  GDP407     -0.3111
     10  C5'       69.5560   28.8940  103.6580 C.3   407  GDP407      0.1813
     11  C4'       69.9760   27.6440  102.9200 C.3   407  GDP407      0.1799
     12  O4'       69.9970   26.6320  103.9460 O.3   407  GDP407     -0.3326
     13  C3'       68.9830   27.1360  101.8830 C.3   407  GDP407      0.2158
     14  O3'       69.6580   26.8700  100.7170 O.3   407  GDP407     -0.2175
     15  C2'       68.4170   25.8540  102.4950 C.3   407  GDP407      0.2310
     16  O2'       67.9070   24.9700  101.5100 O.3   407  GDP407     -0.2158
     17  C1'       69.6140   25.3920  103.3500 C.3   407  GDP407      0.2293
     18  N9        69.4150   24.3330  104.3970 N.pl3 407  GDP407     -0.2354
     19  C8        68.4620   24.5160  105.3860 C.3   407  GDP407      0.2246
     20  N7        68.3250   23.5510  106.2510 N.2   407  GDP407     -0.2322
     21  C5        69.3420   22.6940  105.9340 C.2   407  GDP407      0.2182
     22  C6        69.6200   21.4620  106.5310 C.1   407  GDP407      0.2372
     23  O6        69.0580   21.0010  107.5390 O.2   407  GDP407     -0.2069
     24  N1        70.8360   20.9870  106.0430 N.2   407  GDP407     -0.2485
     25  C2        71.5010   21.5390  104.9680 C.1   407  GDP407      0.2531
     26  N2        72.5770   20.9130  104.4860 N.pl3 407  GDP407     -0.0226
     27  N3        71.1870   22.6760  104.3710 N.2   407  GDP407     -0.3074
     28  C4        70.0650   23.1860  104.8710 C.2   407  GDP407      0.2300
@<TRIPOS>BOND
     1    14    13    1
     2    16    15    1
     3    13    15    1
     4    13    11    1
     5    15    17    1
     6    11    10    1
     7    11    12    1
     8    17    12    1
     9    17    18    1
    10    10     9    1
    11     7     6    2
    12    27    28    2
    13    27    25    2
    14    18    28    1
    15    18    19    1
    16    26    25    1
    17     9     6    1
    18    28    21    1
    19     6     8    1
    20     6     5    1
    21    25    24    2
    22    19    20    1
    23    21    20    2
    24    21    22    1
    25    24    22    2
    26     3     1    2
    27     4     1    1
    28     5     1    1
    29    22    23    2
    30     1     2    1
