@<TRIPOS>MOLECULE
1tuj_TSD_A_1.pdb
 22 17 0 0 0
SMALL
GASTEIGER

@<TRIPOS>ATOM
      1  C1        -3.7210    1.1510    2.8850 C.2   124  TSD124      0.0000
      2  O12       -3.6900    0.0720    3.5120 O.co2 124  TSD124      0.0000
      3  O13       -4.6010    2.0100    3.1030 O.co2 124  TSD124      0.0000
      4  C2        -2.6440    1.4360    1.8360 C.3   124  TSD124      0.0000
      5  C3        -3.0540    0.9590    0.4050 C.3   124  TSD124      0.0000
      6 SI4        -1.8010    1.1570   -0.8950 Si    124  TSD124      0.0000
      7  C4        -0.3220    0.2440   -0.4210 C.3   124  TSD124      0.0000
      8  C5        -2.4640    0.5050   -2.4370 C.3   124  TSD124      0.0000
      9  C6        -1.4180    2.9090   -1.0750 C.3   124  TSD124      0.0000
     10  D31       -3.9370    1.5110    0.1150 Du    124  TSD124      0.0000
     11  D32       -3.3130   -0.0870    0.4710 Du    124  TSD124      0.0000
     12  D21       -2.4630    2.5010    1.8090 Du    124  TSD124      0.0000
     13  D22       -1.7380    0.9240    2.1250 Du    124  TSD124      0.0000
     14  H41       -0.1610   -0.5960   -1.0820 H     124  TSD124      0.0000
     15  H42       -0.4100   -0.1350    0.5860 H     124  TSD124      0.0000
     16  H43        0.5530    0.8770   -0.4660 H     124  TSD124      0.0000
     17  H51       -1.6790    0.3740   -3.1670 H     124  TSD124      0.0000
     18  H52       -3.2000    1.1760   -2.8530 H     124  TSD124      0.0000
     19  H53       -2.9360   -0.4530   -2.2760 H     124  TSD124      0.0000
     20  H61       -0.6640    3.0620   -1.8330 H     124  TSD124      0.0000
     21  H62       -1.0490    3.3180   -0.1470 H     124  TSD124      0.0000
     22  H63       -2.2980    3.4660   -1.3620 H     124  TSD124      0.0000
@<TRIPOS>BOND
     1    17     8    1
     2    18     8    1
     3     8    19    1
     4     8     6    1
     5    20     9    1
     6    22     9    1
     7    14     7    1
     8     9     6    1
     9     9    21    1
    10     6     7    1
    11     6     5    1
    12    16     7    1
    13     7    15    1
    14     5     4    1
    15     4     1    1
    16     1     3   ar
    17     1     2   ar
