@<TRIPOS>MOLECULE
1tuk_PGM_A_1.pdb
 32 31 0 0 0
SMALL
GASTEIGER

@<TRIPOS>ATOM
      1  C1        27.2830   33.9350   13.1580 C.3   103  PGM103      0.2174
      2  O1        26.2930   33.6480   14.1440 O.3   103  PGM103     -0.2175
      3  C2        28.5460   33.2490   13.6030 C.3   103  PGM103      0.2146
      4  O2        29.4030   34.2050   14.2200 O.3   103  PGM103     -0.2176
      5  C3        29.2970   32.5610   12.4760 C.3   103  PGM103      0.1846
      6  O4        29.2000   33.1480   11.1790 O.3   103  PGM103     -0.3112
      7  P5        30.3580   32.8430   10.1160 P.3   103  PGM103      0.2145
      8  O5A       31.3310   33.9940   10.1550 O.2   103  PGM103     -0.5172
      9  O5B       30.8350   31.4480   10.4350 O.3   103  PGM103     -0.4373
     10  O6        29.6600   32.7840    8.6500 O.3   103  PGM103     -0.3055
     11  C7        30.2930   32.4850    7.4000 C.3   103  PGM103      0.2210
     12  C8        31.7900   32.2370    7.4220 C.2   103  PGM103      0.2406
     13  O8        32.6280   33.0300    6.7640 O.2   103  PGM103     -0.2853
     14  C9        32.2980   31.2000    8.0760 C.2   103  PGM103      0.2226
     15  OQ1       34.2360   30.4580   10.2920 O.2   103  PGM103     -0.2497
     16  OQ2       33.7290   30.9790    8.1070 O.3   103  PGM103     -0.4178
     17  CA        33.9970   30.0450    9.1820 C.2   103  PGM103      0.3216
     18  CB        33.9270   28.5690    8.9410 C.3   103  PGM103      0.1100
     19  CC        34.8530   28.0950    7.8390 C.3   103  PGM103      0.0117
     20  CD        34.7030   26.5820    7.7140 C.3   103  PGM103      0.0006
     21  CE        35.5830   25.8130    8.6970 C.3   103  PGM103      0.0000
     22  CF        34.9790   24.4470    8.8170 C.3   103  PGM103      0.0000
     23  CG        35.7540   23.4140    9.5880 C.3   103  PGM103      0.0000
     24  CH        35.3940   21.9890    9.1870 C.3   103  PGM103      0.0000
     25  CI        33.9180   21.7740    8.9870 C.3   103  PGM103      0.0000
     26  CJ        33.7430   20.3520    8.5690 C.3   103  PGM103      0.0000
     27  CK        32.4100   20.2400    7.8470 C.3   103  PGM103      0.0000
     28  CL        31.4640   19.4560    8.7160 C.3   103  PGM103      0.0000
     29  CM        30.1050   19.1220    8.1400 C.3   103  PGM103      0.0000
     30  CN        29.2660   18.5730    9.2370 C.3   103  PGM103      0.0000
     31  CO        27.8480   18.2060    8.7770 C.3   103  PGM103      0.0000
     32  CP        26.9990   17.5380    9.8440 C.3   103  PGM103      0.0000
@<TRIPOS>BOND
     1    13    12    1
     2    11    12    1
     3    11    10    1
     4    12    14    2
     5    20    19    1
     6    20    21    1
     7    19    18    1
     8    27    26    1
     9    27    28    1
    10    14    16    1
    11    16    17    1
    12    29    28    1
    13    29    30    1
    14    26    25    1
    15    10     7    1
    16    21    22    1
    17    31    30    1
    18    31    32    1
    19    22    23    1
    20    18    17    1
    21    25    24    1
    22    17    15    2
    23    24    23    1
    24     7     8    2
    25     7     9    1
    26     7     6    1
    27     6     5    1
    28     5     3    1
    29     1     3    1
    30     1     2    1
    31     3     4    1
