@<TRIPOS>MOLECULE
1tum_APC_A_1.pdb
 46 48 0 0 0
SMALL
GASTEIGER

@<TRIPOS>ATOM
      1  PG         7.7680   -0.4020    8.5510 P.3   130  APC130      0.2174
      2  O1G        7.6600   -0.0110   10.1070 O.3   130  APC130     -0.4372
      3  O2G        7.4200   -1.8230    8.3370 O.2   130  APC130     -0.5171
      4  O3G        6.8190    0.5370    7.6500 O.3   130  APC130     -0.3433
      5  PB        10.4430    0.8120    8.5260 P.3   130  APC130      0.3769
      6  O1B       10.4930    0.7750   10.1360 O.3   130  APC130     -0.1396
      7  O2B       11.7190    0.2910    7.9850 O.2   130  APC130     -0.2552
      8  O3B        9.2480   -0.1220    7.9820 O.3   130  APC130     -0.2488
      9  PA        11.5140    2.9520    8.2210 P.3   130  APC130      0.3718
     10  O1A       12.4220    2.5620    7.1200 O.2   130  APC130     -0.2555
     11  O2A       11.9810    2.7680    9.6130 O.3   130  APC130     -0.1399
     12  C3A       10.2400    2.2050    8.0670 C.3   130  APC130      0.1555
     13  O5'       11.2170    4.5220    8.0370 O.3   130  APC130     -0.3034
     14  C5'       10.0880    4.9680    7.2870 C.3   130  APC130      0.0858
     15  C4'        9.1690    5.8370    8.1410 C.3   130  APC130      0.1131
     16  O4'        8.5660    6.8980    7.3740 O.3   130  APC130     -0.3474
     17  C3'        8.0490    5.0050    8.7220 C.3   130  APC130      0.1133
     18  O3'        8.3110    4.6630   10.0860 O.3   130  APC130     -0.3864
     19  C2'        6.8030    5.8400    8.5970 C.3   130  APC130      0.1266
     20  O2'        6.3410    6.2700    9.8780 O.3   130  APC130     -0.3849
     21  C1'        7.1720    7.0280    7.7260 C.3   130  APC130      0.1617
     22  N9         6.3100    7.0440    6.5330 N.pl3 130  APC130     -0.2234
     23  C8         6.1040    6.0750    5.6080 C.2   130  APC130      0.1451
     24  N7         5.2110    6.3020    4.7030 N.2   130  APC130     -0.3871
     25  C5         4.7660    7.5780    5.0500 C.2   130  APC130      0.2211
     26  C6         3.8070    8.4320    4.4930 C.2   130  APC130      0.2227
     27  N6         3.0870    8.1200    3.4160 N.pl3 130  APC130     -0.3300
     28  N1         3.6270    9.6250    5.0810 N.2   130  APC130     -0.3296
     29  C2         4.3420    9.9650    6.1530 C.1   130  APC130      0.0930
     30  N3         5.2670    9.2330    6.7680 N.2   130  APC130     -0.3287
     31  C4         5.4340    8.0410    6.1600 C.2   130  APC130      0.2354
     32 HOG3        6.1620   -0.0300    7.2390 H     130  APC130      0.2176
     33 H3A1        9.9310    2.2030    7.0200 H     130  APC130      0.0514
     34 H3A2        9.4650    2.6800    8.6700 H     130  APC130      0.0514
     35 H5'1        9.5310    4.1010    6.9310 H     130  APC130      0.0592
     36 H5'2       10.4380    5.5400    6.4330 H     130  APC130      0.0592
     37  H4'        9.7490    6.2710    8.9530 H     130  APC130      0.0647
     38  H3'        7.9370    4.1010    8.1210 H     130  APC130      0.0647
     39 HO3'        8.1120    5.3830   10.6890 H     130  APC130      0.2100
     40  H2'        6.0240    5.2560    8.1010 H     130  APC130      0.0663
     41 HO2'        5.3900    6.1460    9.8890 H     130  APC130      0.2101
     42  H1'        7.0230    7.9500    8.2880 H     130  APC130      0.0841
     43  H8         6.6850    5.1440    5.6160 H     130  APC130      0.1149
     44 HN61        3.2190    7.2290    2.9600 H     130  APC130      0.1448
     45 HN62        2.4080    8.7760    3.0570 H     130  APC130      0.1448
     46  H2         4.1640   10.9600    6.5530 H     130  APC130      0.1751
@<TRIPOS>BOND
     1    44    27    1
     2    45    27    1
     3    27    26    1
     4    26    25    1
     5    26    28    2
     6    24    25    2
     7    24    23    2
     8    25    31    1
     9    28    29    2
    10    23    43    1
    11    23    22    1
    12    29    46    1
    13    29    30    2
    14    31    22    1
    15    31    30    2
    16    36    14    1
    17    22    21    1
    18    35    14    1
    19    33    12    1
    20    10     9    2
    21    32     4    1
    22    14    13    1
    23    14    15    1
    24    16    21    1
    25    16    15    1
    26     4     1    1
    27    21    42    1
    28    21    19    1
    29     8     5    1
    30     8     1    1
    31     7     5    2
    32    13     9    1
    33    12     9    1
    34    12     5    1
    35    12    34    1
    36    40    19    1
    37    38    17    1
    38    15    17    1
    39    15    37    1
    40     9    11    1
    41     3     1    2
    42     5     6    1
    43     1     2    1
    44    19    17    1
    45    19    20    1
    46    17    18    1
    47    20    41    1
    48    18    39    1
