@<TRIPOS>MOLECULE
1tuu_AMP_B_1.pdb
 23 25 0 0 0
SMALL
GASTEIGER

@<TRIPOS>ATOM
      1  P         76.0730    7.1960   19.1900 P.3   2853  AMP2853     0.5327
      2  O1P       75.6070    8.2050   20.1510 O.3   2853  AMP2853    -0.1145
      3  O2P       77.3970    7.5140   18.5770 O.3   2853  AMP2853    -0.1145
      4  O3P       75.0220    6.8840   18.1270 O.2   2853  AMP2853    -0.2224
      5  O5'       76.2880    5.8740   20.1010 O.3   2853  AMP2853    -0.2675
      6  C5'       76.7390    4.6880   19.4340 C.3   2853  AMP2853     0.1860
      7  C4'       76.1740    3.5430   20.2570 C.3   2853  AMP2853     0.1823
      8  O4'       76.5660    2.2890   19.6000 O.3   2853  AMP2853    -0.3135
      9  C3'       76.7700    3.5220   21.8180 C.3   2853  AMP2853     0.2184
     10  O3'       75.5870    3.3630   22.7240 O.3   2853  AMP2853    -0.2174
     11  C2'       77.7370    2.2530   21.7640 C.3   2853  AMP2853     0.2570
     12  O2'       77.5950    1.3980   22.8780 O.3   2853  AMP2853    -0.2130
     13  C1'       77.3040    1.4210   20.4520 C.3   2853  AMP2853     0.3186
     14  N9        78.4850    0.9180   19.7270 N.pl3 2853  AMP2853    -0.1439
     15  C8        79.5730    1.6400   19.1930 C.3   2853  AMP2853     0.3377
     16  N7        80.5310    0.9300   18.5610 N.2   2853  AMP2853    -0.2095
     17  C5        79.9880   -0.3570   18.7240 C.2   2853  AMP2853     0.2526
     18  C6        80.4440   -1.6370   18.2690 C.2   2853  AMP2853     0.4393
     19  N6        81.6490   -1.7250   17.5990 N.pl3 2853  AMP2853     0.2180
     20  N1        79.6290   -2.7370   18.6000 N.2   2853  AMP2853     0.0021
     21  C2        78.4540   -2.6090   19.2580 C.3   2853  AMP2853     0.5254
     22  N3        77.9460   -1.4360   19.7130 N.2   2853  AMP2853    -0.0055
     23  C4        78.7250   -0.3670   19.3890 C.2   2853  AMP2853     0.3518
@<TRIPOS>BOND
     1    19    18    1
     2     4     1    2
     3    18    20    2
     4    18    17    1
     5    16    17    2
     6    16    15    1
     7     3     1    1
     8    20    21    1
     9    17    23    1
    10     1     5    1
    11     1     2    1
    12    15    14    1
    13    21    22    1
    14    23    22    2
    15    23    14    1
    16     6     5    1
    17     6     7    1
    18     8     7    1
    19     8    13    1
    20    14    13    1
    21     7     9    1
    22    13    11    1
    23    11     9    1
    24    11    12    1
    25     9    10    1
