@<TRIPOS>MOLECULE
1tuu_ADP_A_1.pdb
 27 29 0 0 0
SMALL
GASTEIGER

@<TRIPOS>ATOM
      1  PB        29.8860   -8.0840   16.4920 P.3   401  ADP401      0.5373
      2  O1B       28.8850   -7.0300   16.0940 O.3   401  ADP401     -0.1143
      3  O2B       29.4280   -9.0510   17.5550 O.3   401  ADP401     -0.1143
      4  O3B       30.4370   -8.8300   15.2270 O.2   401  ADP401     -0.2221
      5  PA        32.6110   -6.9330   16.4200 P.3   401  ADP401      0.2231
      6  O1A       33.2330   -8.1110   15.7360 O.2   401  ADP401     -0.5169
      7  O2A       33.3820   -6.2670   17.4550 O.3   401  ADP401     -0.4370
      8  O3A       31.1710   -7.3670   17.0580 O.3   401  ADP401     -0.2261
      9  O5'       32.1270   -5.9530   15.2710 O.3   401  ADP401     -0.3111
     10  C5'       31.4320   -4.7240   15.6040 C.3   401  ADP401      0.1813
     11  C4'       31.8030   -3.5300   14.7350 C.3   401  ADP401      0.1821
     12  O4'       32.2800   -4.0160   13.4460 O.3   401  ADP401     -0.3135
     13  C3'       30.7040   -2.5400   14.2930 C.3   401  ADP401      0.2184
     14  O3'       30.4210   -1.6650   15.3860 O.3   401  ADP401     -0.2174
     15  C2'       31.4770   -1.7810   13.1040 C.3   401  ADP401      0.2570
     16  O2'       32.4450   -0.8160   13.6520 O.3   401  ADP401     -0.2130
     17  C1'       32.1840   -3.0080   12.4110 C.3   401  ADP401      0.3186
     18  N9        31.3400   -3.5070   11.2290 N.pl3 401  ADP401     -0.1439
     19  C8        30.6430   -4.6260   11.1440 C.3   401  ADP401      0.3377
     20  N7        30.0270   -4.7330   10.0090 N.2   401  ADP401     -0.2095
     21  C5        30.3760   -3.5890    9.2960 C.2   401  ADP401      0.2526
     22  C6        30.0600   -3.0570    7.9810 C.2   401  ADP401      0.4393
     23  N6        29.2510   -3.7140    7.0710 N.pl3 401  ADP401      0.2180
     24  N1        30.6070   -1.8720    7.6220 N.2   401  ADP401      0.0021
     25  C2        31.3900   -1.2200    8.4770 C.3   401  ADP401      0.5254
     26  N3        31.7300   -1.6160    9.7140 N.2   401  ADP401     -0.0055
     27  C4        31.1950   -2.8260   10.0580 C.2   401  ADP401      0.3518
@<TRIPOS>BOND
     1    23    22    1
     2    24    22    2
     3    24    25    1
     4    22    21    1
     5    25    26    1
     6    21    20    2
     7    21    27    1
     8    26    27    2
     9    20    19    1
    10    27    18    1
    11    19    18    1
    12    18    17    1
    13    17    15    1
    14    17    12    1
    15    15    16    1
    16    15    13    1
    17    12    11    1
    18    13    11    1
    19    13    14    1
    20    11    10    1
    21     4     1    2
    22     9    10    1
    23     9     5    1
    24     6     5    2
    25     2     1    1
    26     5     8    1
    27     5     7    1
    28     1     8    1
    29     1     3    1
