@<TRIPOS>MOLECULE
1tuv_VK3_A_1.pdb
 13 14 0 0 0
SMALL
GASTEIGER

@<TRIPOS>ATOM
      1  C1K      -10.8610    4.4610  -18.2370 C.2   4558  VK34558     0.1955
      2  O1K      -11.5380    5.0030  -17.3660 O.2   4558  VK34558    -0.2866
      3  C2K      -11.4950    3.5410  -19.0580 C.2   4558  VK34558     0.0409
      4  C3K      -10.8290    2.8930  -20.0780 C.2   4558  VK34558     0.0202
      5  C4K       -9.3960    3.1200  -20.3380 C.2   4558  VK34558     0.1918
      6  O4K       -8.8160    2.4840  -21.2430 O.2   4558  VK34558    -0.2869
      7  C5K       -8.6680    4.0570  -19.4690 C.ar  4558  VK34558     0.0417
      8  C6K       -7.3160    4.3130  -19.6030 C.ar  4558  VK34558     0.0033
      9  C7K       -6.7110    5.2140  -18.7200 C.ar  4558  VK34558     0.0001
     10  C8K       -7.4250    5.8100  -17.7300 C.ar  4558  VK34558     0.0001
     11  C9K       -8.7300    5.6110  -17.5550 C.ar  4558  VK34558     0.0033
     12  C10       -9.4190    4.7540  -18.3950 C.ar  4558  VK34558     0.0420
     13  C11      -11.5600    1.9150  -20.9470 C.3   4558  VK34558     0.0345
@<TRIPOS>BOND
     1     6     5    2
     2    13     4    1
     3     5     4    1
     4     5     7    1
     5     4     3    2
     6     8     7   ar
     7     8     9   ar
     8     7    12   ar
     9     3     1    1
    10     9    10   ar
    11    12     1    1
    12    12    11   ar
    13     1     2    2
    14    10    11   ar
