@<TRIPOS>MOLECULE
1tuy_ADP_A_1.pdb
 27 29 0 0 0
SMALL
GASTEIGER

@<TRIPOS>ATOM
      1  PB        29.9470   -7.6290   16.8140 P.3   401  ADP401      0.5373
      2  O1B       28.7070   -6.7670   17.0380 O.3   401  ADP401     -0.1143
      3  O2B       29.9730   -8.9030   17.6110 O.3   401  ADP401     -0.1143
      4  O3B       30.1680   -7.8780   15.2860 O.2   401  ADP401     -0.2221
      5  PA        32.6430   -6.3680   16.4980 P.3   401  ADP401      0.2231
      6  O1A       33.2630   -7.6350   15.9590 O.2   401  ADP401     -0.5169
      7  O2A       33.4490   -5.5650   17.4100 O.3   401  ADP401     -0.4370
      8  O3A       31.2370   -6.7890   17.2300 O.3   401  ADP401     -0.2261
      9  O5'       32.1380   -5.4870   15.2330 O.3   401  ADP401     -0.3111
     10  C5'       31.4780   -4.1710   15.4250 C.3   401  ADP401      0.1813
     11  C4'       32.0370   -3.1070   14.4810 C.3   401  ADP401      0.1821
     12  O4'       32.2760   -3.7560   13.1840 O.3   401  ADP401     -0.3135
     13  C3'       31.1300   -1.9550   14.0330 C.3   401  ADP401      0.2184
     14  O3'       31.1390   -0.8940   14.9940 O.3   401  ADP401     -0.2174
     15  C2'       31.9350   -1.4270   12.8050 C.3   401  ADP401      0.2570
     16  O2'       31.0680   -0.6420   11.9330 O.3   401  ADP401     -0.2130
     17  C1'       32.2940   -2.8020   12.1050 C.3   401  ADP401      0.3186
     18  N9        31.3110   -3.2720   10.9770 N.pl3 401  ADP401     -0.1439
     19  C8        30.4640   -4.3020   11.0190 C.3   401  ADP401      0.3377
     20  N7        29.7620   -4.4280    9.9490 N.2   401  ADP401     -0.2095
     21  C5        30.1820   -3.3760    9.1140 C.2   401  ADP401      0.2526
     22  C6        29.8270   -2.9200    7.7590 C.2   401  ADP401      0.4393
     23  N6        28.8840   -3.5310    6.9650 N.pl3 401  ADP401      0.2180
     24  N1        30.4710   -1.8240    7.2680 N.2   401  ADP401      0.0021
     25  C2        31.3950   -1.2000    8.0180 C.3   401  ADP401      0.5254
     26  N3        31.7840   -1.5580    9.2680 N.2   401  ADP401     -0.0055
     27  C4        31.1310   -2.6470    9.7570 C.2   401  ADP401      0.3518
@<TRIPOS>BOND
     1    23    22    1
     2    24    22    2
     3    24    25    1
     4    22    21    1
     5    25    26    1
     6    21    27    1
     7    21    20    2
     8    26    27    2
     9    27    18    1
    10    20    19    1
    11    18    19    1
    12    18    17    1
    13    16    15    1
    14    17    15    1
    15    17    12    1
    16    15    13    1
    17    12    11    1
    18    13    11    1
    19    13    14    1
    20    11    10    1
    21     9    10    1
    22     9     5    1
    23     4     1    2
    24     6     5    2
    25     5     8    1
    26     5     7    1
    27     1     2    1
    28     1     8    1
    29     1     3    1
