@<TRIPOS>MOLECULE
1tv2_BG5_A_1.pdb
 10 10 0 0 0
SMALL
GASTEIGER

@<TRIPOS>ATOM
      1  C1        24.2570   90.1380   84.9050 C.2   459  BG5459      0.2244
      2  C2        25.6750   89.5920   85.0100 C.3   459  BG5459      0.1388
      3  C3        26.5250   90.4140   85.9650 C.3   459  BG5459      0.0266
      4  C4        26.5540   89.6260   87.2760 C.3   459  BG5459      0.0399
      5  C5        26.3260   88.1600   86.9150 C.3   459  BG5459      0.1787
      6  C6        27.8120   90.5190   85.3520 C.3   459  BG5459      0.0020
      7  N1        25.7340   88.1470   85.5200 N.3   459  BG5459     -0.1934
      8  O1        23.9960   90.9830   84.0440 O.2   459  BG5459     -0.2868
      9  N2        25.3800   87.5830   87.8190 N.4   459  BG5459     -0.0314
     10  O2        23.9360   87.5820   87.6810 O.3   459  BG5459     -0.0987
@<TRIPOS>BOND
     1     8     1    2
     2     1     2    1
     3     2     7    1
     4     2     3    1
     5     6     3    1
     6     7     5    1
     7     3     4    1
     8     5     4    1
     9     5     9    1
    10    10     9    1
