@<TRIPOS>MOLECULE
1tv3_BG4_A_1.pdb
 11 11 0 0 0
SMALL
GASTEIGER

@<TRIPOS>ATOM
      1  C1        24.2670   90.1140   85.4290 C.2   459  BG4459      0.2244
      2  C2        25.6890   89.5620   85.4810 C.3   459  BG4459      0.1387
      3  C3        26.5570   90.3120   86.4830 C.3   459  BG4459      0.0265
      4  C4        26.5220   89.4500   87.7550 C.3   459  BG4459      0.0382
      5  C5        26.3530   88.0030   87.2910 C.3   459  BG4459      0.1595
      6  C6        27.8710   90.3880   85.8870 C.3   459  BG4459      0.0020
      7  N1        25.7490   88.0890   85.8960 N.3   459  BG4459     -0.1948
      8  O1        23.9850   90.9850   84.5890 O.2   459  BG4459     -0.2868
      9  N2        25.4390   87.3000   88.1500 N.4   459  BG4459     -0.1166
     10  O2        24.0070   87.6120   88.1810 O.3   459  BG4459     -0.1166
     11  C7        25.5540   85.8700   87.9030 C.3   459  BG4459      0.1255
@<TRIPOS>BOND
     1     8     1    2
     2     1     2    1
     3     2     7    1
     4     2     3    1
     5     6     3    1
     6     7     5    1
     7     3     4    1
     8     5     4    1
     9     5     9    1
    10    11     9    1
    11     9    10    1
