@<TRIPOS>MOLECULE
1tv4_BG3_A_1.pdb
 12 12 0 0 0
SMALL
GASTEIGER

@<TRIPOS>ATOM
      1  C1        24.4150   90.1830   85.2080 C.2   511  BG3511      0.2244
      2  C2        25.8390   89.7770   85.7170 C.3   511  BG3511      0.1390
      3  C3        26.1380   89.9100   87.1810 C.3   511  BG3511      0.0268
      4  C4        27.5470   89.3900   87.1900 C.3   511  BG3511      0.0441
      5  C5        27.2190   88.1090   86.3570 C.3   511  BG3511      0.2087
      6  C6        26.1420   91.3130   87.6500 C.3   511  BG3511      0.0020
      7  O1        24.2390   91.0450   84.3440 O.2   511  BG3511     -0.2868
      8  N1        26.1030   88.3750   85.3620 N.3   511  BG3511     -0.1901
      9  S1        28.6860   87.5100   85.5130 S.3   511  BG3511      0.0363
     10  O2        29.7280   87.2630   86.5280 O.3   511  BG3511     -0.0682
     11  O3        28.3210   86.2990   84.7610 O.3   511  BG3511     -0.0682
     12  O4        29.1610   88.5680   84.6050 O.3   511  BG3511     -0.0682
@<TRIPOS>BOND
     1     7     1    2
     2    12     9    1
     3    11     9    1
     4     1     2    1
     5     8     2    1
     6     8     5    1
     7     9     5    1
     8     9    10    1
     9     2     3    1
    10     5     4    1
    11     3     4    1
    12     3     6    1
