@<TRIPOS>MOLECULE
1tv5_FMN_A_1.pdb
 31 33 0 0 0
SMALL
GASTEIGER

@<TRIPOS>ATOM
      1  N1        28.2850   39.9630   25.9340 N.2   1002  FMN1002    -0.2890
      2  C2        28.3100   39.9060   24.5830 C.1   1002  FMN1002     0.3669
      3  O2        27.3280   39.6710   23.9240 O.2   1002  FMN1002    -0.1744
      4  N3        29.5690   40.1370   23.9230 N.2   1002  FMN1002    -0.2300
      5  C4        30.7310   40.4080   24.5370 C.1   1002  FMN1002     0.2513
      6  O4        31.7620   40.5910   23.8770 O.2   1002  FMN1002    -0.2057
      7  C4A       30.7050   40.4770   26.0000 C.2   1002  FMN1002     0.2700
      8  N5        31.8080   40.7460   26.6980 N.2   1002  FMN1002    -0.3878
      9  C5A       31.7350   40.7920   28.0780 C.2   1002  FMN1002     0.1320
     10  C6        32.9170   41.0810   28.8730 C.2   1002  FMN1002     0.0250
     11  C7        32.8840   41.1250   30.2570 C.2   1002  FMN1002    -0.0238
     12  C7M       34.1650   41.4310   31.0490 C.3   1002  FMN1002     0.0308
     13  C8        31.6310   40.8740   30.9630 C.2   1002  FMN1002    -0.0280
     14  C8M       31.5130   40.8960   32.4850 C.3   1002  FMN1002     0.0304
     15  C9        30.4930   40.6050   30.2150 C.2   1002  FMN1002    -0.0041
     16  C9A       30.5050   40.5570   28.7960 C.3   1002  FMN1002     0.1497
     17  N10       29.3460   40.2760   27.9940 N.pl3 1002  FMN1002    -0.2691
     18  C10       29.3910   40.2270   26.6310 C.2   1002  FMN1002     0.2416
     19  C1'       28.0450   40.0260   28.6440 C.3   1002  FMN1002     0.1294
     20  C2'       27.8280   38.5780   29.0760 C.3   1002  FMN1002     0.2044
     21  O2'       27.8270   37.7140   27.9050 O.3   1002  FMN1002    -0.2185
     22  C3'       26.4620   38.3840   29.7730 C.3   1002  FMN1002     0.2164
     23  O3'       25.3500   38.7420   28.8750 O.3   1002  FMN1002    -0.2175
     24  C4'       26.3170   39.2610   31.0200 C.3   1002  FMN1002     0.2147
     25  O4'       27.5750   39.3320   31.7430 O.3   1002  FMN1002    -0.2176
     26  C5'       25.2390   38.7220   31.9310 C.3   1002  FMN1002     0.1892
     27  O5'       25.6000   37.4480   32.4300 O.3   1002  FMN1002    -0.2674
     28  P         26.1200   37.2300   33.9100 P.3   1002  FMN1002     0.5327
     29  O1P       27.5420   37.7500   34.0130 O.2   1002  FMN1002    -0.2224
     30  O2P       25.9840   35.7420   34.0960 O.3   1002  FMN1002    -0.1145
     31  O3P       25.1840   38.0050   34.8370 O.3   1002  FMN1002    -0.1145
@<TRIPOS>BOND
     1     6     5    2
     2     4     5    2
     3     4     2    2
     4     3     2    2
     5     5     7    1
     6     2     1    2
     7     1    18    2
     8     7    18    1
     9     7     8    2
    10    18    17    1
    11     8     9    2
    12    21    20    1
    13    17    19    1
    14    17    16    1
    15     9    16    1
    16     9    10    1
    17    19    20    1
    18    16    15    1
    19    10    11    2
    20    23    22    1
    21    20    22    1
    22    22    24    1
    23    15    13    2
    24    11    13    1
    25    11    12    1
    26    13    14    1
    27    24    25    1
    28    24    26    1
    29    26    27    1
    30    27    28    1
    31    28    29    2
    32    28    30    1
    33    28    31    1
