@<TRIPOS>MOLECULE
1tv5_A26_A_1.pdb
 19 19 0 0 0
SMALL
GASTEIGER

@<TRIPOS>ATOM
      1  C1        38.3680   34.4530   38.2830 C.ar  1001  A261001     0.0166
      2  C2        38.6760   33.1590   38.7640 C.ar  1001  A261001     0.0052
      3  C3        38.8760   32.0840   37.8180 C.ar  1001  A261001     0.0715
      4  C4        38.7530   32.3570   36.4440 C.ar  1001  A261001     0.0052
      5  C5        38.4540   33.6120   35.9630 C.ar  1001  A261001     0.0166
      6  C6        38.2530   34.7060   36.8980 C.ar  1001  A261001     0.0737
      7  C11       39.2150   30.6620   38.2470 C.3   1001  A261001     0.4186
      8  F12       38.3350   29.9070   37.9940 F     1001  A261001    -0.1659
      9  F13       39.4160   30.6890   39.5190 F     1001  A261001    -0.1659
     10  F14       40.2470   30.4810   37.9450 F     1001  A261001    -0.1659
     11  N15       37.9610   35.9990   36.5290 N.am  1001  A261001    -0.1748
     12  C16       37.4820   36.4980   35.3740 C.2   1001  A261001     0.2815
     13  C17       37.0340   37.9500   35.2940 C.2   1001  A261001     0.1581
     14  C18       36.5330   38.3550   34.0010 C.1   1001  A261001     0.1080
     15  C19       37.1250   38.7660   36.4010 C.2   1001  A261001     0.1876
     16  O20       37.6210   38.3080   37.5870 O.2   1001  A261001    -0.2905
     17  C21       36.7250   40.2190   36.5150 C.3   1001  A261001     0.0782
     18  O25       37.3680   35.8310   34.3150 O.2   1001  A261001    -0.2672
     19  N26       36.1600   38.6860   32.9710 N.1   1001  A261001    -0.1906
@<TRIPOS>BOND
     1    19    14    3
     2    14    13    1
     3    18    12    2
     4    13    12    1
     5    13    15    2
     6    12    11   am
     7     5     4   ar
     8     5     6   ar
     9    15    17    1
    10    15    16    1
    11     4     3   ar
    12    11     6    1
    13     6     1   ar
    14     3     7    1
    15     3     2   ar
    16    10     7    1
    17     8     7    1
    18     7     9    1
    19     1     2   ar
