@<TRIPOS>MOLECULE
1tv6_CP9_A_1.pdb
 27 31 0 0 0
SMALL
GASTEIGER

@<TRIPOS>ATOM
      1  S1       146.4450  -23.0100   76.4920 S.2   561  CP9561     -0.0260
      2  C2       145.2900  -24.2080   77.0790 C.ar  561  CP9561      0.2925
      3  N3       144.0180  -23.9100   76.5880 N.ar  561  CP9561     -0.2856
      4  C4       143.9480  -22.7630   75.7770 C.ar  561  CP9561      0.0693
      5  C5       145.1990  -22.1430   75.6080 C.ar  561  CP9561      0.0497
      6  C6       145.3340  -20.9720   74.8220 C.ar  561  CP9561      0.0081
      7  C7       144.1860  -20.4470   74.1950 C.ar  561  CP9561      0.0006
      8  C8       142.9280  -21.0790   74.3600 C.ar  561  CP9561      0.0015
      9  C9       142.7890  -22.2350   75.1400 C.ar  561  CP9561      0.0178
     10  C10      142.8560  -24.7560   76.9410 C.3   561  CP9561      0.1363
     11  C11      142.5260  -25.9390   76.0540 C.ar  561  CP9561      0.0006
     12  C12      142.9550  -27.2350   76.3120 C.ar  561  CP9561     -0.0011
     13  C13      142.6080  -28.3110   75.4630 C.ar  561  CP9561      0.0146
     14  C14      141.8020  -28.0970   74.3040 C.ar  561  CP9561      0.0539
     15  C15      141.3680  -26.7730   74.0460 C.ar  561  CP9561      0.0146
     16  C16      141.7270  -25.7200   74.9120 C.ar  561  CP9561     -0.0011
     17  N17      141.4120  -29.2370   73.3770 N.pl3 561  CP9561     -0.2573
     18  C18      140.6240  -29.2310   72.1610 C.2   561  CP9561      0.1644
     19  N19      140.5010  -30.4240   71.6230 N.2   561  CP9561     -0.3919
     20  C20      141.1940  -31.2900   72.4430 C.2   561  CP9561      0.1517
     21  C21      141.7840  -30.6120   73.5520 C.3   561  CP9561      0.1566
     22  C22      142.5430  -31.3290   74.5230 C.2   561  CP9561      0.0215
     23  C23      142.6680  -32.7120   74.2960 C.2   561  CP9561      0.0965
     24  N24      142.1200  -33.3820   73.2420 N.2   561  CP9561     -0.2402
     25  C25      141.3960  -32.6770   72.3310 C.2   561  CP9561      0.1284
     26  C26      139.9980  -28.0330   71.5290 C.3   561  CP9561      0.0840
     27  O27      145.5900  -25.1500   77.8040 O.2   561  CP9561     -0.2594
@<TRIPOS>BOND
     1    26    18    1
     2    19    18    2
     3    19    20    2
     4    18    17    1
     5    25    20    1
     6    25    24    2
     7    20    21    1
     8    24    23    1
     9    17    21    1
    10    17    14    1
    11    21    22    1
    12    15    14   ar
    13    15    16   ar
    14     7     8   ar
    15     7     6   ar
    16    23    22    2
    17    14    13   ar
    18     8     9   ar
    19     6     5   ar
    20    16    11   ar
    21     9     4   ar
    22    13    12   ar
    23     5     4   ar
    24     5     1   ar
    25     4     3   ar
    26    11    12   ar
    27    11    10    1
    28     1     2   ar
    29     3    10    1
    30     3     2   ar
    31     2    27    2
