@<TRIPOS>MOLECULE
1tv8_SAM_A_1.pdb
 27 29 0 0 0
SMALL
GASTEIGER

@<TRIPOS>ATOM
      1  N         16.3450   71.7520   10.7480 N.3   1501  SAM1501    -0.1208
      2  CA        17.6500   71.0710   10.7910 C.3   1501  SAM1501     0.1952
      3  C         17.5530   69.5830   11.0950 C.2   1501  SAM1501     0.3819
      4  O         16.4530   69.1820   11.4950 O.co2 1501  SAM1501    -0.2441
      5  OXT       18.5960   68.9060   10.9130 O.co2 1501  SAM1501    -0.2441
      6  CB        18.6140   71.7080   11.8160 C.3   1501  SAM1501     0.0414
      7  CG        17.9490   72.2460   13.0690 C.3   1501  SAM1501     0.0503
      8  SD        16.9230   71.0710   13.9850 S.3   1501  SAM1501    -0.1761
      9  CE        16.3640   72.1620   15.3230 C.3   1501  SAM1501     0.0590
     10  C5'       18.2930   70.2880   14.8950 C.3   1501  SAM1501     0.0806
     11  C4'       18.0430   68.9320   15.5580 C.3   1501  SAM1501     0.1622
     12  O4'       17.2500   68.9850   16.7310 O.3   1501  SAM1501    -0.3153
     13  C3'       17.3900   67.8820   14.6590 C.3   1501  SAM1501     0.2168
     14  O3'       18.3830   66.9920   14.1700 O.3   1501  SAM1501    -0.2175
     15  C2'       16.3920   67.1900   15.5940 C.3   1501  SAM1501     0.2569
     16  O2'       16.3350   65.7960   15.3950 O.3   1501  SAM1501    -0.2130
     17  C1'       16.9110   67.6150   16.9820 C.3   1501  SAM1501     0.3185
     18  N9        15.9260   67.3470   18.0580 N.pl3 1501  SAM1501    -0.1439
     19  C8        14.7970   68.0820   18.3070 C.3   1501  SAM1501     0.3377
     20  N7        14.1280   67.5280   19.3510 N.2   1501  SAM1501    -0.2095
     21  C5        14.8100   66.4350   19.7880 C.2   1501  SAM1501     0.2526
     22  C6        14.5690   65.5010   20.8300 C.2   1501  SAM1501     0.4393
     23  N6        13.4990   65.6180   21.6170 N.pl3 1501  SAM1501     0.2180
     24  N1        15.4700   64.4640   21.0390 N.2   1501  SAM1501     0.0021
     25  C2        16.5830   64.3610   20.2310 C.3   1501  SAM1501     0.5254
     26  N3        16.8080   65.2770   19.2190 N.2   1501  SAM1501    -0.0055
     27  C4        15.9480   66.3080   18.9810 C.2   1501  SAM1501     0.3518
@<TRIPOS>BOND
     1     1     2    1
     2     2     3    1
     3     2     6    1
     4     5     3   ar
     5     3     4   ar
     6     6     7    1
     7     7     8    1
     8     8    10    1
     9     8     9    1
    10    14    13    1
    11    13    11    1
    12    13    15    1
    13    10    11    1
    14    16    15    1
    15    11    12    1
    16    15    17    1
    17    12    17    1
    18    17    18    1
    19    18    19    1
    20    18    27    1
    21    19    20    1
    22    27    26    2
    23    27    21    1
    24    26    25    1
    25    20    21    2
    26    21    22    1
    27    25    24    1
    28    22    24    2
    29    22    23    1
