@<TRIPOS>MOLECULE
1tve_178_A_1.pdb
 21 22 0 0 0
SMALL
GASTEIGER

@<TRIPOS>ATOM
      1  O         -4.8950   35.3630  -18.8670 O.3   1360  1781360    -0.2869
      2  C1        -4.0130   36.3900  -18.6150 C.ar  1360  1781360     0.1917
      3  C2        -2.6140   36.1520  -18.6410 C.ar  1360  1781360     0.0169
      4  C2A       -2.0890   34.7780  -18.9420 C.3   1360  1781360     0.0255
      5  C2B       -1.2680   34.2700  -17.7680 C.3   1360  1781360     0.0048
      6  C2G       -1.2260   34.8190  -20.1880 C.3   1360  1781360     0.0048
      7  C3        -1.7240   37.2080  -18.3830 C.ar  1360  1781360     0.0054
      8  C4        -2.2210   38.4950  -18.1020 C.ar  1360  1781360     0.0293
      9  C5        -3.6080   38.7270  -18.0770 C.ar  1360  1781360     0.0097
     10  C6        -4.5000   37.6850  -18.3320 C.ar  1360  1781360     0.0422
     11  S         -1.1420   39.7700  -17.7890 S.3   1360  1781360    -0.0869
     12  O'         1.1630   38.1690  -12.6140 O.3   1360  1781360    -0.2869
     13  C1'        0.6180   38.5440  -13.8210 C.ar  1360  1781360     0.1917
     14  C2'       -0.7670   38.8270  -13.9230 C.ar  1360  1781360     0.0169
     15  C2X       -1.6500   38.7190  -12.7130 C.3   1360  1781360     0.0255
     16  C2Y       -2.3050   40.0610  -12.4330 C.3   1360  1781360     0.0048
     17  C2Z       -2.7200   37.6700  -12.9470 C.3   1360  1781360     0.0048
     18  C3'       -1.3090   39.2080  -15.1590 C.ar  1360  1781360     0.0054
     19  C4'       -0.4810   39.3080  -16.2930 C.ar  1360  1781360     0.0293
     20  C5'        0.8930   39.0270  -16.1900 C.ar  1360  1781360     0.0097
     21  C6'        1.4420   38.6470  -14.9660 C.ar  1360  1781360     0.0422
@<TRIPOS>BOND
     1     6     4    1
     2     4     3    1
     3     4     5    1
     4     1     2    1
     5     3     2   ar
     6     3     7   ar
     7     2    10   ar
     8     7     8   ar
     9    10     9   ar
    10     8     9   ar
    11     8    11    1
    12    11    19    1
    13    19    20   ar
    14    19    18   ar
    15    20    21   ar
    16    18    14   ar
    17    21    13   ar
    18    14    13   ar
    19    14    15    1
    20    13    12    1
    21    17    15    1
    22    15    16    1
