@<TRIPOS>MOLECULE
1tvk_GDP_B_1.pdb
 28 30 0 0 0
SMALL
GASTEIGER

@<TRIPOS>ATOM
      1  PB       -17.0740    2.8430    5.3490 P.3   1500  GDP1500     0.5373
      2  O1B      -15.8120    3.5530    5.0130 O.3   1500  GDP1500    -0.1143
      3  O2B      -17.3970    2.5440    6.7700 O.3   1500  GDP1500    -0.1143
      4  O3B      -18.2090    3.6360    4.8060 O.2   1500  GDP1500    -0.2221
      5  O3A      -16.9730    1.5640    4.6120 O.3   1500  GDP1500    -0.2261
      6  PA       -16.0890    0.4300    4.9710 P.3   1500  GDP1500     0.2231
      7  O1A      -14.8880    1.0210    5.5960 O.2   1500  GDP1500    -0.5169
      8  O2A      -16.9070   -0.5350    5.7490 O.3   1500  GDP1500    -0.4370
      9  O5'      -15.6150   -0.2750    3.6170 O.3   1500  GDP1500    -0.3111
     10  C5'      -16.3840   -1.3220    3.0200 C.3   1500  GDP1500     0.1813
     11  C4'      -15.4770   -2.3770    2.4290 C.3   1500  GDP1500     0.1799
     12  O4'      -14.3790   -2.6520    3.3290 O.3   1500  GDP1500    -0.3326
     13  C3'      -16.1810   -3.6990    2.2140 C.3   1500  GDP1500     0.2158
     14  O3'      -16.7340   -3.7290    0.9040 O.3   1500  GDP1500    -0.2175
     15  C2'      -15.0870   -4.7430    2.4100 C.3   1500  GDP1500     0.2310
     16  O2'      -14.3920   -5.0730    1.2290 O.3   1500  GDP1500    -0.2158
     17  C1'      -14.1490   -4.0460    3.3940 C.3   1500  GDP1500     0.2293
     18  N9       -14.2380   -4.4440    4.7930 N.pl3 1500  GDP1500    -0.2354
     19  C8       -15.2120   -4.0950    5.6960 C.3   1500  GDP1500     0.2246
     20  N7       -14.9430   -4.4830    6.9130 N.2   1500  GDP1500    -0.2322
     21  C5       -13.7320   -5.1500    6.7990 C.2   1500  GDP1500     0.2182
     22  C6       -12.9160   -5.7580    7.7910 C.1   1500  GDP1500     0.2372
     23  O6       -13.0920   -5.8040    9.0140 O.2   1500  GDP1500    -0.2069
     24  N1       -11.7860   -6.3420    7.2320 N.2   1500  GDP1500    -0.2485
     25  C2       -11.4760   -6.3390    5.9000 C.1   1500  GDP1500     0.2531
     26  N2       -10.3620   -6.9750    5.5630 N.pl3 1500  GDP1500    -0.0226
     27  N3       -12.2070   -5.7560    4.9690 N.2   1500  GDP1500    -0.3074
     28  C4       -13.3110   -5.1790    5.4870 C.2   1500  GDP1500     0.2300
@<TRIPOS>BOND
     1    14    13    1
     2    16    15    1
     3    13    15    1
     4    13    11    1
     5    15    17    1
     6    11    10    1
     7    11    12    1
     8    10     9    1
     9    12    17    1
    10    17    18    1
    11     9     6    1
    12     5     6    1
    13     5     1    1
    14    18    28    1
    15    18    19    1
    16     4     1    2
    17    27    28    2
    18    27    25    2
    19     6     7    2
    20     6     8    1
    21     2     1    1
    22     1     3    1
    23    28    21    1
    24    26    25    1
    25    19    20    1
    26    25    24    2
    27    21    20    2
    28    21    22    1
    29    24    22    2
    30    22    23    2
