@<TRIPOS>MOLECULE
1tvk_EP_B_1.pdb
 34 36 0 0 0
SMALL
GASTEIGER

@<TRIPOS>ATOM
      1  C13       -6.8610  -16.7700   15.2960 C.3   1001  EP1001      0.1230
      2  S1        -8.0690  -15.4500   15.1610 S.3   1001  EP1001     -0.0791
      3  C15       -6.7040  -14.3380   15.3750 C.2   1001  EP1001      0.1348
      4  C16       -6.8650  -12.8510   15.3900 C.3   1001  EP1001      0.0735
      5  N20       -5.5860  -14.9100   15.4830 N.2   1001  EP1001     -0.4035
      6  C12       -5.5990  -16.3490   15.4770 C.2   1001  EP1001      0.1200
      7  C10       -4.4010  -17.1780   15.6640 C.2   1001  EP1001      0.0234
      8  C5        -4.3250  -18.1720   16.5570 C.2   1001  EP1001     -0.0023
      9  C6        -5.4570  -18.4890   17.5140 C.3   1001  EP1001      0.0301
     10  C3        -3.0960  -19.0560   16.6850 C.3   1001  EP1001      0.1898
     11  C21       -2.0800  -18.4850   17.7080 C.3   1001  EP1001      0.0800
     12  C24       -1.5290  -17.1050   17.2700 C.3   1001  EP1001      0.1461
     13  O26       -0.6910  -17.2160   16.1550 O.3   1001  EP1001     -0.3536
     14  C27        0.0320  -16.7660   17.2690 C.3   1001  EP1001      0.1423
     15  C32        1.0640  -17.7890   17.8140 C.3   1001  EP1001      0.0321
     16  C35        1.5360  -18.8500   16.7720 C.3   1001  EP1001      0.0027
     17  C38        2.3940  -18.2330   15.6270 C.3   1001  EP1001      0.0026
     18  C41        3.0810  -19.2910   14.6970 C.3   1001  EP1001      0.0309
     19  C43        4.3320  -18.6800   14.0080 C.3   1001  EP1001      0.0026
     20  C47        2.1300  -20.0080   13.6740 C.3   1001  EP1001      0.1587
     21  O49        2.7690  -21.1780   13.1260 O.3   1001  EP1001     -0.2227
     22  C51        1.5980  -19.1590   12.4680 C.3   1001  EP1001      0.0880
     23  C53        2.5000  -19.2020   11.1990 C.3   1001  EP1001      0.0104
     24  C57        0.2560  -19.7380   12.0470 C.2   1001  EP1001      0.1543
     25  O58        0.1940  -20.9340   11.8130 O.2   1001  EP1001     -0.2959
     26  C59       -0.9900  -18.8620   11.9470 C.3   1001  EP1001      0.0802
     27  C64       -1.0600  -17.7730   13.0530 C.3   1001  EP1001      0.0099
     28  C60       -0.9790  -18.1620   10.5560 C.3   1001  EP1001      0.0099
     29  C68       -2.2620  -19.7720   12.0570 C.3   1001  EP1001      0.1694
     30  O70       -2.2650  -20.6490   10.9130 O.3   1001  EP1001     -0.2221
     31  C72       -2.3520  -20.5880   13.3870 C.3   1001  EP1001      0.1427
     32  C75       -3.1240  -19.9320   14.5080 C.2   1001  EP1001      0.3198
     33  O2        -2.3910  -19.3210   15.4520 O.3   1001  EP1001     -0.4479
     34  O76       -4.3430  -20.0010   14.5460 O.2   1001  EP1001     -0.2500
@<TRIPOS>BOND
     1    28    26    1
     2    30    29    1
     3    23    22    1
     4    25    24    2
     5    26    24    1
     6    26    29    1
     7    26    27    1
     8    24    22    1
     9    29    31    1
    10    22    20    1
    11    21    20    1
    12    31    32    1
    13    20    18    1
    14    19    18    1
    15    32    34    2
    16    32    33    1
    17    18    17    1
    18     2     1    1
    19     2     3    1
    20     1     6    1
    21     3     4    1
    22     3     5    2
    23    33    10    1
    24     6     5    2
    25     6     7    1
    26    17    16    1
    27     7     8    2
    28    13    14    1
    29    13    12    1
    30     8    10    1
    31     8     9    1
    32    10    11    1
    33    16    15    1
    34    14    12    1
    35    14    15    1
    36    12    11    1
