@<TRIPOS>MOLECULE
1tvk_GTP_A_1.pdb
 32 34 0 0 0
SMALL
GASTEIGER

@<TRIPOS>ATOM
      1  PG        22.2250    3.6720    5.5760 P.3   9500  GTP9500     0.5373
      2  O1G       21.1950    4.0910    4.5840 O.2   9500  GTP9500    -0.2221
      3  O2G       21.8310    2.8370    6.7440 O.3   9500  GTP9500    -0.1143
      4  O3G       22.8840    4.8900    6.0990 O.3   9500  GTP9500    -0.1143
      5  O3B       23.2790    2.9430    4.8350 O.3   9500  GTP9500    -0.2258
      6  PB        24.4710    2.3600    5.4830 P.3   9500  GTP9500     0.2277
      7  O1B       23.9520    1.6240    6.6680 O.3   9500  GTP9500    -0.4368
      8  O2B       25.4310    3.4740    5.6790 O.2   9500  GTP9500    -0.5168
      9  O3A       25.0800    1.3440    4.5680 O.3   9500  GTP9500    -0.2700
     10  PA        25.0910   -0.1430    4.6370 P.3   9500  GTP9500     0.2189
     11  O1A       23.8960   -0.5880    3.8820 O.2   9500  GTP9500    -0.5170
     12  O2A       25.2340   -0.5210    6.0670 O.3   9500  GTP9500    -0.4371
     13  O5'       26.3810   -0.7160    3.8960 O.3   9500  GTP9500    -0.3112
     14  C5'       26.3880   -0.9640    2.4890 C.3   9500  GTP9500     0.1813
     15  C4'       26.2380   -2.4510    2.2000 C.3   9500  GTP9500     0.1799
     16  O4'       27.2740   -3.2070    2.8850 O.3   9500  GTP9500    -0.3326
     17  C3'       24.9510   -3.1130    2.6660 C.3   9500  GTP9500     0.2158
     18  O3'       23.9040   -2.8930    1.7310 O.3   9500  GTP9500    -0.2175
     19  C2'       25.3390   -4.5830    2.6970 C.3   9500  GTP9500     0.2310
     20  O2'       25.2740   -5.1740    1.4140 O.3   9500  GTP9500    -0.2158
     21  C1'       26.7880   -4.5040    3.2000 C.3   9500  GTP9500     0.2293
     22  N9        26.9430   -4.7200    4.6400 N.pl3 9500  GTP9500    -0.2354
     23  C8        26.1060   -4.2760    5.6340 C.3   9500  GTP9500     0.2246
     24  N7        26.5060   -4.6120    6.8290 N.2   9500  GTP9500    -0.2322
     25  C5        27.6780   -5.3200    6.6160 C.2   9500  GTP9500     0.2182
     26  C6        28.5660   -5.9090    7.5380 C.1   9500  GTP9500     0.2372
     27  O6        28.4970   -5.9250    8.7660 O.2   9500  GTP9500    -0.2069
     28  N1        29.6330   -6.5240    6.8990 N.2   9500  GTP9500    -0.2485
     29  C2        29.8230   -6.5620    5.5480 C.1   9500  GTP9500     0.2531
     30  N2        30.9150   -7.2040    5.1320 N.pl3 9500  GTP9500    -0.0226
     31  N3        29.0040   -6.0080    4.6700 N.2   9500  GTP9500    -0.3074
     32  C4        27.9590   -5.4050    5.2700 C.2   9500  GTP9500     0.2300
@<TRIPOS>BOND
     1    20    19    1
     2    18    17    1
     3    15    14    1
     4    15    17    1
     5    15    16    1
     6    14    13    1
     7    17    19    1
     8    19    21    1
     9    16    21    1
    10    21    22    1
    11    11    10    2
    12    13    10    1
    13     9    10    1
    14     9     6    1
    15     2     1    2
    16    10    12    1
    17    22    32    1
    18    22    23    1
    19    31    32    2
    20    31    29    2
    21     5     6    1
    22     5     1    1
    23    30    29    1
    24    32    25    1
    25     6     8    2
    26     6     7    1
    27    29    28    2
    28     1     4    1
    29     1     3    1
    30    23    24    1
    31    25    24    2
    32    25    26    1
    33    28    26    2
    34    26    27    2
