@<TRIPOS>MOLECULE
1tvo_FRZ_A_1.pdb
 25 29 0 0 0
SMALL
GASTEIGER

@<TRIPOS>ATOM
      1  C1        11.5040   -5.7240   14.4460 C.2   1001  FRZ1001    -0.0027
      2  C2        11.1560   -5.2580   15.7780 C.3   1001  FRZ1001     0.1420
      3  N3         9.8050   -4.9890   16.0940 N.pl3 1001  FRZ1001    -0.2106
      4  C4         8.7110   -5.1280   15.2100 C.2   1001  FRZ1001     0.0581
      5  C5         9.0180   -5.5610   13.8530 C.2   1001  FRZ1001     0.0124
      6  C6        10.4020   -5.8570   13.4960 C.2   1001  FRZ1001    -0.0018
      7  N7         9.3480   -4.5910   17.4250 N.2   1001  FRZ1001    -0.1816
      8  C8         7.9410   -4.5200   17.3180 C.2   1001  FRZ1001     0.0871
      9  C9         7.5010   -4.8360   15.9620 C.3   1001  FRZ1001     0.1210
     10  C10        6.1390   -4.8200   15.4290 C.2   1001  FRZ1001     0.0929
     11  C11        7.2430   -4.1580   18.5460 C.ar  1001  FRZ1001     0.0158
     12  C12        7.8090   -3.1670   19.4580 C.ar  1001  FRZ1001     0.0012
     13  C13        7.0640   -2.6020   20.5780 C.ar  1001  FRZ1001     0.0000
     14  C14        5.6990   -3.0090   20.8540 C.ar  1001  FRZ1001     0.0000
     15  C15        5.1220   -4.0260   19.9930 C.ar  1001  FRZ1001     0.0000
     16  C16        5.8900   -4.5790   18.8870 C.ar  1001  FRZ1001     0.0012
     17  C22        5.2240   -3.6860   15.6090 C.2   1001  FRZ1001     0.0353
     18  C23        3.7830   -3.7150   15.4050 C.2   1001  FRZ1001     0.1616
     19  C24        3.0980   -4.9090   14.9750 C.1   1001  FRZ1001     0.1091
     20  N25        3.9300   -6.0350   14.7410 N.2   1001  FRZ1001    -0.0901
     21  N26        5.5090   -6.0060   14.9660 N.2   1001  FRZ1001    -0.1427
     22  C27        2.7430   -2.7440   15.6320 C.2   1001  FRZ1001     0.4505
     23  N28        1.4710   -3.2920   15.3700 N.2   1001  FRZ1001     0.0987
     24  N29        1.7120   -4.6510   14.9570 N.2   1001  FRZ1001     0.0231
     25  N30        2.9010   -1.4330   16.1170 N.pl3 1001  FRZ1001     0.2195
@<TRIPOS>BOND
     1     6     5    1
     2     6     1    2
     3     5     4    2
     4     1     2    1
     5    20    21    1
     6    20    19    2
     7    24    19    2
     8    24    23    1
     9    21    10    2
    10    19    18    1
    11     4     9    1
    12     4     3    1
    13    23    22    2
    14    18    17    2
    15    18    22    1
    16    10    17    1
    17    10     9    1
    18    22    25    1
    19     2     3    1
    20     9     8    1
    21     3     7    1
    22     8     7    2
    23     8    11    1
    24    11    16   ar
    25    11    12   ar
    26    16    15   ar
    27    12    13   ar
    28    15    14   ar
    29    13    14   ar
