@<TRIPOS>MOLECULE
1tvp_CBI_B_1.pdb
 23 24 0 0 0
SMALL
GASTEIGER

@<TRIPOS>ATOM
      1  C1        25.4790   55.9330   48.7390 C.3   699  CBI699      0.2695
      2  C2        24.4370   56.2700   49.7860 C.3   699  CBI699      0.2406
      3  C3        24.9630   55.8490   51.1450 C.3   699  CBI699      0.2198
      4  C4        25.2300   54.3310   51.0790 C.3   699  CBI699      0.2144
      5  C5        26.2440   54.0510   49.9920 C.3   699  CBI699      0.1835
      6  C6        26.4790   52.5550   49.9190 C.3   699  CBI699      0.2142
      7  O2        24.3040   57.6870   49.7170 O.3   699  CBI699     -0.2149
      8  O3        24.0030   56.0830   52.1560 O.3   699  CBI699     -0.2174
      9  O4        25.7510   53.9000   52.3600 O.3   699  CBI699     -0.2176
     10  O5        25.7150   54.5000   48.6970 O.3   699  CBI699     -0.3256
     11  O6        25.3090   51.8420   49.6150 O.3   699  CBI699     -0.2176
     12  C1'       26.5700   56.8830   43.7040 C.3   699  CBI699      0.3023
     13  C2'       26.1210   55.4470   44.0120 C.3   699  CBI699      0.2433
     14  C3'       25.0990   55.5340   45.1680 C.3   699  CBI699      0.2168
     15  C4'       25.8690   56.1540   46.3320 C.3   699  CBI699      0.1804
     16  C5'       26.3680   57.5230   46.0170 C.3   699  CBI699      0.1804
     17  C6'       27.1480   58.1710   47.1240 C.3   699  CBI699      0.2141
     18  O1'       27.4670   56.8130   42.6570 O.3   699  CBI699     -0.1869
     19  O2'       25.4590   54.9120   42.8570 O.3   699  CBI699     -0.2148
     20  O3'       24.7180   54.2140   45.4600 O.3   699  CBI699     -0.2175
     21  O4'       25.0000   56.2970   47.4750 O.3   699  CBI699     -0.3257
     22  O5'       27.2480   57.4470   44.8560 O.3   699  CBI699     -0.3237
     23  O6'       27.3370   59.5390   46.8700 O.3   699  CBI699     -0.2176
@<TRIPOS>BOND
     1    18    12    1
     2    19    13    1
     3    12    13    1
     4    12    22    1
     5    13    14    1
     6    22    16    1
     7    14    20    1
     8    14    15    1
     9    16    15    1
    10    16    17    1
    11    15    21    1
    12    23    17    1
    13    21     1    1
    14    10     1    1
    15    10     5    1
    16     1     2    1
    17    11     6    1
    18     7     2    1
    19     2     3    1
    20     6     5    1
    21     5     4    1
    22     4     3    1
    23     4     9    1
    24     3     8    1
