@<TRIPOS>MOLECULE
1tvr_TB9_A_1.pdb
 21 23 0 0 0
SMALL
GASTEIGER

@<TRIPOS>ATOM
      1  N1       141.5670  -25.8320   71.0180 N.2   600  TB9600     -0.3459
      2  C1A      142.1760  -26.1780   72.2290 C.2   600  TB9600      0.1572
      3  C2       142.3710  -24.8230   70.3680 C.1   600  TB9600      0.0992
      4  S2       141.9880  -24.1100   68.7930 S.2   600  TB9600      0.0401
      5  N3       143.5290  -24.5470   71.2420 N.am  600  TB9600     -0.2283
      6  C3A      143.3280  -25.4150   72.3500 C.2   600  TB9600      0.0847
      7  C4       144.6870  -23.7730   70.8230 C.3   600  TB9600      0.1225
      8  C5       145.3230  -22.8190   71.8420 C.3   600  TB9600      0.0790
      9  N6       145.6460  -23.2790   73.2100 N.3   600  TB9600     -0.2651
     10  C7       145.5880  -24.7070   73.5000 C.3   600  TB9600      0.0968
     11  C7A      144.2390  -25.4430   73.4600 C.2   600  TB9600     -0.0062
     12  C8       143.8930  -26.3640   74.5280 C.3   600  TB9600      0.0627
     13 CL9       142.2520  -28.4010   75.5860 Cl    600  TB9600     -0.0865
     14  C9       142.6630  -27.1740   74.3960 C.2   600  TB9600      0.0422
     15  C10      141.8300  -27.0560   73.2350 C.2   600  TB9600      0.0416
     16  C11      146.6520  -22.5360   71.1970 C.3   600  TB9600      0.0192
     17  C12      145.7910  -22.2900   74.2910 C.3   600  TB9600      0.0985
     18  C13      144.5000  -22.2350   74.9610 C.2   600  TB9600     -0.0172
     19  C14      144.1880  -21.7880   76.1850 C.2   600  TB9600     -0.0465
     20  C15      142.6440  -21.8990   76.3480 C.3   600  TB9600      0.0261
     21  C16      145.3540  -21.2580   77.0590 C.3   600  TB9600      0.0261
@<TRIPOS>BOND
     1     4     3    2
     2     3     1    2
     3     3     5    1
     4     7     5    1
     5     7     8    1
     6     1     2    2
     7    16     8    1
     8     5     6    1
     9     8     9    1
    10     2     6    1
    11     2    15    1
    12     6    11    2
    13     9    10    1
    14     9    17    1
    15    15    14    2
    16    11    10    1
    17    11    12    1
    18    17    18    1
    19    14    12    1
    20    14    13    1
    21    18    19    2
    22    19    20    1
    23    19    21    1
