@<TRIPOS>MOLECULE
1tvu_UMP_A_1.pdb
 20 21 0 0 0
SMALL
GASTEIGER

@<TRIPOS>ATOM
      1  N1        14.6900   46.8030  -51.9200 N.am  317  UMP317     -0.1790
      2  C2        14.5790   45.4560  -51.5570 C.1   317  UMP317      0.2844
      3  N3        13.6450   45.1040  -50.5790 N.2   317  UMP317     -0.2452
      4  C4        12.8140   45.9950  -49.9160 C.1   317  UMP317      0.2182
      5  C5        13.0080   47.4110  -50.3590 C.2   317  UMP317      0.1242
      6  C6        13.9500   47.7700  -51.3530 C.2   317  UMP317      0.0928
      7  O2        15.3140   44.5990  -52.0420 O.2   317  UMP317     -0.1918
      8  O4        12.0330   45.5420  -49.0700 O.2   317  UMP317     -0.2085
      9  C1'       15.6730   46.9620  -53.0520 C.3   317  UMP317      0.2090
     10  C2'       15.1090   46.4670  -54.3820 C.3   317  UMP317      0.0874
     11  C3'       16.3440   46.5200  -55.2660 C.3   317  UMP317      0.1857
     12  C4'       17.0290   47.8400  -54.9470 C.3   317  UMP317      0.1774
     13  O3'       17.2610   45.4660  -54.8820 O.3   317  UMP317     -0.2203
     14  O4'       16.5010   48.1180  -53.5510 O.3   317  UMP317     -0.3339
     15  C5'       16.5260   48.9290  -55.8840 C.3   317  UMP317      0.1858
     16  O5'       16.8390   48.6590  -57.3020 O.3   317  UMP317     -0.2675
     17  P         15.6670   49.2230  -58.2530 P.3   317  UMP317      0.5327
     18  OP1       16.2090   49.0660  -59.6550 O.2   317  UMP317     -0.2224
     19  OP2       14.4470   48.4130  -58.1650 O.3   317  UMP317     -0.1145
     20  OP3       15.2980   50.6170  -57.9410 O.3   317  UMP317     -0.1145
@<TRIPOS>BOND
     1    18    17    2
     2    17    19    1
     3    17    20    1
     4    17    16    1
     5    16    15    1
     6    15    12    1
     7    11    12    1
     8    11    13    1
     9    11    10    1
    10    12    14    1
    11    10     9    1
    12    14     9    1
    13     9     1    1
    14     7     2    2
    15     1     2   am
    16     1     6    1
    17     2     3    2
    18     6     5    2
    19     3     4    2
    20     5     4    1
    21     4     8    2
