@<TRIPOS>MOLECULE
1tvu_CB3_A_1.pdb
 35 37 0 0 0
SMALL
GASTEIGER

@<TRIPOS>ATOM
      1  N1        18.9450   47.9160  -51.8880 N.2   318  CB3318     -0.3286
      2  C2        19.4860   46.7040  -52.1900 C.1   318  CB3318      0.2515
      3  NA2       20.4950   46.6060  -53.0600 N.pl3 318  CB3318     -0.0226
      4  N3        19.0490   45.5890  -51.5730 N.2   318  CB3318     -0.2501
      5  C4        18.1970   45.6760  -50.5230 C.1   318  CB3318      0.2179
      6  O4        17.9090   44.5390  -49.7780 O.2   318  CB3318     -0.2085
      7  C4A       17.6410   46.9180  -50.1510 C.2   318  CB3318      0.1217
      8  C5        16.7170   47.0530  -49.0820 C.2   318  CB3318      0.0121
      9  C6        16.1690   48.3170  -48.7410 C.2   318  CB3318     -0.0054
     10  C7        16.5450   49.4490  -49.5010 C.2   318  CB3318     -0.0212
     11  C8        17.4750   49.3180  -50.5630 C.3   318  CB3318      0.0865
     12  C8A       18.0360   48.0590  -50.8930 C.2   318  CB3318      0.1389
     13  C9        15.3630   48.5350  -47.4970 C.3   318  CB3318      0.1182
     14  N10       15.2720   47.4340  -46.4920 N.pl3 318  CB3318     -0.2924
     15  C11       18.8020   46.3760  -44.4540 C.ar  318  CB3318      0.0551
     16  C12       17.8810   45.3600  -44.7970 C.ar  318  CB3318      0.0058
     17  C13       16.6720   45.7170  -45.4460 C.ar  318  CB3318      0.0147
     18  C14       16.3670   47.0750  -45.7650 C.ar  318  CB3318      0.0488
     19  C15       17.2740   48.0740  -45.3750 C.ar  318  CB3318      0.0147
     20  C16       18.4700   47.7230  -44.7330 C.ar  318  CB3318      0.0058
     21  C         20.1070   46.1020  -43.8510 C.2   318  CB3318      0.2652
     22  O         20.9160   47.0000  -43.5910 O.2   318  CB3318     -0.2684
     23  N         20.3840   44.8240  -43.5710 N.am  318  CB3318     -0.1918
     24  CA        21.1390   44.3750  -42.3740 C.3   318  CB3318      0.1986
     25  CB        21.0210   42.8600  -42.3100 C.3   318  CB3318      0.0451
     26  CG        19.6260   42.3920  -42.0340 C.3   318  CB3318      0.1164
     27  CD        19.4610   40.9170  -42.2830 C.2   318  CB3318      0.3649
     28  OE1       19.3460   40.5270  -43.4650 O.co2 318  CB3318     -0.2457
     29  OE2       19.4480   40.1460  -41.3010 O.co2 318  CB3318     -0.2457
     30  CT        22.5850   44.7970  -42.1340 C.2   318  CB3318      0.3842
     31  O1        23.4850   44.2390  -42.8040 O.co2 318  CB3318     -0.2437
     32  O2        22.8010   45.6650  -41.2580 O.co2 318  CB3318     -0.2437
     33  CP1       13.9920   46.7040  -46.3750 C.3   318  CB3318      0.1697
     34  CP2       13.0800   47.1610  -45.3230 C.1   318  CB3318     -0.0557
     35  CP3       12.1160   47.3810  -44.6440 C.1   318  CB3318     -0.0124
@<TRIPOS>BOND
     1     3     2    1
     2     2     1    2
     3     2     4    2
     4     1    12    2
     5     4     5    2
     6    12    11    1
     7    12     7    1
     8    11    10    1
     9     5     7    1
    10     5     6    2
    11     7     8    2
    12    10     9    2
    13     8     9    1
    14     9    13    1
    15    13    14    1
    16    14    33    1
    17    14    18    1
    18    33    34    1
    19    18    17   ar
    20    18    19   ar
    21    17    16   ar
    22    19    20   ar
    23    34    35    3
    24    16    15   ar
    25    20    15   ar
    26    15    21    1
    27    21    22    2
    28    21    23   am
    29    23    24    1
    30    28    27   ar
    31    31    30   ar
    32    24    25    1
    33    24    30    1
    34    25    26    1
    35    27    26    1
    36    27    29   ar
    37    30    32   ar
