@<TRIPOS>MOLECULE
1tvv_CB3_A_1.pdb
 35 37 0 0 0
SMALL
GASTEIGER

@<TRIPOS>ATOM
      1  N1        19.4530   47.5580  -52.4510 N.2   318  CB3318     -0.3286
      2  C2        19.3090   46.2030  -52.5050 C.1   318  CB3318      0.2515
      3  NA2       19.8470   45.4490  -53.4410 N.pl3 318  CB3318     -0.0226
      4  N3        18.5660   45.5450  -51.5900 N.2   318  CB3318     -0.2501
      5  C4        17.9410   46.1980  -50.5870 C.1   318  CB3318      0.2179
      6  O4        17.2930   45.4600  -49.6020 O.2   318  CB3318     -0.2085
      7  C4A       17.9790   47.6040  -50.5620 C.2   318  CB3318      0.1217
      8  C5        17.2470   48.3190  -49.6230 C.2   318  CB3318      0.0121
      9  C6        17.2640   49.7200  -49.5840 C.2   318  CB3318     -0.0054
     10  C7        18.0430   50.4100  -50.5390 C.2   318  CB3318     -0.0212
     11  C8        18.8010   49.7070  -51.5050 C.3   318  CB3318      0.0865
     12  C8A       18.7700   48.2900  -51.5230 C.2   318  CB3318      0.1389
     13  C9        16.6980   50.4080  -48.3990 C.3   318  CB3318      0.1182
     14  N10       16.5490   49.4580  -47.2600 N.pl3 318  CB3318     -0.2924
     15  C11       19.9960   48.2240  -45.1630 C.ar  318  CB3318      0.0551
     16  C12       18.8070   47.4510  -45.0940 C.ar  318  CB3318      0.0058
     17  C13       17.6630   47.8630  -45.7960 C.ar  318  CB3318      0.0147
     18  C14       17.6730   49.0460  -46.5810 C.ar  318  CB3318      0.0488
     19  C15       18.8890   49.7870  -46.6670 C.ar  318  CB3318      0.0147
     20  C16       20.0430   49.3840  -45.9710 C.ar  318  CB3318      0.0058
     21  C         21.1380   47.9100  -44.3290 C.2   318  CB3318      0.2652
     22  O         22.1180   48.6500  -44.2180 O.2   318  CB3318     -0.2684
     23  N         21.1040   46.7680  -43.6630 N.am  318  CB3318     -0.1918
     24  CA        21.5830   45.5350  -44.2960 C.3   318  CB3318      0.1986
     25  CB        23.1120   45.4480  -44.2620 C.3   318  CB3318      0.0451
     26  CG        23.7370   45.7430  -42.9080 C.3   318  CB3318      0.1164
     27  CD        25.2500   45.6680  -42.9440 C.2   318  CB3318      0.3649
     28  OE1       25.8690   46.3930  -43.7590 O.co2 318  CB3318     -0.2457
     29  OE2       25.8200   44.8710  -42.1670 O.co2 318  CB3318     -0.2457
     30  CT        20.9530   44.3180  -43.6270 C.2   318  CB3318      0.3842
     31  O1        20.0150   44.5170  -42.8210 O.co2 318  CB3318     -0.2437
     32  O2        21.3930   43.1870  -43.9280 O.co2 318  CB3318     -0.2437
     33  CP1       15.2040   48.8920  -46.9850 C.3   318  CB3318      0.1697
     34  CP2       15.2130   47.8090  -45.9900 C.1   318  CB3318     -0.0557
     35  CP3       15.2230   46.9290  -45.1720 C.1   318  CB3318     -0.0124
@<TRIPOS>BOND
     1     3     2    1
     2     2     1    2
     3     2     4    2
     4     1    12    2
     5     4     5    2
     6    12    11    1
     7    12     7    1
     8    11    10    1
     9     5     7    1
    10     5     6    2
    11     7     8    2
    12    10     9    2
    13     8     9    1
    14     9    13    1
    15    13    14    1
    16    14    33    1
    17    14    18    1
    18    33    34    1
    19    19    18   ar
    20    19    20   ar
    21    18    17   ar
    22    34    35    3
    23    20    15   ar
    24    17    16   ar
    25    15    16   ar
    26    15    21    1
    27    21    22    2
    28    21    23   am
    29    24    25    1
    30    24    23    1
    31    24    30    1
    32    25    26    1
    33    32    30   ar
    34    28    27   ar
    35    30    31   ar
    36    27    26    1
    37    27    29   ar
