@<TRIPOS>MOLECULE
1tvv_UMP_A_1.pdb
 20 21 0 0 0
SMALL
GASTEIGER

@<TRIPOS>ATOM
      1  N1        14.9010   46.7600  -52.1550 N.am  317  UMP317     -0.1790
      2  C2        14.5560   45.4240  -51.9570 C.1   317  UMP317      0.2844
      3  N3        13.6650   45.0770  -50.9910 N.2   317  UMP317     -0.2452
      4  C4        13.0540   45.9730  -50.1650 C.1   317  UMP317      0.2182
      5  C5        13.4530   47.3970  -50.3640 C.2   317  UMP317      0.1242
      6  C6        14.3890   47.7410  -51.3810 C.2   317  UMP317      0.0928
      7  O2        15.0420   44.5170  -52.6060 O.2   317  UMP317     -0.1918
      8  O4        12.2000   45.4850  -49.4180 O.2   317  UMP317     -0.2085
      9  C1'       15.8060   46.9390  -53.3710 C.3   317  UMP317      0.2090
     10  C2'       15.1520   46.6980  -54.7400 C.3   317  UMP317      0.0874
     11  C3'       16.3310   46.8310  -55.6940 C.3   317  UMP317      0.1857
     12  C4'       17.1140   48.0590  -55.2200 C.3   317  UMP317      0.1774
     13  O3'       17.1940   45.6630  -55.5530 O.3   317  UMP317     -0.2203
     14  O4'       16.6860   48.1070  -53.7630 O.3   317  UMP317     -0.3339
     15  C5'       16.5880   49.3210  -55.8860 C.3   317  UMP317      0.1858
     16  O5'       16.9350   49.2520  -57.2820 O.3   317  UMP317     -0.2675
     17  P         15.8320   49.5430  -58.3770 P.3   317  UMP317      0.5327
     18  OP1       16.5070   49.6110  -59.6750 O.2   317  UMP317     -0.2224
     19  OP2       14.8600   48.4490  -58.3360 O.3   317  UMP317     -0.1145
     20  OP3       15.2010   50.8320  -58.0520 O.3   317  UMP317     -0.1145
@<TRIPOS>BOND
     1    18    17    2
     2    17    19    1
     3    17    20    1
     4    17    16    1
     5    16    15    1
     6    15    12    1
     7    11    13    1
     8    11    12    1
     9    11    10    1
    10    12    14    1
    11    10     9    1
    12    14     9    1
    13     9     1    1
    14     7     2    2
    15     1     2   am
    16     1     6    1
    17     2     3    2
    18     6     5    2
    19     3     4    2
    20     5     4    1
    21     4     8    2
