@<TRIPOS>MOLECULE
1tvw_CB3_A_1.pdb
 35 37 0 0 0
SMALL
GASTEIGER

@<TRIPOS>ATOM
      1  N1        19.0530   48.0100  -52.5590 N.2   318  CB3318     -0.3245
      2  C2        19.3620   46.7790  -52.9880 C.1   318  CB3318      0.2518
      3  NA2       19.7890   46.5940  -54.2440 N.pl3 318  CB3318     -0.0226
      4  N3        19.1530   45.7080  -52.2140 N.2   318  CB3318     -0.2501
      5  C4        18.7190   45.8190  -50.9550 C.1   318  CB3318      0.2180
      6  O4        18.6650   44.7110  -50.1330 O.2   318  CB3318     -0.2085
      7  C4A       18.4120   47.0740  -50.4500 C.2   318  CB3318      0.1220
      8  C5        18.0360   47.2570  -49.1060 C.2   318  CB3318     -0.0051
      9  C6        17.8470   48.5770  -48.6360 C.3   318  CB3318      0.0646
     10  C7        17.9780   49.6560  -49.5390 C.2   318  CB3318     -0.0177
     11  C8        18.3470   49.4800  -50.8820 C.2   318  CB3318      0.0296
     12  C8A       18.5890   48.1840  -51.3280 C.2   318  CB3318      0.1564
     13  C9        17.8130   48.9440  -47.1870 C.3   318  CB3318      0.1004
     14  N10       17.4190   47.9080  -45.9830 N.pl3 318  CB3318     -0.2959
     15  C11       20.2160   45.2250  -44.1190 C.ar  318  CB3318      0.0551
     16  C12       18.9140   44.7820  -44.4850 C.ar  318  CB3318      0.0058
     17  C13       17.9770   45.6520  -45.0940 C.ar  318  CB3318      0.0147
     18  C14       18.2930   47.0100  -45.3810 C.ar  318  CB3318      0.0486
     19  C15       19.5950   47.4310  -45.0480 C.ar  318  CB3318      0.0147
     20  C16       20.5250   46.5620  -44.4450 C.ar  318  CB3318      0.0058
     21  C         21.1600   44.5440  -43.1670 C.2   318  CB3318      0.2652
     22  O         21.5150   45.1270  -42.1320 O.2   318  CB3318     -0.2684
     23  N         21.7490   43.3410  -43.3330 N.am  318  CB3318     -0.1918
     24  CA        21.0980   42.1110  -43.8530 C.3   318  CB3318      0.1986
     25  CB        21.8290   41.2100  -44.8590 C.3   318  CB3318      0.0451
     26  CG        23.3070   41.4000  -44.8990 C.3   318  CB3318      0.1164
     27  CD        23.7340   42.0900  -46.1800 C.2   318  CB3318      0.3649
     28  OE1       24.5530   43.0240  -46.1050 O.co2 318  CB3318     -0.2457
     29  OE2       23.3090   41.6490  -47.2920 O.co2 318  CB3318     -0.2457
     30  CT        20.3390   41.2470  -42.8660 C.2   318  CB3318      0.3842
     31  O1        20.1450   40.0560  -43.1770 O.co2 318  CB3318     -0.2437
     32  O2        19.9280   41.7540  -41.8060 O.co2 318  CB3318     -0.2437
     33  CP1       15.9750   47.9160  -45.7180 C.3   318  CB3318      0.1695
     34  CP2       15.5020   46.5880  -46.0010 C.1   318  CB3318     -0.0557
     35  CP3       15.1790   45.4440  -46.1180 C.1   318  CB3318     -0.0124
@<TRIPOS>BOND
     1     3     2    1
     2     2     1    2
     3     2     4    2
     4     1    12    2
     5     4     5    2
     6    12    11    1
     7    12     7    1
     8     5     7    1
     9     5     6    2
    10    11    10    2
    11     7     8    2
    12    10     9    1
    13     8     9    1
    14     9    13    1
    15    29    27   ar
    16    13    14    1
    17    27    28   ar
    18    27    26    1
    19    35    34    3
    20    34    33    1
    21    14    33    1
    22    14    18    1
    23    18    17   ar
    24    18    19   ar
    25    17    16   ar
    26    19    20   ar
    27    26    25    1
    28    25    24    1
    29    16    15   ar
    30    20    15   ar
    31    15    21    1
    32    24    23    1
    33    24    30    1
    34    23    21   am
    35    31    30   ar
    36    21    22    2
    37    30    32   ar
