@<TRIPOS>MOLECULE
1tvw_UMP_A_1.pdb
 20 21 0 0 0
SMALL
GASTEIGER

@<TRIPOS>ATOM
      1  N1        15.3570   46.8100  -52.3730 N.am  317  UMP317     -0.1790
      2  C2        14.5420   45.9540  -51.6490 C.1   317  UMP317      0.2844
      3  N3        13.8880   46.5240  -50.5890 N.2   317  UMP317     -0.2452
      4  C4        13.9610   47.8660  -50.2210 C.1   317  UMP317      0.2182
      5  C5        14.8500   48.6850  -51.0360 C.2   317  UMP317      0.1242
      6  C6        15.5220   48.0940  -52.1030 C.2   317  UMP317      0.0928
      7  O2        14.3710   44.7590  -51.8940 O.2   317  UMP317     -0.1918
      8  O4        13.2380   48.2620  -49.2990 O.2   317  UMP317     -0.2085
      9  C1'       16.0360   46.3100  -53.5520 C.3   317  UMP317      0.2090
     10  C2'       15.2580   46.2500  -54.8610 C.3   317  UMP317      0.0874
     11  C3'       16.3700   46.0360  -55.8690 C.3   317  UMP317      0.1857
     12  C4'       17.4620   47.0420  -55.4900 C.3   317  UMP317      0.1774
     13  O3'       16.7520   44.6400  -55.6460 O.3   317  UMP317     -0.2203
     14  O4'       17.1850   47.1220  -54.0330 O.3   317  UMP317     -0.3339
     15  C5'       17.1630   48.4550  -56.0460 C.3   317  UMP317      0.1858
     16  O5'       17.1380   48.6340  -57.4980 O.3   317  UMP317     -0.2675
     17  P         15.7640   49.1100  -58.1070 P.3   317  UMP317      0.5327
     18  OP1       15.8980   49.3030  -59.5890 O.2   317  UMP317     -0.2224
     19  OP2       14.7420   48.0420  -57.8980 O.3   317  UMP317     -0.1145
     20  OP3       15.2780   50.3350  -57.4490 O.3   317  UMP317     -0.1145
@<TRIPOS>BOND
     1    18    17    2
     2    17    19    1
     3    17    16    1
     4    17    20    1
     5    16    15    1
     6    15    12    1
     7    11    13    1
     8    11    12    1
     9    11    10    1
    10    12    14    1
    11    10     9    1
    12    14     9    1
    13     9     1    1
    14     1     6    1
    15     1     2   am
    16     6     5    2
    17     7     2    2
    18     2     3    2
    19     5     4    1
    20     3     4    2
    21     4     8    2
