@<TRIPOS>MOLECULE
1tvy_GDU_A_1.pdb
 36 38 0 0 0
SMALL
GASTEIGER

@<TRIPOS>ATOM
      1  N1        13.9900   44.4470    3.7010 N.am  404  GDU404     -0.1766
      2  C2        14.7350   45.6290    3.9710 C.1   404  GDU404      0.2845
      3  N3        16.1010   45.4600    3.9120 N.2   404  GDU404     -0.2452
      4  C4        16.7890   44.2700    3.6240 C.1   404  GDU404      0.2182
      5  C5        15.9510   43.1270    3.3600 C.2   404  GDU404      0.1242
      6  C6        14.6240   43.2290    3.4000 C.2   404  GDU404      0.0929
      7  O2        14.2710   46.7230    4.2350 O.2   404  GDU404     -0.1918
      8  O4        17.9850   44.3090    3.6250 O.2   404  GDU404     -0.2085
      9  C1D       12.5170   44.5490    3.7470 C.3   404  GDU404      0.2401
     10  C2D       11.8550   45.4450    2.7020 C.3   404  GDU404      0.2319
     11  O2D       10.6600   46.0030    3.2880 O.3   404  GDU404     -0.2157
     12  C3D       11.5810   44.4780    1.5630 C.3   404  GDU404      0.2158
     13  C4D       11.1470   43.2710    2.3960 C.3   404  GDU404      0.1799
     14  O4D       11.8260   43.3230    3.6650 O.3   404  GDU404     -0.3320
     15  O3D       10.5230   44.9670    0.7390 O.3   404  GDU404     -0.2175
     16  C5D       11.3680   41.9800    1.6180 C.3   404  GDU404      0.1813
     17  O5D       12.6930   41.7820    1.1600 O.3   404  GDU404     -0.3112
     18  PA        12.9140   41.8430   -0.4300 P.3   404  GDU404      0.2189
     19  O1A       11.9990   42.8970   -1.2120 O.2   404  GDU404     -0.5170
     20  O2A       14.2470   41.5410   -0.9110 O.3   404  GDU404     -0.4371
     21  O3A       12.0860   40.6130   -0.7080 O.3   404  GDU404     -0.2703
     22  PB        11.4020   40.0640   -1.9650 P.3   404  GDU404      0.2208
     23  O1B       11.0830   41.0550   -3.0300 O.2   404  GDU404     -0.5170
     24  O2B       11.5270   38.6320   -2.3520 O.3   404  GDU404     -0.4371
     25  O3B       10.0050   40.0650   -1.2110 O.3   404  GDU404     -0.2857
     26  C1'        9.0500   38.9630   -1.2520 C.3   404  GDU404      0.2742
     27  C2'        7.7540   39.2960   -0.4830 C.3   404  GDU404      0.2409
     28  C3'        8.0650   39.5950    0.9880 C.3   404  GDU404      0.2198
     29  C4'        8.7630   38.4380    1.6650 C.3   404  GDU404      0.2144
     30  C5'       10.0080   37.9860    0.8310 C.3   404  GDU404      0.1835
     31  C6'       10.7110   36.7140    1.3310 C.3   404  GDU404      0.2142
     32  O2'        7.0410   40.4070   -1.0740 O.3   404  GDU404     -0.2149
     33  O3'        6.9410   40.0260    1.7250 O.3   404  GDU404     -0.2174
     34  O4'        7.8220   37.3740    1.8070 O.3   404  GDU404     -0.2176
     35  O5'        9.6460   37.7830   -0.5850 O.3   404  GDU404     -0.3254
     36  O6'       10.9710   36.7790    2.7350 O.3   404  GDU404     -0.2176
@<TRIPOS>BOND
     1    23    22    2
     2    24    22    1
     3    22    25    1
     4    22    21    1
     5    26    25    1
     6    26    35    1
     7    26    27    1
     8    19    18    2
     9    32    27    1
    10    20    18    1
    11    21    18    1
    12    35    30    1
    13    27    28    1
    14    18    17    1
    15    15    12    1
    16    30    31    1
    17    30    29    1
    18    28    29    1
    19    28    33    1
    20    17    16    1
    21    31    36    1
    22    12    13    1
    23    12    10    1
    24    16    13    1
    25    29    34    1
    26    13    14    1
    27    10    11    1
    28    10     9    1
    29     5     6    2
    30     5     4    1
    31     6     1    1
    32     4     8    2
    33     4     3    2
    34    14     9    1
    35     1     9    1
    36     1     2   am
    37     3     2    2
    38     2     7    2
