@<TRIPOS>MOLECULE
1tw1_GDU_A_1.pdb
 36 38 0 0 0
SMALL
GASTEIGER

@<TRIPOS>ATOM
      1  N1        13.8090   43.6670    2.5870 N.am    2  GDU2       -0.1766
      2  C2        14.6060   44.8090    2.8000 C.1     2  GDU2        0.2845
      3  N3        15.9610   44.5730    2.7250 N.2     2  GDU2       -0.2452
      4  C4        16.5960   43.3580    2.4710 C.1     2  GDU2        0.2182
      5  C5        15.7160   42.2420    2.2690 C.2     2  GDU2        0.1242
      6  C6        14.3900   42.4040    2.3260 C.2     2  GDU2        0.0929
      7  O2        14.2100   45.9310    3.0340 O.2     2  GDU2       -0.1918
      8  O4        17.7920   43.3620    2.4480 O.2     2  GDU2       -0.2085
      9  C1D       12.3490   43.8230    2.6510 C.3     2  GDU2        0.2401
     10  C2D       11.6720   44.6440    1.5670 C.3     2  GDU2        0.2319
     11  O2D       10.5060   45.2930    2.1620 O.3     2  GDU2       -0.2157
     12  C3D       11.2980   43.5990    0.5390 C.3     2  GDU2        0.2158
     13  C4D       10.8870   42.4750    1.4700 C.3     2  GDU2        0.1799
     14  O4D       11.6230   42.6130    2.6890 O.3     2  GDU2       -0.3320
     15  O3D       10.1930   44.0580   -0.2290 O.3     2  GDU2       -0.2175
     16  C5D       11.0510   41.1200    0.7730 C.3     2  GDU2        0.1813
     17  O5D       12.3620   40.8760    0.3100 O.3     2  GDU2       -0.3112
     18  PA        12.6190   40.8860   -1.2780 P.3     2  GDU2        0.2189
     19  O1A       11.7110   41.8660   -2.1580 O.2     2  GDU2       -0.5170
     20  O2A       13.9930   40.6130   -1.7300 O.3     2  GDU2       -0.4371
     21  O3A       11.9900   39.5450   -1.6230 O.3     2  GDU2       -0.2703
     22  PB        11.0680   39.0770   -2.7550 P.3     2  GDU2        0.2208
     23  O1B       10.6780   40.1180   -3.7550 O.2     2  GDU2       -0.5170
     24  O2B       11.1170   37.6790   -3.1900 O.3     2  GDU2       -0.4371
     25  O3B        9.7620   39.0760   -1.8870 O.3     2  GDU2       -0.2857
     26  C1'        8.7500   38.0710   -2.0400 C.3     2  GDU2        0.2742
     27  C2'        7.4200   38.4630   -1.4040 C.3     2  GDU2        0.2409
     28  C3'        7.4490   38.4790    0.0960 C.3     2  GDU2        0.2198
     29  C4'        8.4490   37.6920    0.9050 C.3     2  GDU2        0.2144
     30  C5'        9.5890   37.1070    0.0410 C.3     2  GDU2        0.1835
     31  C6'       10.4260   35.9570    0.6270 C.3     2  GDU2        0.2142
     32  O2'        6.8690   39.6590   -1.9090 O.3     2  GDU2       -0.2149
     33  O3'        6.6690   39.4360    0.8150 O.3     2  GDU2       -0.2174
     34  O4'        7.6940   36.5990    1.4030 O.3     2  GDU2       -0.2176
     35  O5'        9.1790   36.8470   -1.3360 O.3     2  GDU2       -0.3254
     36  O6'       10.5940   36.0760    2.0480 O.3     2  GDU2       -0.2176
@<TRIPOS>BOND
     1    23    22    2
     2    24    22    1
     3    22    25    1
     4    22    21    1
     5    19    18    2
     6    26    25    1
     7    26    27    1
     8    26    35    1
     9    32    27    1
    10    20    18    1
    11    21    18    1
    12    27    28    1
    13    35    30    1
    14    18    17    1
    15    15    12    1
    16    30    31    1
    17    30    29    1
    18    28    33    1
    19    28    29    1
    20    17    16    1
    21    12    13    1
    22    12    10    1
    23    31    36    1
    24    16    13    1
    25    29    34    1
    26    13    14    1
    27    10    11    1
    28    10     9    1
    29     5     6    2
    30     5     4    1
    31     6     1    1
    32     8     4    2
    33     4     3    2
    34     1     9    1
    35     1     2   am
    36     9    14    1
    37     3     2    2
    38     2     7    2
