@<TRIPOS>MOLECULE
1tw2_ERT_A_1.pdb
 43 47 0 0 0
SMALL
GASTEIGER

@<TRIPOS>ATOM
      1  O11       24.2060   62.7180   14.8560 O.2   600  ERT600     -0.2909
      2  C11       23.7100   63.8540   14.9860 C.2   600  ERT600      0.1804
      3  C18       23.6010   64.6900   13.8750 C.2   600  ERT600      0.0801
      4  C17       23.0180   66.0230   14.0900 C.2   600  ERT600      0.0832
      5  C6        22.5970   66.3910   15.3590 C.2   600  ERT600      0.1937
      6  O6        22.0640   67.5890   15.5620 O.2   600  ERT600     -0.2870
      7  C5        22.8710   66.9240   12.9320 C.2   600  ERT600      0.2018
      8  O5        22.3710   68.0700   13.0810 O.2   600  ERT600     -0.2864
      9  C16       23.3460   66.4250   11.6040 C.ar  600  ERT600      0.0760
     10  C4        23.2450   67.2170   10.4680 C.ar  600  ERT600      0.1418
     11  O4        22.7890   68.4610   10.5630 O.3   600  ERT600     -0.4713
     12  C40       21.5630   68.9650   10.1060 C.3   600  ERT600      0.2525
     13  C3        23.6990   66.7500    9.2460 C.ar  600  ERT600      0.0370
     14  C2        24.2470   65.4810    9.1460 C.ar  600  ERT600      0.0032
     15  C15       23.8910   65.1500   11.4930 C.ar  600  ERT600      0.0451
     16  C1        24.3360   64.6770   10.2550 C.ar  600  ERT600      0.0035
     17  C12       24.0180   64.3080   12.5930 C.2   600  ERT600      0.1987
     18  O12       24.5300   63.1780   12.3660 O.2   600  ERT600     -0.2865
     19  C19       23.2610   64.2370   16.2480 C.3   600  ERT600      0.0986
     20  C10       23.5080   63.3650   17.4440 C.3   600  ERT600      0.1381
     21  C21       24.9490   62.8320   17.6050 C.2   600  ERT600      0.3197
     22  O13       25.8960   63.7820   18.0900 O.2   600  ERT600     -0.2500
     23  O10       25.4060   61.5030   17.3480 O.3   600  ERT600     -0.4443
     24  C22       26.8330   61.3720   17.3780 C.3   600  ERT600      0.2556
     25  C20       22.7470   65.5280   16.4390 C.2   600  ERT600      0.0292
     26  C7        22.2490   65.9570   17.7810 C.3   600  ERT600      0.1420
     27  C8        22.9510   65.2550   18.9320 C.3   600  ERT600      0.0650
     28  C9        22.8730   63.7360   18.7800 C.3   600  ERT600      0.1400
     29  C13       23.5480   63.1870   20.0400 C.3   600  ERT600      0.0311
     30  C14       23.7330   61.6850   20.0810 C.3   600  ERT600      0.0026
     31  O9        21.5290   63.2920   18.7590 O.3   600  ERT600     -0.2250
     32  O7        20.8640   65.5340   17.8240 O.3   600  ERT600     -0.3286
     33  C1'       20.0260   66.2210   18.7570 C.3   600  ERT600      0.2368
     34  C2'       19.3990   67.4070   18.0450 C.3   600  ERT600      0.0799
     35  C3'       18.3560   66.9160   17.0570 C.3   600  ERT600      0.0956
     36  N3'       17.9240   68.1500   16.3670 N.3   600  ERT600     -0.2691
     37  C7'       18.4640   68.3980   15.2390 C.3   600  ERT600      0.0897
     38  C8'       17.1040   68.9900   16.8550 C.3   600  ERT600      0.0897
     39  C4'       17.2870   66.1010   17.7930 C.3   600  ERT600      0.1935
     40  O4'       16.6270   66.8170   18.8340 O.3   600  ERT600     -0.2191
     41  C5'       18.0310   64.9050   18.4060 C.3   600  ERT600      0.1494
     42  O5'       19.0440   65.3300   19.3120 O.3   600  ERT600     -0.3303
     43  C6'       17.1430   63.9470   19.1790 C.3   600  ERT600      0.0349
@<TRIPOS>BOND
     1    14    13   ar
     2    14    16   ar
     3    13    10   ar
     4    12    11    1
     5    16    15   ar
     6    10    11    1
     7    10     9   ar
     8    15     9   ar
     9    15    17    1
    10     9     7    1
    11    18    17    2
    12    17     3    1
    13     7     8    2
    14     7     4    1
    15     3     4    2
    16     3     2    1
    17     4     5    1
    18     1     2    2
    19     2    19    1
    20    37    36    1
    21     5     6    1
    22     5    25    2
    23    19    25    1
    24    19    20    1
    25    36    38    1
    26    36    35    1
    27    25    26    1
    28    35    39    1
    29    35    34    1
    30    23    24    1
    31    23    21    1
    32    20    21    1
    33    20    28    1
    34    21    22    2
    35    26    32    1
    36    26    27    1
    37    39    41    1
    38    39    40    1
    39    32    33    1
    40    34    33    1
    41    41    43    1
    42    41    42    1
    43    33    42    1
    44    31    28    1
    45    28    27    1
    46    28    29    1
    47    29    30    1
