@<TRIPOS>MOLECULE
1tw2_SAH_A_1.pdb
 26 28 0 0 0
SMALL
GASTEIGER

@<TRIPOS>ATOM
      1  N         16.4020   73.3670   11.8610 N.3   635  SAH635     -0.1208
      2  CA        16.4530   71.9170   11.7740 C.3   635  SAH635      0.1952
      3  CB        17.7570   71.5980   11.0580 C.3   635  SAH635      0.0422
      4  CG        17.6130   70.4350   10.1190 C.3   635  SAH635      0.0597
      5  SD        19.1390   70.1090    9.5480 S.3   635  SAH635     -0.1375
      6  C         16.5200   71.3250   13.1450 C.2   635  SAH635      0.3819
      7  O         17.1410   71.9490   13.9920 O.co2 635  SAH635     -0.2441
      8  OXT       16.0010   70.2540   13.4230 O.co2 635  SAH635     -0.2441
      9  C5'       19.7640   71.2360    8.4760 C.3   635  SAH635      0.0899
     10  C4'       18.7660   71.5520    7.3560 C.3   635  SAH635      0.1630
     11  O4'       19.1540   72.5930    6.4400 O.3   635  SAH635     -0.3153
     12  C3'       18.3490   70.3620    6.5180 C.3   635  SAH635      0.2168
     13  O3'       17.0140   70.0820    6.8180 O.3   635  SAH635     -0.2175
     14  C2'       18.4440   70.7840    5.0700 C.3   635  SAH635      0.2569
     15  O2'       17.2430   70.5750    4.3450 O.3   635  SAH635     -0.2130
     16  C1'       18.8090   72.2570    5.1020 C.3   635  SAH635      0.3185
     17  N9        19.6800   72.7640    4.0160 N.pl3 635  SAH635     -0.1439
     18  C8        20.8900   72.3420    3.5970 C.3   635  SAH635      0.3377
     19  N7        21.2970   73.0980    2.5460 N.2   635  SAH635     -0.2095
     20  C5        20.3350   74.0050    2.3000 C.2   635  SAH635      0.2526
     21  C6        20.1870   75.1050    1.3240 C.2   635  SAH635      0.4393
     22  N6        21.1470   75.3610    0.4350 N.pl3 635  SAH635      0.2180
     23  N1        19.0650   75.8130    1.4160 N.2   635  SAH635      0.0021
     24  C2        17.9610   75.6100    2.3600 C.3   635  SAH635      0.5254
     25  N3        18.2090   74.5010    3.2820 N.2   635  SAH635     -0.0055
     26  C4        19.3630   73.7650    3.2150 C.2   635  SAH635      0.3518
@<TRIPOS>BOND
     1    22    21    1
     2    21    23    2
     3    21    20    1
     4    23    24    1
     5    20    19    2
     6    20    26    1
     7    24    25    1
     8    19    18    1
     9    26    25    2
    10    26    17    1
    11    18    17    1
    12    17    16    1
    13    15    14    1
    14    14    16    1
    15    14    12    1
    16    16    11    1
    17    11    10    1
    18    12    13    1
    19    12    10    1
    20    10     9    1
    21     9     5    1
    22     5     4    1
    23     4     3    1
    24     3     2    1
    25     2     1    1
    26     2     6    1
    27     6     8   ar
    28     6     7   ar
