@<TRIPOS>MOLECULE
1tw3_ERT_A_1.pdb
 43 47 0 0 0
SMALL
GASTEIGER

@<TRIPOS>ATOM
      1  O11       63.0680    0.5500   39.9550 O.2   600  ERT600     -0.2909
      2  C11       61.9420    0.4180   39.4390 C.2   600  ERT600      0.1804
      3  C18       61.5590    1.3320   38.4560 C.2   600  ERT600      0.0801
      4  C17       60.2230    1.1600   37.8650 C.2   600  ERT600      0.0832
      5  C6        59.4290    0.1100   38.3000 C.2   600  ERT600      0.1937
      6  O6        58.2380   -0.0490   37.7550 O.2   600  ERT600     -0.2870
      7  C5        59.7800    2.1130   36.8190 C.2   600  ERT600      0.2018
      8  O5        58.6510    2.0010   36.2810 O.2   600  ERT600     -0.2864
      9  C16       60.7080    3.2050   36.4180 C.ar  600  ERT600      0.0760
     10  C4        60.3310    4.1410   35.4400 C.ar  600  ERT600      0.1418
     11  O4        59.1200    4.1100   34.8570 O.3   600  ERT600     -0.4713
     12  C40       58.8030    3.4430   33.6450 C.3   600  ERT600      0.2525
     13  C3        61.2070    5.1540   35.0730 C.ar  600  ERT600      0.0370
     14  C2        62.4500    5.2390   35.6770 C.ar  600  ERT600      0.0032
     15  C15       61.9630    3.2850   37.0290 C.ar  600  ERT600      0.0451
     16  C1        62.8260    4.3110   36.6430 C.ar  600  ERT600      0.0035
     17  C12       62.3740    2.3920   38.0240 C.2   600  ERT600      0.1987
     18  O12       63.5110    2.5510   38.5310 O.2   600  ERT600     -0.2865
     19  C19       61.1150   -0.6360   39.8600 C.3   600  ERT600      0.0986
     20  C10       61.6100   -1.5640   40.9320 C.3   600  ERT600      0.1381
     21  C21       61.7880   -0.7500   42.2180 C.2   600  ERT600      0.3197
     22  O13       60.7650    0.1160   42.7020 O.2   600  ERT600     -0.2500
     23  O10       62.9870   -0.9360   42.9710 O.3   600  ERT600     -0.4443
     24  C22       63.1900    0.0270   44.0160 C.3   600  ERT600      0.2556
     25  C20       59.8510   -0.7710   39.2920 C.2   600  ERT600      0.0292
     26  C7        58.9350   -1.8800   39.6790 C.3   600  ERT600      0.1420
     27  C8        59.2450   -2.4060   41.0710 C.3   600  ERT600      0.0650
     28  C9        60.7110   -2.7710   41.2500 C.3   600  ERT600      0.1400
     29  C13       60.8270   -3.2780   42.6950 C.3   600  ERT600      0.0311
     30  C14       62.1610   -3.9390   43.0060 C.3   600  ERT600      0.0026
     31  O9        61.0910   -3.8690   40.3990 O.3   600  ERT600     -0.2250
     32  O7        59.0870   -2.9280   38.7070 O.3   600  ERT600     -0.3286
     33  C1'       57.9520   -3.7700   38.4840 C.3   600  ERT600      0.2368
     34  C2'       57.2620   -3.3710   37.1820 C.3   600  ERT600      0.0799
     35  C3'       58.2030   -3.6220   36.0060 C.3   600  ERT600      0.0956
     36  N3'       57.5160   -3.1210   34.7940 N.3   600  ERT600     -0.2691
     37  C7'       57.7530   -1.9240   34.4440 C.3   600  ERT600      0.0897
     38  C8'       56.6870   -3.8040   34.1100 C.3   600  ERT600      0.0897
     39  C4'       58.5960   -5.1050   35.9620 C.3   600  ERT600      0.1935
     40  O4'       57.4870   -5.9710   35.7730 O.3   600  ERT600     -0.2191
     41  C5'       59.2670   -5.4320   37.3000 C.3   600  ERT600      0.1494
     42  O5'       58.3710   -5.1430   38.3900 O.3   600  ERT600     -0.3303
     43  C6'       59.7250   -6.8890   37.4010 C.3   600  ERT600      0.0349
@<TRIPOS>BOND
     1    12    11    1
     2    38    36    1
     3    37    36    1
     4    36    35    1
     5    11    10    1
     6    13    10   ar
     7    13    14   ar
     8    10     9   ar
     9    14    16   ar
    10    40    39    1
    11    39    35    1
    12    39    41    1
    13    35    34    1
    14     8     7    2
    15     9     7    1
    16     9    15   ar
    17    16    15   ar
    18     7     4    1
    19    15    17    1
    20    34    33    1
    21    41    43    1
    22    41    42    1
    23     6     5    1
    24     4     5    1
    25     4     3    2
    26    17     3    1
    27    17    18    2
    28     5    25    2
    29    42    33    1
    30     3     2    1
    31    33    32    1
    32    32    26    1
    33    25    26    1
    34    25    19    1
    35     2    19    1
    36     2     1    2
    37    26    27    1
    38    19    20    1
    39    31    28    1
    40    20    28    1
    41    20    21    1
    42    27    28    1
    43    28    29    1
    44    21    22    2
    45    21    23    1
    46    29    30    1
    47    23    24    1
