@<TRIPOS>MOLECULE
1tw3_SAH_A_1.pdb
 26 28 0 0 0
SMALL
GASTEIGER

@<TRIPOS>ATOM
      1  N         54.2030    0.2660   29.6140 N.3   635  SAH635     -0.1208
      2  CA        55.5620   -0.0310   30.0430 C.3   635  SAH635      0.1952
      3  CB        56.1510    1.2590   30.6090 C.3   635  SAH635      0.0422
      4  CG        57.5490    1.5650   30.1540 C.3   635  SAH635      0.0597
      5  SD        58.1150    2.9360   30.9240 S.3   635  SAH635     -0.1375
      6  C         55.5080   -1.0650   31.1390 C.2   635  SAH635      0.3819
      7  O         54.6080   -1.0090   31.9810 O.co2 635  SAH635     -0.2441
      8  OXT       56.3650   -1.9380   31.1970 O.co2 635  SAH635     -0.2441
      9  C5'       57.3920    4.3750   30.4620 C.3   635  SAH635      0.0899
     10  C4'       57.4530    4.5440   28.9480 C.3   635  SAH635      0.1630
     11  O4'       56.7930    5.7070   28.4250 O.3   635  SAH635     -0.3153
     12  C3'       58.8570    4.5070   28.3640 C.3   635  SAH635      0.2168
     13  O3'       59.0090    3.2620   27.6830 O.3   635  SAH635     -0.2175
     14  C2'       58.9840    5.7020   27.4240 C.3   635  SAH635      0.2569
     15  O2'       59.4310    5.4330   26.1060 O.3   635  SAH635     -0.2130
     16  C1'       57.5950    6.3180   27.4010 C.3   635  SAH635      0.3185
     17  N9        57.5570    7.7960   27.2870 N.pl3 635  SAH635     -0.1439
     18  C8        58.1230    8.7600   28.0330 C.3   635  SAH635      0.3377
     19  N7        57.8050    9.9890   27.5160 N.2   635  SAH635     -0.2095
     20  C5        57.0470    9.7870   26.4270 C.2   635  SAH635      0.2526
     21  C6        56.3860   10.6660   25.4370 C.2   635  SAH635      0.4393
     22  N6        56.4710   11.9990   25.5080 N.pl3 635  SAH635      0.2180
     23  N1        55.7130   10.0380   24.4660 N.2   635  SAH635      0.0021
     24  C2        55.5340    8.5970   24.2860 C.3   635  SAH635      0.5254
     25  N3        56.2150    7.8190   25.3140 N.2   635  SAH635     -0.0055
     26  C4        56.9280    8.4340   26.3150 C.2   635  SAH635      0.3518
@<TRIPOS>BOND
     1    24    23    1
     2    24    25    1
     3    23    21    2
     4    25    26    2
     5    21    22    1
     6    21    20    1
     7    15    14    1
     8    26    20    1
     9    26    17    1
    10    20    19    2
    11    17    16    1
    12    17    18    1
    13    16    14    1
    14    16    11    1
    15    14    12    1
    16    19    18    1
    17    13    12    1
    18    12    10    1
    19    11    10    1
    20    10     9    1
    21     1     2    1
    22     2     3    1
    23     2     6    1
    24     4     3    1
    25     4     5    1
    26     9     5    1
    27     6     8   ar
    28     6     7   ar
