@<TRIPOS>MOLECULE
1tw5_UDH_A_1.pdb
 32 33 0 0 0
SMALL
GASTEIGER

@<TRIPOS>ATOM
      1  N1        13.9750   43.6860    2.7950 N.am  404  UDH404     -0.1766
      2  C2        14.7760   44.8330    3.0380 C.1   404  UDH404      0.2845
      3  N3        16.1170   44.6000    2.9440 N.2   404  UDH404     -0.2452
      4  C4        16.7570   43.4080    2.6520 C.1   404  UDH404      0.2182
      5  C5        15.8890   42.2880    2.4240 C.2   404  UDH404      0.1242
      6  C6        14.5560   42.4400    2.4940 C.2   404  UDH404      0.0929
      7  O2        14.3900   45.9760    3.3150 O.2   404  UDH404     -0.1918
      8  O4        17.9530   43.4440    2.6200 O.2   404  UDH404     -0.2085
      9  C1B       12.5120   43.8430    2.8660 C.3   404  UDH404      0.2401
     10  C2B       11.9180   44.7560    1.8090 C.3   404  UDH404      0.2319
     11  O2'       10.7150   45.3550    2.3780 O.3   404  UDH404     -0.2157
     12  C3B       11.6070   43.7650    0.7530 C.3   404  UDH404      0.2158
     13  C4B       11.0550   42.5830    1.4790 C.3   404  UDH404      0.1799
     14  O4'       11.7470   42.6320    2.7750 O.3   404  UDH404     -0.3320
     15  O3'       10.6330   44.3220   -0.1530 O.3   404  UDH404     -0.2175
     16  C5B       11.1380   41.1850    0.8510 C.3   404  UDH404      0.1813
     17  O5'       12.4410   40.8510    0.3940 O.3   404  UDH404     -0.3112
     18  PA        12.7820   41.0280   -1.0490 P.3   404  UDH404      0.2189
     19  O1A       12.0220   41.9890   -1.9190 O.2   404  UDH404     -0.5170
     20  O2A       14.1440   40.6580   -1.4070 O.3   404  UDH404     -0.4371
     21  O3A       12.0530   39.8220   -1.5880 O.3   404  UDH404     -0.2703
     22  PB        11.8510   39.2350   -3.0940 P.3   404  UDH404      0.2188
     23  O1B       11.0000   40.2800   -3.8600 O.2   404  UDH404     -0.5170
     24  O2B       13.2040   39.0610   -3.8630 O.3   404  UDH404     -0.3139
     25  O3B       11.1240   37.8650   -3.0370 O.3   404  UDH404     -0.4371
     26  C1'       14.1450   38.1810   -3.3100 C.3   404  UDH404      0.1491
     27  C2'       15.4970   38.6410   -3.8440 C.3   404  UDH404      0.0325
     28  C3'       15.8670   37.7350   -5.0150 C.3   404  UDH404      0.0026
     29  C4'       15.7660   38.5330   -6.2960 C.3   404  UDH404      0.0016
     30  C5'       15.4640   37.5590   -7.4100 C.3   404  UDH404      0.0205
     31  C6'       15.7890   38.2610   -8.7140 C.3   404  UDH404      0.1093
     32  N6'       14.9910   37.6970   -9.7590 N.3   404  UDH404     -0.1314
@<TRIPOS>BOND
     1    32    31    1
     2    31    30    1
     3    30    29    1
     4    29    28    1
     5    28    27    1
     6    24    26    1
     7    24    22    1
     8    23    22    2
     9    27    26    1
    10    22    25    1
    11    22    21    1
    12    19    18    2
    13    21    18    1
    14    20    18    1
    15    18    17    1
    16    15    12    1
    17    17    16    1
    18    12    13    1
    19    12    10    1
    20    16    13    1
    21    13    14    1
    22    10    11    1
    23    10     9    1
    24     5     6    2
    25     5     4    1
    26     6     1    1
    27     8     4    2
    28     4     3    2
    29    14     9    1
    30     1     9    1
    31     1     2   am
    32     3     2    2
    33     2     7    2
