@<TRIPOS>MOLECULE
1tw5_CBS_A_1.pdb
 29 30 0 0 0
SMALL
GASTEIGER

@<TRIPOS>ATOM
      1  C1A        7.4700   30.7360   -2.3240 C.3   100  CBS100      0.2586
      2  C2A        8.0900   31.2070   -1.0290 C.3   100  CBS100      0.1842
      3  C3A        7.3760   32.4510   -0.5630 C.3   100  CBS100      0.2094
      4  C4A        7.4220   33.5200   -1.6410 C.3   100  CBS100      0.2136
      5  C5A        6.8260   32.9680   -2.9840 C.3   100  CBS100      0.1834
      6  C6A        6.9580   33.9220   -4.1810 C.3   100  CBS100      0.2142
      7  C7A        8.9540   29.3050    0.2880 C.2   100  CBS100      0.2420
      8  C8A        8.5800   28.2880    1.3220 C.3   100  CBS100      0.0964
      9  N2A        7.9470   30.1310   -0.0120 N.am  100  CBS100     -0.1992
     10  O1A        8.1740   29.6100   -2.7280 O.3   100  CBS100     -0.3264
     11  O3A        8.0320   32.8620    0.6400 O.3   100  CBS100     -0.2183
     12  O4A        6.6930   34.6710   -1.2500 O.3   100  CBS100     -0.2176
     13  O5A        7.5320   31.7380   -3.3230 O.3   100  CBS100     -0.3262
     14  O6A        8.1800   34.6180   -4.1660 O.3   100  CBS100     -0.2176
     15  O7A       10.0680   29.3400   -0.2140 O.2   100  CBS100     -0.2733
     16  C1B        7.7630   26.2880   -4.9490 C.3   100  CBS100      0.2917
     17  C2B        7.8470   27.5540   -5.7880 C.3   100  CBS100      0.1870
     18  C3B        8.2630   28.6990   -4.8930 C.3   100  CBS100      0.2063
     19  C4B        7.4060   28.8710   -3.6670 C.3   100  CBS100      0.1795
     20  C5B        7.0190   27.5130   -2.9880 C.3   100  CBS100      0.1803
     21  C6B        5.7470   27.6020   -2.1280 C.3   100  CBS100      0.2141
     22  C7B        8.5240   27.2800   -8.1260 C.2   100  CBS100      0.2420
     23  C8B        9.7070   27.1990   -9.0690 C.3   100  CBS100      0.0964
     24  N2B        8.8810   27.4420   -6.8410 N.am  100  CBS100     -0.1991
     25  O1B        7.3730   25.2720   -5.8180 O.3   100  CBS100     -0.1879
     26  O3B        8.2960   29.9240   -5.6750 O.3   100  CBS100     -0.2184
     27  O5B        6.7610   26.4960   -3.9910 O.3   100  CBS100     -0.3243
     28  O6B        5.8650   26.8430   -0.9140 O.3   100  CBS100     -0.2176
     29  O7B        7.3590   27.2060   -8.5250 O.2   100  CBS100     -0.2733
@<TRIPOS>BOND
     1    23    22    1
     2    29    22    2
     3    22    24   am
     4    24    17    1
     5    25    16    1
     6    17    16    1
     7    17    18    1
     8    26    18    1
     9    16    27    1
    10    18    19    1
    11     6    14    1
    12     6     5    1
    13    27    20    1
    14    19    20    1
    15    19    10    1
    16    13     5    1
    17    13     1    1
    18    20    21    1
    19     5     4    1
    20    10     1    1
    21     1     2    1
    22    21    28    1
    23     4    12    1
    24     4     3    1
    25     2     3    1
    26     2     9    1
    27     3    11    1
    28    15     7    2
    29     9     7   am
    30     7     8    1
