@<TRIPOS>MOLECULE
1tw6_III_C_1.pdb
 27 27 0 0 0
SMALL
GASTEIGER

@<TRIPOS>ATOM
      1  N         86.6800   60.7660   15.4030 N.3     1  ALA1       -0.1231
      2  CA        85.2680   60.9740   15.8290 C.3     1  ALA1        0.1694
      3  C         84.4590   61.4990   14.6520 C.2     1  ALA1        0.2592
      4  O         85.0210   61.9160   13.6400 O.2     1  ALA1       -0.2718
      5  CB        85.1980   61.9330   17.0060 C.3     1  ALA1        0.0304
      6  N         83.1400   61.4480   14.7850 N.am    2  VAL2       -0.1966
      7  CA        82.2230   61.9340   13.7540 C.3     2  VAL2        0.1712
      8  C         81.0610   62.6850   14.3980 C.2     2  VAL2        0.2458
      9  O         80.7400   62.4390   15.5580 O.2     2  VAL2       -0.2730
     10  CB        81.6630   60.7720   12.8950 C.3     2  VAL2        0.0289
     11  CG1       82.7860   60.0570   12.1560 C.3     2  VAL2        0.0023
     12  CG2       80.8530   59.7870   13.7480 C.3     2  VAL2        0.0023
     13  N         80.4180   63.5970   13.6690 N.am    3  PRO3       -0.2716
     14  CA        79.2500   64.2950   14.2240 C.3     3  PRO3        0.1536
     15  C         78.1010   63.3460   14.5950 C.2     3  PRO3        0.2598
     16  O         77.9160   62.3190   13.9460 O.2     3  PRO3       -0.2715
     17  CB        78.8400   65.2510   13.1010 C.3     3  PRO3        0.0310
     18  CG        80.0650   65.4060   12.2710 C.3     3  PRO3        0.0237
     19  CD        80.7410   64.0700   12.3120 C.3     3  PRO3        0.0939
     20  N         77.3420   63.6980   15.6280 N.am    4  ILE4       -0.1978
     21  CA        76.2480   62.8540   16.1120 C.3     4  ILE4        0.1596
     22  C         75.1220   62.7750   15.0820 C.2     4  ILE4        0.2287
     23  O         74.9080   63.7160   14.3270 O.2     4  ILE4       -0.2864
     24  CB        75.7160   63.3840   17.4680 C.3     4  ILE4        0.0276
     25  CG1       76.7660   63.1590   18.5620 C.3     4  ILE4        0.0022
     26  CG2       74.3830   62.7110   17.8410 C.3     4  ILE4        0.0022
     27  CD1       76.4430   63.8410   19.8890 C.3     4  ILE4        0.0001
@<TRIPOS>BOND
     1    11    10    1
     2    18    19    1
     3    18    17    1
     4    19    13    1
     5    10    12    1
     6    10     7    1
     7    17    14    1
     8     4     3    2
     9    13    14    1
    10    13     8   am
    11     7     8    1
    12     7     6    1
    13    16    15    2
    14    14    15    1
    15    23    22    2
    16     8     9    2
    17    15    20   am
    18     3     6   am
    19     3     2    1
    20    22    21    1
    21     1     2    1
    22    20    21    1
    23     2     5    1
    24    21    24    1
    25    24    26    1
    26    24    25    1
    27    25    27    1
