@<TRIPOS>MOLECULE
1twa_ATP_A_1.pdb
 31 33 0 0 0
SMALL
GASTEIGER

@<TRIPOS>ATOM
      1  PG        84.1170   42.6800   41.0310 P.3   3011  ATP3011     0.5373
      2  O1G       83.1500   42.5890   42.1480 O.3   3011  ATP3011    -0.1143
      3  O2G       83.6580   43.7610   40.0340 O.2   3011  ATP3011    -0.2221
      4  O3G       84.2040   41.3200   40.3120 O.3   3011  ATP3011    -0.1143
      5  PB        86.0560   44.5930   41.6980 P.3   3011  ATP3011     0.2277
      6  O1B       86.2970   45.0920   40.3250 O.2   3011  ATP3011    -0.5168
      7  O2B       85.0310   45.4750   42.4360 O.3   3011  ATP3011    -0.4368
      8  O3B       85.5600   43.0620   41.6390 O.3   3011  ATP3011    -0.2258
      9  PA        88.6020   43.4860   42.1010 P.3   3011  ATP3011     0.2189
     10  O1A       89.2170   43.8910   40.8170 O.2   3011  ATP3011    -0.5170
     11  O2A       88.0490   42.0510   42.0230 O.3   3011  ATP3011    -0.4371
     12  O3A       87.4480   44.5340   42.5050 O.3   3011  ATP3011    -0.2700
     13  O5'       89.6840   43.6230   43.2870 O.3   3011  ATP3011    -0.3112
     14  C5'       89.3310   43.3510   44.6270 C.3   3011  ATP3011     0.1813
     15  C4'       90.1780   44.1840   45.5910 C.3   3011  ATP3011     0.1821
     16  O4'       90.8070   45.2660   44.9240 O.3   3011  ATP3011    -0.3135
     17  C3'       89.3700   44.7820   46.7390 C.3   3011  ATP3011     0.2184
     18  O3'       89.6220   44.0890   47.9410 O.3   3011  ATP3011    -0.2174
     19  C2'       89.8010   46.2370   46.8270 C.3   3011  ATP3011     0.2570
     20  O2'       90.2960   46.5650   48.1060 O.3   3011  ATP3011    -0.2130
     21  C1'       90.8830   46.4010   45.7680 C.3   3011  ATP3011     0.3186
     22  N9        90.6890   47.6570   45.0150 N.pl3 3011  ATP3011    -0.1439
     23  C8        90.2330   47.7910   43.7280 C.3   3011  ATP3011     0.3377
     24  N7        90.2040   49.1070   43.4160 N.2   3011  ATP3011    -0.2095
     25  C5        90.6320   49.8180   44.4820 C.2   3011  ATP3011     0.2526
     26  C6        90.7960   51.1840   44.6980 C.2   3011  ATP3011     0.4393
     27  N6        90.3750   52.0570   43.7870 N.pl3 3011  ATP3011     0.2180
     28  N1        91.2640   51.6310   45.9200 N.2   3011  ATP3011     0.0021
     29  C2        91.5670   50.7210   46.9180 C.3   3011  ATP3011     0.5254
     30  N3        91.4020   49.3660   46.6950 N.2   3011  ATP3011    -0.0055
     31  C4        90.9420   48.9180   45.4960 C.2   3011  ATP3011     0.3518
@<TRIPOS>BOND
     1     3     1    2
     2     4     1    1
     3     6     5    2
     4    10     9    2
     5     1     8    1
     6     1     2    1
     7     8     5    1
     8     5     7    1
     9     5    12    1
    10    11     9    1
    11     9    12    1
    12     9    13    1
    13    13    14    1
    14    24    23    1
    15    24    25    2
    16    23    22    1
    17    27    26    1
    18    25    26    1
    19    25    31    1
    20    14    15    1
    21    26    28    2
    22    16    15    1
    23    16    21    1
    24    22    31    1
    25    22    21    1
    26    31    30    2
    27    15    17    1
    28    21    19    1
    29    28    29    1
    30    30    29    1
    31    17    19    1
    32    17    18    1
    33    19    20    1
