@<TRIPOS>MOLECULE
1twc_GTP_B_1.pdb
 32 34 0 0 0
SMALL
GASTEIGER

@<TRIPOS>ATOM
      1  PG        84.0960   42.6850   41.0420 P.3   3008  GTP3008     0.5373
      2  O1G       83.0730   42.5140   42.0990 O.3   3008  GTP3008    -0.1143
      3  O2G       83.6850   43.8390   40.1070 O.2   3008  GTP3008    -0.2221
      4  O3G       84.2180   41.3830   40.2280 O.3   3008  GTP3008    -0.1143
      5  O3B       85.5060   43.0150   41.7480 O.3   3008  GTP3008    -0.2258
      6  PB        86.0510   44.5270   41.8490 P.3   3008  GTP3008     0.2277
      7  O1B       86.3000   45.0580   40.4900 O.2   3008  GTP3008    -0.5168
      8  O2B       85.0620   45.4200   42.6200 O.3   3008  GTP3008    -0.4368
      9  O3A       87.4460   44.3950   42.6420 O.3   3008  GTP3008    -0.2700
     10  PA        88.6030   43.4060   42.1100 P.3   3008  GTP3008     0.2189
     11  O1A       89.4330   44.1180   41.1100 O.2   3008  GTP3008    -0.5170
     12  O2A       88.0020   42.1190   41.5110 O.3   3008  GTP3008    -0.4371
     13  O5'       89.4990   43.0750   43.4100 O.3   3008  GTP3008    -0.3112
     14  C5'       88.9360   42.9190   44.6980 C.3   3008  GTP3008     0.1813
     15  C4'       89.2910   44.1230   45.5730 C.3   3008  GTP3008     0.1799
     16  O4'       90.5060   44.7130   45.1340 O.3   3008  GTP3008    -0.3326
     17  C3'       88.1950   45.1990   45.5780 C.3   3008  GTP3008     0.2158
     18  O3'       87.5950   45.2820   46.8520 O.3   3008  GTP3008    -0.2175
     19  C2'       88.8540   46.5170   45.1910 C.3   3008  GTP3008     0.2310
     20  O2'       88.7170   47.4990   46.1920 O.3   3008  GTP3008    -0.2158
     21  C1'       90.3040   46.1060   45.0110 C.3   3008  GTP3008     0.2293
     22  N9        91.2810   47.6300   44.9590 N.pl3 3008  GTP3008    -0.2354
     23  C8        92.6950   47.1600   45.0120 C.3   3008  GTP3008     0.2246
     24  N7        93.6720   47.9170   45.2530 N.2   3008  GTP3008    -0.2322
     25  C5        93.1770   49.1180   45.4610 C.2   3008  GTP3008     0.2182
     26  C6        93.9280   50.3310   45.8040 C.1   3008  GTP3008     0.2372
     27  O6        95.1540   50.4530   45.9630 O.2   3008  GTP3008    -0.2069
     28  N1        93.1210   51.4530   45.9810 N.2   3008  GTP3008    -0.2485
     29  C2        91.7460   51.4390   45.8420 C.1   3008  GTP3008     0.2531
     30  N2        91.1890   52.6250   46.0560 N.pl3 3008  GTP3008    -0.0226
     31  N3        90.9720   50.3090   45.5140 N.2   3008  GTP3008    -0.3074
     32  C4        91.7400   49.1380   45.3130 C.2   3008  GTP3008     0.2300
@<TRIPOS>BOND
     1     3     1    2
     2     4     1    1
     3     7     6    2
     4     1     5    1
     5     1     2    1
     6    11    10    2
     7    12    10    1
     8     5     6    1
     9     6     8    1
    10     6     9    1
    11    10     9    1
    12    10    13    1
    13    13    14    1
    14    14    15    1
    15    22    21    1
    16    22    23    1
    17    22    32    1
    18    21    16    1
    19    21    19    1
    20    23    24    1
    21    16    15    1
    22    19    17    1
    23    19    20    1
    24    24    25    2
    25    32    25    1
    26    32    31    2
    27    25    26    1
    28    31    29    2
    29    15    17    1
    30    17    18    1
    31    26    27    2
    32    26    28    2
    33    29    28    2
    34    29    30    1
