@<TRIPOS>MOLECULE
1twf_UTP_B_1.pdb
 29 30 0 0 0
SMALL
GASTEIGER

@<TRIPOS>ATOM
      1  PA        88.5890   43.2400   41.9820 P.3   3571  UTP3571     0.2189
      2  O1A       89.1080   43.6000   40.6320 O.2   3571  UTP3571    -0.5170
      3  O2A       88.5010   41.7790   42.3920 O.3   3571  UTP3571    -0.4371
      4  O3A       87.1150   43.9010   42.2400 O.3   3571  UTP3571    -0.2700
      5  O5'       89.3190   44.0690   43.1090 O.3   3571  UTP3571    -0.3112
      6  PB        85.9120   44.2490   41.2750 P.3   3571  UTP3571     0.2277
      7  O1B       86.1830   44.1300   39.8550 O.2   3571  UTP3571    -0.5168
      8  O2B       85.4600   45.5560   41.7610 O.3   3571  UTP3571    -0.4368
      9  O3B       84.9740   43.0380   41.6830 O.3   3571  UTP3571    -0.2258
     10  PG        83.5270   42.6010   41.1790 P.3   3571  UTP3571     0.5373
     11  O1G       82.6390   42.5130   42.4590 O.3   3571  UTP3571    -0.1143
     12  O2G       83.0940   43.6880   40.1850 O.2   3571  UTP3571    -0.2221
     13  O3G       83.6780   41.2160   40.5030 O.3   3571  UTP3571    -0.1143
     14  C5'       88.9670   43.8580   44.4520 C.3   3571  UTP3571     0.1813
     15  C4'       89.4820   44.9970   45.2760 C.3   3571  UTP3571     0.1799
     16  O4'       89.2330   46.2720   44.6090 O.3   3571  UTP3571    -0.3320
     17  C1'       89.1630   47.2100   45.6300 C.3   3571  UTP3571     0.2401
     18  C2'       88.2170   46.4930   46.6130 C.3   3571  UTP3571     0.2319
     19  O2'       88.0760   47.1500   47.8570 O.3   3571  UTP3571    -0.2157
     20  C3'       88.8390   45.0730   46.6490 C.3   3571  UTP3571     0.2158
     21  O3'       89.8650   44.9030   47.6570 O.3   3571  UTP3571    -0.2175
     22  N1        88.6470   48.5680   45.1310 N.am  3571  UTP3571    -0.1766
     23  C6        87.8880   48.7150   43.9730 C.2   3571  UTP3571     0.0929
     24  C2        88.9830   49.7230   45.9160 C.1   3571  UTP3571     0.2845
     25  O2        89.6660   49.6440   46.9530 O.2   3571  UTP3571    -0.1918
     26  N3        88.5100   50.9290   45.4180 N.2   3571  UTP3571    -0.2452
     27  C4        87.7410   51.1300   44.2630 C.1   3571  UTP3571     0.2182
     28  O4        87.4030   52.3030   43.9560 O.2   3571  UTP3571    -0.2085
     29  C5        87.4450   49.9210   43.5180 C.2   3571  UTP3571     0.1242
@<TRIPOS>BOND
     1     7     6    2
     2    12    10    2
     3    13    10    1
     4     2     1    2
     5    10     9    1
     6    10    11    1
     7     6     9    1
     8     6     8    1
     9     6     4    1
    10     1     4    1
    11     1     3    1
    12     1     5    1
    13     5    14    1
    14    29    23    2
    15    29    27    1
    16    28    27    2
    17    23    22    1
    18    27    26    2
    19    14    15    1
    20    16    15    1
    21    16    17    1
    22    22    17    1
    23    22    24   am
    24    15    20    1
    25    26    24    2
    26    17    18    1
    27    24    25    2
    28    18    20    1
    29    18    19    1
    30    20    21    1
