@<TRIPOS>MOLECULE
1twg_CTP_B_1.pdb
 29 30 0 0 0
SMALL
GASTEIGER

@<TRIPOS>ATOM
      1  N1        89.7360   48.5030   44.4950 N.am  3008  CTP3008    -0.1778
      2  C2        88.6150   49.5780   44.0920 C.1   3008  CTP3008     0.2756
      3  N3        88.7990   50.9240   44.1360 N.2   3008  CTP3008    -0.3024
      4  C4        90.0010   51.4830   44.5380 C.2   3008  CTP3008     0.2346
      5  C5        91.1120   50.6890   44.9250 C.2   3008  CTP3008     0.0687
      6  C6        90.9570   49.2540   44.8900 C.2   3008  CTP3008     0.0836
      7  O2        87.4480   49.3010   43.7030 O.2   3008  CTP3008    -0.1925
      8  N4        90.0510   52.8180   44.5420 N.pl3 3008  CTP3008    -0.0921
      9  C1'       89.8160   46.8430   44.7770 C.3   3008  CTP3008     0.2400
     10  C2'       88.6880   46.3450   45.6620 C.3   3008  CTP3008     0.2319
     11  O2'       88.6130   47.0760   46.8630 O.3   3008  CTP3008    -0.2157
     12  C3'       89.0800   44.8910   45.8900 C.3   3008  CTP3008     0.2158
     13  C4'       90.3820   44.6420   45.1140 C.3   3008  CTP3008     0.1799
     14  O4'       90.7150   45.8220   44.3960 O.3   3008  CTP3008    -0.3320
     15  O3'       89.2690   44.6220   47.2620 O.3   3008  CTP3008    -0.2175
     16  C5'       90.2860   43.4490   44.1620 C.3   3008  CTP3008     0.1813
     17  O5'       89.9450   43.8910   42.8630 O.3   3008  CTP3008    -0.3112
     18  PA        88.6030   43.4060   42.1100 P.3   3008  CTP3008     0.2189
     19  O1A       88.7670   43.5870   40.6490 O.2   3008  CTP3008    -0.5170
     20  O2A       88.2780   41.9380   42.4500 O.3   3008  CTP3008    -0.4371
     21  O3A       87.4460   44.3950   42.6420 O.3   3008  CTP3008    -0.2700
     22  PB        86.0510   44.5270   41.8490 P.3   3008  CTP3008     0.2277
     23  O1B       86.3000   45.0580   40.4900 O.2   3008  CTP3008    -0.5168
     24  O2B       85.0620   45.4200   42.6200 O.3   3008  CTP3008    -0.4368
     25  O3B       85.5060   43.0150   41.7480 O.3   3008  CTP3008    -0.2258
     26  PG        84.0960   42.6850   41.0420 P.3   3008  CTP3008     0.5373
     27  O1G       83.0730   42.5140   42.0990 O.3   3008  CTP3008    -0.1143
     28  O2G       83.6850   43.8390   40.1070 O.2   3008  CTP3008    -0.2221
     29  O3G       84.2180   41.3830   40.2280 O.3   3008  CTP3008    -0.1143
@<TRIPOS>BOND
     1    28    26    2
     2    29    26    1
     3    23    22    2
     4    19    18    2
     5    26    25    1
     6    26    27    1
     7    25    22    1
     8    22    24    1
     9    22    21    1
    10    18    20    1
    11    18    21    1
    12    18    17    1
    13    17    16    1
    14     7     2    2
    15     2     3    2
    16     2     1   am
    17     3     4    2
    18    16    13    1
    19    14     9    1
    20    14    13    1
    21     1     9    1
    22     1     6    1
    23     4     8    1
    24     4     5    1
    25     9    10    1
    26     6     5    2
    27    13    12    1
    28    10    12    1
    29    10    11    1
    30    12    15    1
