@<TRIPOS>MOLECULE
1twh_ATP_A_1.pdb
 30 32 0 0 0
SMALL
GASTEIGER

@<TRIPOS>ATOM
      1  PG        84.0960   42.6850   41.0420 P.3   3011  ATP3011     0.5373
      2  O1G       83.0730   42.5140   42.0990 O.3   3011  ATP3011    -0.1143
      3  O2G       83.6850   43.8390   40.1070 O.2   3011  ATP3011    -0.2221
      4  O3G       84.2180   41.3830   40.2280 O.3   3011  ATP3011    -0.1143
      5  PB        86.0510   44.5270   41.8490 P.3   3011  ATP3011     0.2277
      6  O1B       86.3000   45.0580   40.4900 O.2   3011  ATP3011    -0.5168
      7  O2B       85.0620   45.4200   42.6200 O.3   3011  ATP3011    -0.4368
      8  O3B       85.5060   43.0150   41.7480 O.3   3011  ATP3011    -0.2258
      9  PA        88.6030   43.4060   42.1100 P.3   3011  ATP3011     0.2190
     10  O1A       89.2300   43.9920   40.9020 O.2   3011  ATP3011    -0.5170
     11  O2A       88.0400   42.0020   41.8120 O.3   3011  ATP3011    -0.4371
     12  O3A       87.4460   44.3950   42.6420 O.3   3011  ATP3011    -0.2700
     13  O5'       89.6880   43.3530   43.3030 O.3   3011  ATP3011    -0.3099
     14  C5'       89.3130   43.2700   44.6640 C.3   3011  ATP3011     0.1955
     15  C4'       90.2340   44.1460   45.5160 C.3   3011  ATP3011     0.2337
     16  O4'       90.7500   45.2200   44.7420 O.2   3011  ATP3011    -0.4444
     17  C3'       89.5290   44.7250   46.7510 C.3   3011  ATP3011     0.2230
     18  O3'       90.0640   44.1620   47.9290 O.3   3011  ATP3011    -0.2141
     19  C2'       89.7300   46.2340   46.7210 C.2   3011  ATP3011     0.0907
     20  C1'       90.5650   46.4190   45.4660 C.2   3011  ATP3011     0.2888
     21  N9        90.8640   47.7770   44.9580 N.pl3 3011  ATP3011    -0.1163
     22  C8        90.2760   47.9700   43.7050 C.3   3011  ATP3011     0.3430
     23  N7        90.1020   49.2150   43.3890 N.2   3011  ATP3011    -0.2092
     24  C5        90.6100   49.8760   44.5040 C.2   3011  ATP3011     0.2530
     25  C6        90.7600   51.2580   44.8150 C.2   3011  ATP3011     0.4393
     26  N6        90.4090   52.2120   43.9710 N.pl3 3011  ATP3011     0.2180
     27  N1        91.3020   51.5910   46.0250 N.2   3011  ATP3011     0.0021
     28  C2        91.6820   50.6400   46.8770 C.3   3011  ATP3011     0.5254
     29  N3        91.6140   49.3200   46.7010 N.2   3011  ATP3011    -0.0051
     30  C4        91.0540   49.0100   45.4540 C.2   3011  ATP3011     0.3566
@<TRIPOS>BOND
     1     3     1    2
     2     4     1    1
     3     6     5    2
     4    10     9    2
     5     1     8    1
     6     1     2    1
     7     8     5    1
     8    11     9    1
     9     5     7    1
    10     5    12    1
    11     9    12    1
    12     9    13    1
    13    13    14    1
    14    23    22    1
    15    23    24    2
    16    22    21    1
    17    26    25    1
    18    24    25    1
    19    24    30    1
    20    14    15    1
    21    16    20    1
    22    16    15    1
    23    25    27    2
    24    21    30    1
    25    21    20    1
    26    30    29    2
    27    20    19    2
    28    15    17    1
    29    27    28    1
    30    29    28    1
    31    19    17    1
    32    17    18    1
