@<TRIPOS>MOLECULE
1twi_LYS_D_1.pdb
 10 9 0 0 0
SMALL
GASTEIGER

@<TRIPOS>ATOM
      1  N         12.5440   83.6750   10.6840 N.3   1603  LYS1603    -0.1208
      2  CA        11.5370   83.2800    9.6330 C.3   1603  LYS1603     0.1943
      3  C         10.2130   84.0240    9.8840 C.2   1603  LYS1603     0.3819
      4  O          9.2030   83.7860    9.1450 O.co2 1603  LYS1603    -0.2441
      5  CB        11.3000   81.7780    9.6960 C.3   1603  LYS1603     0.0307
      6  CG        12.5650   80.9780    9.6560 C.3   1603  LYS1603     0.0036
      7  CD        12.4790   79.9080    8.6090 C.3   1603  LYS1603     0.0206
      8  CE        13.8500   79.7060    7.9340 C.3   1603  LYS1603     0.1093
      9  NZ        14.9160   79.4420    8.9640 N.3   1603  LYS1603    -0.1314
     10  OXT       10.1980   84.8400   10.8330 O.co2 1603  LYS1603    -0.2441
@<TRIPOS>BOND
     1     8     7    1
     2     8     9    1
     3     7     6    1
     4     4     3   ar
     5     2     5    1
     6     2     3    1
     7     2     1    1
     8     6     5    1
     9     3    10   ar
