@<TRIPOS>MOLECULE
1twi_PLP_A_1.pdb
 16 16 0 0 0
SMALL
GASTEIGER

@<TRIPOS>ATOM
      1  N1        35.0730   -1.9340   31.9820 N.ar  1501  PLP1501    -0.2452
      2  C2        35.4570   -0.7240   31.4320 C.ar  1501  PLP1501     0.0982
      3  C2A       36.8750   -0.6660   30.8140 C.3   1501  PLP1501     0.0555
      4  C3        34.5560    0.3350   31.5070 C.ar  1501  PLP1501     0.2120
      5  O3        34.9660    1.5080   30.9590 O.3   1501  PLP1501    -0.2852
      6  C4        33.3040    0.2320   32.0540 C.ar  1501  PLP1501     0.0822
      7  C4A       32.3700    1.4890   32.0810 C.2   1501  PLP1501     0.2372
      8  O4A       32.8890    2.5360   31.8540 O.2   1501  PLP1501    -0.2830
      9  C5        32.9010   -1.0010   32.6150 C.ar  1501  PLP1501     0.0333
     10  C6        33.8050   -2.0490   32.5440 C.ar  1501  PLP1501     0.0969
     11  C5A       31.5570   -1.3100   33.2590 C.3   1501  PLP1501     0.1819
     12  O4P       30.4500   -1.0840   32.3480 O.3   1501  PLP1501    -0.2653
     13  P         28.9620   -1.4600   32.7450 P.3   1501  PLP1501     0.5329
     14  O1P       28.1800   -1.0480   31.5660 O.2   1501  PLP1501    -0.2224
     15  O2P       28.6470   -0.6250   33.9540 O.3   1501  PLP1501    -0.1145
     16  O3P       28.9010   -2.8990   32.9940 O.3   1501  PLP1501    -0.1145
@<TRIPOS>BOND
     1     3     2    1
     2     5     4    1
     3     2     4   ar
     4     2     1   ar
     5     4     6   ar
     6    14    13    2
     7     8     7    2
     8     1    10   ar
     9     6     7    1
    10     6     9   ar
    11    12    13    1
    12    12    11    1
    13    10     9   ar
    14     9    11    1
    15    13    16    1
    16    13    15    1
