@<TRIPOS>MOLECULE
1twn_VER_A_1.pdb
 37 43 0 0 0
SMALL
GASTEIGER

@<TRIPOS>ATOM
      1 FE         18.5240   -0.0140    4.5300 Fe    300  VER300      0.0000
      2  NA        19.1220    1.3880    5.8130 N.pl3 300  VER300      0.0000
      3  NB        20.3890   -0.5720    4.1930 N.ar  300  VER300      0.0000
      4  NC        17.9080   -1.2250    3.0810 N.ar  300  VER300      0.0000
      5  ND        16.6490    0.6720    4.7480 N.ar  300  VER300      0.0000
      6  C1A       18.3590    2.3110    6.5290 C.3   300  VER300      0.0000
      7  CHA       16.9850    2.4730    6.4100 C.2   300  VER300      0.0000
      8  C4D       16.1800    1.7080    5.5520 C.ar  300  VER300      0.0000
      9  C1B       21.5460   -0.0490    4.7790 C.ar  300  VER300      0.0000
     10  CHB       21.5720    1.0000    5.7350 C.2   300  VER300      0.0000
     11  C4A       20.4250    1.6700    6.2150 C.2   300  VER300      0.0000
     12  C1C       18.6410   -2.2030    2.4060 C.ar  300  VER300      0.0000
     13  O         20.0130   -2.4000    2.5690 O.3   300  VER300      0.0000
     14  C4B       20.8310   -1.6280    3.4010 C.ar  300  VER300      0.0000
     15  C1D       15.4980    0.1900    4.1220 C.ar  300  VER300      0.0000
     16  CHD       15.4900   -0.7220    3.0890 C.2   300  VER300      0.0000
     17  C4C       16.6170   -1.3540    2.5720 C.ar  300  VER300      0.0000
     18  C3A       20.3850    2.7560    7.1780 C.3   300  VER300      0.0000
     19  CMA       21.5640    3.3510    7.9410 C.3   300  VER300      0.0000
     20  C2B       22.7130   -0.8200    4.3620 C.ar  300  VER300      0.0000
     21  CMB       24.1580   -0.6050    4.7970 C.3   300  VER300      0.0000
     22  C3B       22.2710   -1.8140    3.5500 C.ar  300  VER300      0.0000
     23  CAB       23.0180   -2.8830    3.0710 C.3   300  VER300      0.0000
     24  CBB       24.1450   -2.7190    2.1830 C.3   300  VER300      0.0000
     25  C2C       17.7830   -2.9780    1.5020 C.ar  300  VER300      0.0000
     26  CMC       18.1270   -4.2800    0.7630 C.3   300  VER300      0.0000
     27  C3C       16.5380   -2.4100    1.5670 C.ar  300  VER300      0.0000
     28  CAC       15.3690   -2.7830    0.8900 C.3   300  VER300      0.0000
     29  CBC       15.2590   -3.2500   -0.4820 C.3   300  VER300      0.0000
     30  C2D       14.3170    0.9120    4.5510 C.ar  300  VER300      0.0000
     31  CMD       12.8910    0.7090    4.0550 C.3   300  VER300      0.0000
     32  C3D       14.7210    1.8610    5.4190 C.ar  300  VER300      0.0000
     33  CAD       13.7670    2.8490    6.0890 C.3   300  VER300      0.0000
     34  CBD       13.6800    2.6770    7.6080 C.3   300  VER300      0.0000
     35  CGD       12.5320    3.4600    8.2250 C.2   300  VER300      0.0000
     36  O1D       11.3690    3.0410    8.0690 O.co2 300  VER300      0.0000
     37  O2D       12.7900    4.4990    8.8620 O.co2 300  VER300      0.0000
@<TRIPOS>BOND
     1    29    28    1
     2    26    25    1
     3    28    27    1
     4    25    27   ar
     5    25    12   ar
     6    27    17   ar
     7    24    23    1
     8    12    13    1
     9    12     4   ar
    10    13    14    1
    11    17     4   ar
    12    17    16    1
    13    23    22    1
    14     4     1    1
    15    16    15    2
    16    14    22   ar
    17    14     3   ar
    18    22    20   ar
    19    31    30    1
    20    15    30   ar
    21    15     5   ar
    22     3     1    1
    23     3     9   ar
    24    20     9   ar
    25    20    21    1
    26     1     5    1
    27     1     2    1
    28    30    32   ar
    29     5     8   ar
    30     9    10    1
    31    32     8   ar
    32    32    33    1
    33     8     7    2
    34    10    11    2
    35     2    11    1
    36     2     6    1
    37    33    34    1
    38    11    18    1
    39     7     6    1
    40    18    19    1
    41    34    35    1
    42    36    35   ar
    43    35    37   ar
