@<TRIPOS>MOLECULE
1twq_III_P_1.pdb
 43 43 0 0 0
SMALL
GASTEIGER

@<TRIPOS>ATOM
      1  C1       -13.9850   69.9690   -1.4550 C.3   995  AMU995      0.2916
      2  C2       -13.6180   68.6540   -0.7340 C.3   995  AMU995      0.1839
      3  C3       -13.8460   68.8190    0.8220 C.3   995  AMU995      0.1734
      4  C4       -12.9740   69.9670    1.3290 C.3   995  AMU995      0.2103
      5  C5       -13.2740   71.2770    0.5600 C.3   995  AMU995      0.1834
      6  C6       -12.3850   72.4640    0.9580 C.3   995  AMU995      0.2142
      7  C7       -14.0150   66.3250   -1.6200 C.2   995  AMU995      0.2420
      8  C8       -15.0900   65.3460   -2.0990 C.3   995  AMU995      0.0964
      9  C9       -14.4010   66.5870    1.9670 C.3   995  AMU995      0.1926
     10  C10      -13.6470   65.3290    2.4110 C.2   995  AMU995      0.2689
     11  C11      -15.2790   67.1610    3.0920 C.3   995  AMU995      0.0421
     12  O1       -15.3830   70.2270   -1.3570 O.3   995  AMU995     -0.1879
     13  O3       -13.4500   67.6010    1.5270 O.3   995  AMU995     -0.3449
     14  O4       -13.3380   70.1230    2.7040 O.3   995  AMU995     -0.2178
     15  O5       -13.1600   71.0500   -0.8810 O.3   995  AMU995     -0.3242
     16  O6       -11.1400   72.0570    1.5120 O.3   995  AMU995     -0.2176
     17  O7       -12.8270   65.9780   -1.6080 O.2   995  AMU995     -0.2733
     18  O10      -14.2350   64.2800    2.7140 O.2   995  AMU995     -0.2707
     19  N2       -14.4370   67.5380   -1.2290 N.am  995  AMU995     -0.1993
     20  N        -12.3130   65.4890    2.4330 N.am  996  ALA996     -0.1957
     21  CA       -11.2860   64.4890    2.8130 C.3   996  ALA996      0.1729
     22  C         -9.9860   65.0840    3.4070 C.2   996  ALA996      0.2616
     23  O         -9.6110   66.2160    3.0970 O.2   996  ALA996     -0.2715
     24  CB       -10.9240   63.6410    1.6140 C.3   996  ALA996      0.0334
     25  N         -9.3250   64.2900    4.2830 N.am  997  GLU997     -0.1963
     26  CA        -8.0760   64.6890    4.9830 C.3   997  GLU997      0.1749
     27  C         -8.3860   64.9700    6.4640 C.2   997  GLU997      0.2806
     28  O         -7.4150   65.1120    7.2360 O.2   997  GLU997     -0.2698
     29  CB        -7.0150   63.5760    4.8950 C.3   997  GLU997      0.0408
     30  CG        -6.5540   63.1740    3.5000 C.3   997  GLU997      0.0891
     31  CD        -5.8940   61.7980    3.4390 C.2   997  GLU997      0.2418
     32  OE1       -6.5080   60.8390    3.9690 O.2   997  GLU997     -0.2733
     33  N2        -9.6340   65.0440    6.7720 N.am  997  GLU997     -0.0863
     34  N         -4.7150   61.7120    2.8100 N.am  998  LYS998     -0.1977
     35  CA        -3.9060   60.4350    2.6120 C.3   998  LYS998      0.1744
     36  C         -3.7410   59.6540    3.9360 C.2   998  LYS998      0.2806
     37  O         -4.1200   58.4580    4.0020 O.2   998  LYS998     -0.2698
     38  CB        -2.4930   60.7270    2.0680 C.3   998  LYS998      0.0312
     39  CG        -2.4260   61.4800    0.7450 C.3   998  LYS998      0.0038
     40  CD        -0.9710   61.6890    0.3160 C.3   998  LYS998      0.0206
     41  CE        -0.8040   62.4320   -1.0090 C.3   998  LYS998      0.1093
     42  NZ         0.6170   62.6090   -1.3710 N.3   998  LYS998     -0.1314
     43  N         -3.2000   60.3460    4.9080 N.am  999  NH2999     -0.0863
@<TRIPOS>BOND
     1     8     7    1
     2     7    17    2
     3     7    19   am
     4     1    12    1
     5     1    15    1
     6     1     2    1
     7    42    41    1
     8    19     2    1
     9    41    40    1
    10    15     5    1
    11     2     3    1
    12    40    39    1
    13     5     6    1
    14     5     4    1
    15    39    38    1
    16     3     4    1
    17     3    13    1
    18     6    16    1
    19     4    14    1
    20    13     9    1
    21    24    21    1
    22     9    10    1
    23     9    11    1
    24    38    35    1
    25    10    20   am
    26    10    18    2
    27    20    21    1
    28    35    34    1
    29    35    36    1
    30    34    31   am
    31    21    22    1
    32    23    22    2
    33    22    25   am
    34    31    30    1
    35    31    32    2
    36    30    29    1
    37    36    37    2
    38    36    43   am
    39    25    26    1
    40    29    26    1
    41    26    27    1
    42    27    33   am
    43    27    28    2
