@<TRIPOS>MOLECULE
1tww_HH2_A_1.pdb
 22 23 0 0 0
SMALL
GASTEIGER

@<TRIPOS>ATOM
      1  N1       -78.9800   86.7990   93.0030 N.2   282  HH2282     -0.3831
      2  C2       -78.1890   87.0370   94.0870 C.2   282  HH2282      0.1441
      3  C3       -77.0980   86.2180   94.4000 C.3   282  HH2282      0.1939
      4  N4       -76.8150   85.1770   93.6200 N.2   282  HH2282     -0.1992
      5  N5       -77.3060   83.8400   91.7450 N.2   282  HH2282     -0.2672
      6  C6       -78.0690   83.6110   90.6530 C.1   282  HH2282      0.2609
      7  N6       -77.7850   82.5600   89.8730 N.pl3 282  HH2282     -0.0220
      8  N7       -79.1440   84.4040   90.3340 N.2   282  HH2282     -0.2466
      9  C8       -79.4780   85.4760   91.1060 C.1   282  HH2282      0.2569
     10  O8       -80.5150   86.2320   90.7980 O.2   282  HH2282     -0.2052
     11  C9       -78.6870   85.7470   92.2180 C.2   282  HH2282      0.2989
     12  C10      -77.5910   84.9100   92.5360 C.1   282  HH2282      0.1401
     13  C11      -78.5230   88.2320   94.9380 C.3   282  HH2282      0.2051
     14  O4       -77.7720   88.1880   96.1410 O.3   282  HH2282     -0.3064
     15  P1       -78.1870   89.0390   97.4600 P.3   282  HH2282      0.2234
     16  O1P      -79.4290   89.9170   97.2060 O.2   282  HH2282     -0.5169
     17  O2P      -76.8580   89.6210   97.9920 O.3   282  HH2282     -0.4370
     18  O3P      -78.6260   87.9590   98.5570 O.3   282  HH2282     -0.2261
     19  P2       -79.4220   86.6530   98.1970 P.3   282  HH2282      0.5373
     20  O4P      -80.3370   87.0670   97.0780 O.2   282  HH2282     -0.2221
     21  O5P      -80.1570   86.2940   99.4810 O.3   282  HH2282     -0.1143
     22  O6P      -78.2870   85.7700   97.8000 O.3   282  HH2282     -0.1143
@<TRIPOS>BOND
     1     7     6    1
     2     8     6    2
     3     8     9    2
     4     6     5    2
     5    10     9    2
     6     9    11    1
     7     5    12    2
     8    11    12    1
     9    11     1    2
    10    12     4    2
    11     1     2    2
    12     4     3    1
    13     2     3    1
    14     2    13    1
    15    13    14    1
    16    14    15    1
    17    20    19    2
    18    16    15    2
    19    15    17    1
    20    15    18    1
    21    22    19    1
    22    19    18    1
    23    19    21    1
