@<TRIPOS>MOLECULE
1twz_PMM_A_1.pdb
 18 19 0 0 0
SMALL
GASTEIGER

@<TRIPOS>ATOM
      1  N5       -77.9700   86.2350   93.1520 N.2   282  PMM282     -0.3831
      2  C6       -77.1880   86.4680   94.2300 C.2   282  PMM282      0.1442
      3  C7       -76.1560   85.5770   94.5260 C.3   282  PMM282      0.1939
      4  N8       -75.9380   84.4970   93.7520 N.2   282  PMM282     -0.1992
      5  N1       -76.5420   83.1690   91.8840 N.2   282  PMM282     -0.2672
      6  C2       -77.3370   82.9470   90.7960 C.1   282  PMM282      0.2609
      7  N2       -77.1130   81.8640   90.0190 N.pl3 282  PMM282     -0.0220
      8  N3       -78.3480   83.7820   90.4690 N.2   282  PMM282     -0.2466
      9  C4       -78.5930   84.8710   91.2040 C.1   282  PMM282      0.2569
     10  O4       -79.5090   85.6410   90.9120 O.2   282  PMM282     -0.2052
     11  C4A      -77.7510   85.1500   92.3840 C.2   282  PMM282      0.2989
     12  C8A      -76.7290   84.2580   92.6800 C.1   282  PMM282      0.1401
     13  C9       -77.4480   87.6900   95.0860 C.3   282  PMM282      0.2097
     14  O10      -77.2920   87.3960   96.4770 O.3   282  PMM282     -0.2628
     15  PA       -78.5050   86.9710   97.4660 P.3   282  PMM282      0.5330
     16  O1P      -79.3460   85.9300   96.7790 O.2   282  PMM282     -0.2224
     17  O2P      -77.7900   86.3780   98.6520 O.3   282  PMM282     -0.1145
     18  O3P      -79.1910   88.3070   97.6560 O.3   282  PMM282     -0.1145
@<TRIPOS>BOND
     1     7     6    1
     2     8     6    2
     3     8     9    2
     4     6     5    2
     5    10     9    2
     6     9    11    1
     7     5    12    2
     8    11    12    1
     9    11     1    2
    10    12     4    2
    11     1     2    2
    12     4     3    1
    13     2     3    1
    14     2    13    1
    15    13    14    1
    16    14    15    1
    17    16    15    2
    18    15    18    1
    19    15    17    1
