@<TRIPOS>MOLECULE
1tx0_PT1_A_1.pdb
 23 25 0 0 0
SMALL
GASTEIGER

@<TRIPOS>ATOM
      1  C2       -78.8440   84.8770   91.1920 C.1   283  PT1283      0.2569
      2  C3       -78.0620   85.1520   92.2960 C.2   283  PT1283      0.2988
      3  C5       -77.0110   84.2760   92.6130 C.1   283  PT1283      0.1401
      4  N6       -78.3180   86.2370   93.0660 N.2   283  PT1283     -0.3839
      5  C7       -77.5560   82.9460   90.7510 C.1   283  PT1283      0.2609
      6  N9       -76.7830   83.1840   91.8340 N.2   283  PT1283     -0.2672
      7  C10      -77.4970   86.4740   94.1380 C.2   283  PT1283      0.1356
      8  N11      -77.3170   81.8700   89.9830 N.pl3 283  PT1283     -0.0220
      9  C12      -76.4530   85.5950   94.4460 C.3   283  PT1283      0.1931
     10  C21      -80.6220   93.4980   95.4850 C.2   283  PT1283      0.3878
     11  O22      -80.6680   94.3640   94.5850 O.co2 283  PT1283     -0.2406
     12  O1       -79.8320   85.6640   90.8910 O.2   283  PT1283     -0.2052
     13  N4       -78.6000   83.7790   90.4350 N.2   283  PT1283     -0.2466
     14  N8       -76.2200   84.5200   93.6870 N.2   283  PT1283     -0.1992
     15  C13      -77.7340   87.6350   95.0650 C.3   283  PT1283      0.1683
     16  N14      -77.3860   88.9410   94.5850 N.pl3 283  PT1283     -0.2303
     17  C15      -78.1810   90.0010   94.8850 C.ar  283  PT1283      0.0658
     18  C16      -78.9520   90.0760   96.0520 C.ar  283  PT1283      0.0163
     19  C17      -78.2160   91.0340   93.9580 C.ar  283  PT1283      0.0163
     20  C18      -79.7400   91.2100   96.2520 C.ar  283  PT1283      0.0079
     21  C19      -79.0080   92.1560   94.1580 C.ar  283  PT1283      0.0079
     22  C20      -79.7740   92.2550   95.3050 C.ar  283  PT1283      0.0799
     23  O23      -81.2710   93.6390   96.5340 O.co2 283  PT1283     -0.2406
@<TRIPOS>BOND
     1     8     5    1
     2    13     5    2
     3    13     1    2
     4     5     6    2
     5    12     1    2
     6     1     2    1
     7     6     3    2
     8     2     3    1
     9     2     4    2
    10     3    14    2
    11     4     7    2
    12    14     9    1
    13    19    21   ar
    14    19    17   ar
    15     7     9    1
    16     7    15    1
    17    21    22   ar
    18    11    10   ar
    19    16    17    1
    20    16    15    1
    21    17    18   ar
    22    22    10    1
    23    22    20   ar
    24    10    23   ar
    25    18    20   ar
