@<TRIPOS>MOLECULE
1tx2_680_A_1.pdb
 13 13 0 0 0
SMALL
GASTEIGER

@<TRIPOS>ATOM
      1  O3       -78.4680   87.1640   94.6490 O.2   502  680502     -0.1294
      2  N3       -79.1470   86.9510   93.6420 N.pl3 502  680502      0.0583
      3  O2       -80.0240   87.7390   93.5190 O.2   502  680502     -0.1294
      4  C2       -78.9180   85.9470   92.7140 C.3   502  680502      0.3504
      5  C1       -77.8910   84.9920   92.9390 C.2   502  680502      0.2348
      6  N2       -77.0860   85.0370   93.9970 N.pl3 502  680502     -0.2080
      7  C5       -76.0750   83.9990   94.2150 C.3   502  680502      0.1380
      8  N1       -77.6780   83.9980   92.0340 N.2   502  680502     -0.3096
      9  C4       -78.4280   83.9020   90.9330 C.1   502  680502      0.2526
     10  N5       -78.1600   82.9090   90.0840 N.pl3 502  680502     -0.0226
     11  N4       -79.4550   84.8030   90.6660 N.2   502  680502     -0.2518
     12  C3       -79.7010   85.7960   91.5610 C.1   502  680502      0.2277
     13  O1       -80.7090   86.6200   91.2510 O.2   502  680502     -0.2108
@<TRIPOS>BOND
     1    10     9    1
     2    11     9    2
     3    11    12    2
     4     9     8    2
     5    13    12    2
     6    12     4    1
     7     8     5    2
     8     4     5    1
     9     4     2    1
    10     5     6    1
    11     3     2    2
    12     2     1    2
    13     6     7    1
