@<TRIPOS>MOLECULE
1tx7_4CM_A_1.pdb
 13 13 0 0 0
SMALL
GASTEIGER

@<TRIPOS>ATOM
      1  C1        -1.5920   14.6610   50.8870 C.ar  247  4CM247      0.0975
      2  O1        -1.1280   10.8900   47.1070 O.3   247  4CM247     -0.1634
      3  C2        -1.8390   13.2410   50.9130 C.ar  247  4CM247      0.0082
      4  O2         0.2370   12.7330   46.1320 O.2   247  4CM247     -0.2825
      5  C3        -1.3640   12.4240   49.8530 C.ar  247  4CM247      0.0054
      6  N1        -1.8340   16.7550   52.0190 N.pl3 247  4CM247      0.2047
      7  N2        -2.7490   14.9590   53.0020 N.pl3 247  4CM247      0.2047
      8  C4        -0.6400   13.0160   48.7520 C.ar  247  4CM247      0.0563
      9  C5        -0.4020   14.4620   48.7240 C.ar  247  4CM247      0.0054
     10  C6        -0.8770   15.2620   49.7980 C.ar  247  4CM247      0.0082
     11  C7        -2.0790   15.4950   52.0130 C.2   247  4CM247      0.4766
     12  P1        -0.0360   11.9180   47.4190 P.3   247  4CM247      0.2749
     13  C8         1.5150   11.1200   48.0460 C.3   247  4CM247      0.1041
@<TRIPOS>BOND
     1     4    12    2
     2     2    12    1
     3    12    13    1
     4    12     8    1
     5     9     8   ar
     6     9    10   ar
     7     8     5   ar
     8    10     1   ar
     9     5     3   ar
    10     1     3   ar
    11     1    11    1
    12    11     6    2
    13    11     7    1
