@<TRIPOS>MOLECULE
1tx8_AM4_A_1.pdb
 13 13 0 0 0
SMALL
GASTEIGER

@<TRIPOS>ATOM
      1  C2        -1.4040   12.4200   50.1430 C.ar  302  AM4302      0.0181
      2  C3        -1.8370   13.3350   51.1420 C.ar  302  AM4302     -0.0001
      3  C4        -1.8040   14.7450   50.9080 C.ar  302  AM4302      0.0130
      4  C11       -2.2880   15.7200   52.0060 C.3   302  AM4302      0.2046
      5  N13       -1.4510   16.9130   52.1860 N.3   302  AM4302     -0.1071
      6  N12       -2.4160   15.0340   53.2750 N.3   302  AM4302     -0.1071
      7  C5        -1.3250   15.2200   49.6460 C.ar  302  AM4302     -0.0001
      8  C6        -0.8910   14.3050   48.6420 C.ar  302  AM4302      0.0181
      9  C1        -0.9300   12.9020   48.8880 C.ar  302  AM4302      0.1057
     10  S7        -0.3970   11.7390   47.6520 S.O2  302  AM4302      0.0104
     11  C10       -1.7930   10.6700   47.2020 C.3   302  AM4302      0.1816
     12  O9         0.0350   12.4400   46.4610 O.2   302  AM4302     -0.1686
     13  O8         0.7030   10.9460   48.1650 O.2   302  AM4302     -0.1686
@<TRIPOS>BOND
     1    12    10    2
     2    11    10    1
     3    10    13    2
     4    10     9    1
     5     8     9   ar
     6     8     7   ar
     7     9     1   ar
     8     7     3   ar
     9     1     2   ar
    10     3     2   ar
    11     3     4    1
    12     4     5    1
    13     4     6    1
