@<TRIPOS>MOLECULE
1txc_2AN_A_1.pdb
 21 23 0 0 0
SMALL
GASTEIGER

@<TRIPOS>ATOM
      1  C1         9.8430   22.8240   20.5390 C.ar  715  2AN715      0.0717
      2  C2        10.1920   23.3460   21.8730 C.ar  715  2AN715      0.0165
      3  C3        11.4570   23.1400   22.4790 C.ar  715  2AN715      0.0013
      4  C4        12.4630   22.3940   21.7720 C.ar  715  2AN715      0.0001
      5  C5        12.2090   21.8600   20.4830 C.ar  715  2AN715      0.0025
      6  C6        13.2790   21.1290   19.8490 C.ar  715  2AN715      0.0001
      7  C7        13.0800   20.5740   18.5630 C.ar  715  2AN715      0.0013
      8  C8        11.8250   20.7280   17.8850 C.ar  715  2AN715      0.0189
      9  N          8.5620   23.0900   20.0420 N.pl3 715  2AN715     -0.2124
     10  S          9.5330   21.4370   17.5190 S.3   715  2AN715      0.0421
     11  C9        10.6960   21.4380   18.4290 C.ar  715  2AN715      0.1135
     12  C10       10.8680   22.0470   19.7920 C.ar  715  2AN715      0.0329
     13  C11        7.2810   22.8640   20.6130 C.ar  715  2AN715      0.0705
     14  C12        6.1360   23.4630   19.9500 C.ar  715  2AN715      0.0165
     15  C13        4.7890   23.2710   20.4820 C.ar  715  2AN715      0.0013
     16  C14        4.5720   22.4850   21.6740 C.ar  715  2AN715      0.0001
     17  C15        5.6870   21.8930   22.3290 C.ar  715  2AN715      0.0013
     18  C16        7.0270   22.0680   21.8230 C.ar  715  2AN715      0.0165
     19  O1         9.0460   23.0470   17.1040 O.3   715  2AN715     -0.0650
     20  O2         9.9360   20.5270   16.0140 O.3   715  2AN715     -0.0650
     21  O3         8.1930   20.5940   18.3230 O.3   715  2AN715     -0.0650
@<TRIPOS>BOND
     1    20    10    1
     2    19    10    1
     3    10    21    1
     4    10    11    1
     5     8    11   ar
     6     8     7   ar
     7    11    12   ar
     8     7     6   ar
     9    12     5   ar
    10    12     1   ar
    11     6     5   ar
    12    14    15   ar
    13    14    13   ar
    14     9     1    1
    15     9    13    1
    16    15    16   ar
    17     5     4   ar
    18     1     2   ar
    19    13    18   ar
    20    16    17   ar
    21     4     3   ar
    22    18    17   ar
    23     2     3   ar
