@<TRIPOS>MOLECULE
1txf_GLU_A_1.pdb
 10 9 0 0 0
SMALL
GASTEIGER

@<TRIPOS>ATOM
      1  N         20.5150   -0.8510   10.8190 N.3   259  GLU259     -0.1208
      2  CA        21.6640   -1.7870   10.7210 C.3   259  GLU259      0.1949
      3  C         21.2110   -3.1880   10.3350 C.2   259  GLU259      0.3819
      4  O         22.0480   -4.1110   10.4270 O.co2 259  GLU259     -0.2441
      5  CB        22.4030   -1.8480   12.0530 C.3   259  GLU259      0.0424
      6  CG        23.1850   -0.5990   12.3960 C.3   259  GLU259      0.1161
      7  CD        24.3750   -0.3790   11.4830 C.2   259  GLU259      0.3649
      8  OE1       24.9450   -1.3820   10.9990 O.co2 259  GLU259     -0.2457
      9  OE2       24.7550    0.7950   11.2570 O.co2 259  GLU259     -0.2457
     10  OXT       20.0350   -3.3520    9.9480 O.co2 259  GLU259     -0.2441
@<TRIPOS>BOND
     1    10     3   ar
     2     3     4   ar
     3     3     2    1
     4     2     1    1
     5     2     5    1
     6     8     7   ar
     7     9     7   ar
     8     7     6    1
     9     5     6    1
