@<TRIPOS>MOLECULE
1txi_TX5_A_1.pdb
 29 31 0 0 0
SMALL
GASTEIGER

@<TRIPOS>ATOM
      1  O2        17.0870   17.9600   34.6980 O.3   500  TX5500     -0.2231
      2  C1        14.1330   17.8080   35.7190 C.3   500  TX5500      0.1546
      3  C2        14.8660   16.7110   34.7990 C.3   500  TX5500      0.0657
      4  C3        16.0250   17.3990   33.8640 C.3   500  TX5500      0.1546
      5  C4        15.3130   18.5410   32.9710 C.3   500  TX5500      0.0334
      6  C5        14.8270   19.6400   33.9420 C.3   500  TX5500      0.0094
      7  C6        14.5960   20.9540   33.6830 C.3   500  TX5500      0.0255
      8  C7        13.8660   22.0810   34.3810 C.2   500  TX5500     -0.0346
      9  C8        13.8090   23.2750   33.9090 C.2   500  TX5500     -0.0488
     10  C9        14.4400   23.8450   32.5700 C.3   500  TX5500      0.0217
     11  C10       13.5730   18.9000   34.7170 C.3   500  TX5500      0.0334
     12  C11       13.4400   24.6740   31.6600 C.3   500  TX5500      0.0043
     13  C12       12.5550   25.6900   32.4860 C.3   500  TX5500      0.0006
     14  C13       11.8590   25.0900   33.7810 C.3   500  TX5500      0.0035
     15  C14       13.0590   24.2270   34.7210 C.3   500  TX5500      0.0180
     16  C15       13.0510   24.7010   36.1760 C.3   500  TX5500      0.0040
     17  C16       11.6480   25.3010   36.3810 C.3   500  TX5500      0.0004
     18  C17       11.3280   26.0290   35.0380 C.3   500  TX5500      0.0013
     19  C18       10.8030   23.9310   33.3640 C.3   500  TX5500      0.0003
     20  C20        9.7220   26.3990   34.8390 C.3   500  TX5500      0.0130
     21  C21        9.5710   27.8050   35.5080 C.3   500  TX5500      0.0010
     22  C22        8.6300   25.4750   35.5930 C.3   500  TX5500      0.0761
     23  O1        13.1110   17.0740   36.4850 O.3   500  TX5500     -0.2231
     24  C23        7.2520   25.5230   35.0990 C.1   500  TX5500     -0.0887
     25  C24        6.1750   25.6020   34.7380 C.1   500  TX5500     -0.0622
     26  C25        4.8150   25.7700   34.3170 C.3   500  TX5500      0.1792
     27  C27        3.9170   24.5790   34.7400 C.3   500  TX5500      0.0465
     28  C26        4.7810   25.9540   32.7950 C.3   500  TX5500      0.0465
     29  O3         4.4020   26.9470   34.9810 O.3   500  TX5500     -0.2125
@<TRIPOS>BOND
     1    12    13    1
     2    12    10    1
     3    13    14    1
     4    10     9    1
     5    28    26    1
     6     5     4    1
     7     5     6    1
     8    19    14    1
     9     7     6    1
    10     7     8    1
    11    14    15    1
    12    14    18    1
    13     4     1    1
    14     4     3    1
    15     9     8    2
    16     9    15    1
    17     6    11    1
    18    26    25    1
    19    26    27    1
    20    26    29    1
    21    11     2    1
    22    15    16    1
    23    25    24    3
    24     3     2    1
    25    20    18    1
    26    20    21    1
    27    20    22    1
    28    18    17    1
    29    24    22    1
    30     2    23    1
    31    16    17    1
