@<TRIPOS>MOLECULE
1txz_APR_A_1.pdb
 36 39 0 0 0
SMALL
GASTEIGER

@<TRIPOS>ATOM
      1  N1        47.1600    5.6180   23.9550 N.2   285  APR285      0.0021
      2  C2        48.4190    5.1530   23.5940 C.3   285  APR285      0.5254
      3  N3        48.6950    4.2160   22.7120 N.2   285  APR285     -0.0055
      4  C4        47.5430    3.6950   22.1240 C.2   285  APR285      0.3518
      5  C5        46.2260    4.0390   22.3730 C.2   285  APR285      0.2526
      6  C6        46.0260    5.0730   23.3460 C.2   285  APR285      0.4393
      7  N6        44.8150    5.5270   23.7030 N.pl3 285  APR285      0.2180
      8  N7        45.3580    3.2860   21.5800 N.2   285  APR285     -0.2095
      9  C8        46.1530    2.4910   20.8650 C.3   285  APR285      0.3377
     10  N9        47.4810    2.7030   21.1580 N.pl3 285  APR285     -0.1439
     11  C1'       48.7020    2.0840   20.6260 C.3   285  APR285      0.3186
     12  C2'       48.5570    0.6370   20.2790 C.3   285  APR285      0.2570
     13  O2'       48.8180   -0.2010   21.4200 O.3   285  APR285     -0.2130
     14  C3'       49.5720    0.4090   19.1240 C.3   285  APR285      0.2184
     15  O3'       50.8880   -0.0380   19.4940 O.3   285  APR285     -0.2174
     16  O4'       49.0900    2.7360   19.4440 O.3   285  APR285     -0.3135
     17  C4'       49.6670    1.8030   18.4770 C.3   285  APR285      0.1821
     18  C5'       49.0530    1.9940   17.1010 C.3   285  APR285      0.1813
     19  O5'       48.0240    1.0390   16.7790 O.3   285  APR285     -0.3112
     20  PA        46.7980    1.5330   15.8540 P.3   285  APR285      0.2189
     21  O1A       46.1910    2.7590   16.3940 O.3   285  APR285     -0.4371
     22  O2A       45.7790    0.4800   15.7820 O.2   285  APR285     -0.5170
     23  O3A       47.4860    1.8090   14.4820 O.3   285  APR285     -0.2703
     24  PB        48.2980    0.8630   13.4260 P.3   285  APR285      0.2189
     25  O1B       48.8390    1.3280   12.1470 O.2   285  APR285     -0.5170
     26  O2B       48.1280   -0.6050   13.5970 O.3   285  APR285     -0.4371
     27  O5D       46.8280    0.8570   12.7640 O.3   285  APR285     -0.3112
     28  C5D       46.2110    2.0780   12.2530 C.3   285  APR285      0.1813
     29  O4D       44.0300    1.3120   12.8620 O.3   285  APR285     -0.3237
     30  O1D       42.5030    2.2310   14.3700 O.3   285  APR285     -0.1869
     31  C1D       42.8950    2.1330   12.9740 C.3   285  APR285      0.3023
     32  O2D       42.3160    4.3830   12.0390 O.3   285  APR285     -0.2148
     33  C2D       43.3600    3.4430   12.4160 C.3   285  APR285      0.2433
     34  O3D       43.1420    2.5750   10.1190 O.3   285  APR285     -0.2175
     35  C3D       44.0620    2.9430   11.1710 C.3   285  APR285      0.2168
     36  C4D       44.8290    1.7640   11.7420 C.3   285  APR285      0.1807
@<TRIPOS>BOND
     1    34    35    1
     2    35    36    1
     3    35    33    1
     4    36    28    1
     5    36    29    1
     6    32    33    1
     7    25    24    2
     8    28    27    1
     9    33    31    1
    10    27    24    1
    11    29    31    1
    12    31    30    1
    13    24    26    1
    14    24    23    1
    15    23    20    1
    16    22    20    2
    17    20    21    1
    18    20    19    1
    19    19    18    1
    20    18    17    1
    21    17    14    1
    22    17    16    1
    23    14    15    1
    24    14    12    1
    25    16    11    1
    26    12    11    1
    27    12    13    1
    28    11    10    1
    29     9    10    1
    30     9     8    1
    31    10     4    1
    32     8     5    2
    33     4     5    1
    34     4     3    2
    35     5     6    1
    36     3     2    1
    37     6     7    1
    38     6     1    2
    39     2     1    1
