@<TRIPOS>MOLECULE
1ty8_ADP_A_1.pdb
 27 29 0 0 0
SMALL
GASTEIGER

@<TRIPOS>ATOM
      1  PB        48.3480    0.0900   13.3280 P.3   285  ADP285      0.5373
      2  O1B       49.3990    0.7370   12.4960 O.3   285  ADP285     -0.1143
      3  O2B       47.0340   -0.2040   12.4620 O.2   285  ADP285     -0.2221
      4  O3B       48.8420   -1.1770   13.9260 O.3   285  ADP285     -0.1143
      5  PA        47.0330    0.9370   15.8100 P.3   285  ADP285      0.2231
      6  O1A       46.2280    2.1480   16.0100 O.3   285  ADP285     -0.4370
      7  O2A       46.1710   -0.2390   15.7980 O.2   285  ADP285     -0.5169
      8  O3A       47.8620    1.0880   14.4560 O.3   285  ADP285     -0.2261
      9  O5'       48.0320    0.8360   17.0120 O.3   285  ADP285     -0.3111
     10  C5'       49.4360    0.8730   16.9540 C.3   285  ADP285      0.1813
     11  C4'       49.9640    0.8110   18.4140 C.3   285  ADP285      0.1821
     12  O4'       49.3500    1.7870   19.2890 O.3   285  ADP285     -0.3135
     13  C3'       49.8640   -0.5350   19.1630 C.3   285  ADP285      0.2184
     14  O3'       51.1470   -0.9800   19.6090 O.3   285  ADP285     -0.2174
     15  C2'       48.8690   -0.3010   20.3230 C.3   285  ADP285      0.2570
     16  O2'       49.1300   -1.1250   21.4710 O.3   285  ADP285     -0.2130
     17  C1'       49.0110    1.1750   20.5520 C.3   285  ADP285      0.3186
     18  N9        47.8120    1.8850   21.1500 N.pl3 285  ADP285     -0.1439
     19  C8        46.5000    1.6860   20.8400 C.3   285  ADP285      0.3377
     20  N7        45.7540    2.4940   21.5750 N.2   285  ADP285     -0.2095
     21  C5        46.5300    3.2110   22.3490 C.2   285  ADP285      0.2526
     22  C6        46.3400    4.2140   23.3220 C.2   285  ADP285      0.4393
     23  N6        45.1050    4.6370   23.6290 N.pl3 285  ADP285      0.2180
     24  N1        47.4440    4.7770   23.9720 N.2   285  ADP285      0.0021
     25  C2        48.7300    4.3870   23.7020 C.3   285  ADP285      0.5254
     26  N3        48.9170    3.4240   22.7690 N.2   285  ADP285     -0.0055
     27  C4        47.8700    2.8210   22.0830 C.2   285  ADP285      0.3518
@<TRIPOS>BOND
     1     3     1    2
     2     2     1    1
     3     1     4    1
     4     1     8    1
     5     8     5    1
     6     7     5    2
     7     5     6    1
     8     5     9    1
     9    10     9    1
    10    10    11    1
    11    11    13    1
    12    11    12    1
    13    13    14    1
    14    13    15    1
    15    12    17    1
    16    15    17    1
    17    15    16    1
    18    17    18    1
    19    19    18    1
    20    19    20    1
    21    18    27    1
    22    20    21    2
    23    27    21    1
    24    27    26    2
    25    21    22    1
    26    26    25    1
    27    22    23    1
    28    22    24    2
    29    25    24    1
