@<TRIPOS>MOLECULE
1ty9_FMN_A_1.pdb
 31 33 0 0 0
SMALL
GASTEIGER

@<TRIPOS>ATOM
      1  N1        13.7840   -1.7360   71.8020 N.2   251  FMN251     -0.2887
      2  C2        14.4110   -2.9290   72.0860 C.1   251  FMN251      0.3669
      3  O2        13.8070   -3.7410   72.6920 O.2   251  FMN251     -0.1744
      4  N3        15.6980   -3.1690   71.6830 N.2   251  FMN251     -0.2300
      5  C4        16.4540   -2.2820   70.9720 C.1   251  FMN251      0.2513
      6  O4        17.5580   -2.6680   70.4950 O.2   251  FMN251     -0.2057
      7  C4A       15.8870   -1.0180   70.7090 C.2   251  FMN251      0.2706
      8  N5        16.5720   -0.0390   70.0410 N.2   251  FMN251     -0.3841
      9  C5A       15.9130    1.1240   69.7710 C.2   251  FMN251      0.1452
     10  C6        16.6200    2.1010   69.0750 C.2   251  FMN251      0.0252
     11  C7        16.0140    3.2790   68.7690 C.2   251  FMN251     -0.0375
     12  C7M       16.8700    4.2330   67.9530 C.3   251  FMN251      0.0268
     13  C8        14.6870    3.5380   69.1720 C.3   251  FMN251      0.0417
     14  C8M       13.8880    4.7080   68.6610 C.3   251  FMN251      0.0091
     15  C9        13.9540    2.5680   69.8470 C.2   251  FMN251     -0.0049
     16  C9A       14.5900    1.3670   70.1790 C.2   251  FMN251      0.0795
     17  N10       13.8980    0.4070   70.8850 N.pl3 251  FMN251     -0.2545
     18  C10       14.5160   -0.7940   71.0910 C.2   251  FMN251      0.2449
     19  C1'       12.4580    0.5470   71.1980 C.3   251  FMN251      0.1336
     20  C2'       11.5800   -0.1990   70.1180 C.3   251  FMN251      0.2048
     21  O2'       11.4490    0.6450   68.9370 O.3   251  FMN251     -0.2185
     22  C3'       10.1620   -0.4800   70.6250 C.3   251  FMN251      0.2165
     23  O3'        9.6530    0.7040   71.2300 O.3   251  FMN251     -0.2175
     24  C4'       10.1410   -1.5970   71.6850 C.3   251  FMN251      0.2147
     25  O4'       11.1640   -2.5410   71.3990 O.3   251  FMN251     -0.2176
     26  C5'        8.7590   -2.2180   71.6860 C.3   251  FMN251      0.1892
     27  O5'        8.4770   -2.6920   70.3590 O.3   251  FMN251     -0.2674
     28  P          7.2130   -3.6940   70.2080 P.3   251  FMN251      0.5327
     29  O1P        6.8900   -3.4820   68.7860 O.2   251  FMN251     -0.2224
     30  O2P        7.6280   -5.0950   70.4910 O.3   251  FMN251     -0.1145
     31  O3P        6.0680   -3.1640   71.0750 O.3   251  FMN251     -0.1145
@<TRIPOS>BOND
     1    12    11    1
     2    14    13    1
     3    11    10    2
     4    11    13    1
     5    29    28    2
     6    21    20    1
     7    10     9    1
     8    13    15    1
     9     9     8    2
    10     9    16    1
    11    15    16    2
    12     8     7    2
    13    20    22    1
    14    20    19    1
    15    16    17    1
    16    28    27    1
    17    28    30    1
    18    28    31    1
    19    27    26    1
    20     6     5    2
    21    22    23    1
    22    22    24    1
    23     7     5    1
    24     7    18    1
    25    17    18    1
    26    17    19    1
    27     5     4    2
    28    18     1    2
    29    25    24    1
    30     4     2    2
    31    24    26    1
    32     1     2    2
    33     2     3    2
