@<TRIPOS>MOLECULE
1tya_TYR_E_1.pdb
 13 13 0 0 0
SMALL
GASTEIGER

@<TRIPOS>ATOM
      1  N        -11.3030   13.5150   -3.9180 N.3   320  TYR320     -0.1205
      2  CA       -11.9720   14.6550   -4.5780 C.3   320  TYR320      0.1986
      3  C        -12.2300   14.2500   -6.0330 C.2   320  TYR320      0.3822
      4  O        -13.2130   14.7370   -6.6250 O.co2 320  TYR320     -0.2440
      5  CB       -11.0880   15.9000   -4.5220 C.3   320  TYR320      0.0569
      6  CG       -10.3980   16.2750   -3.2510 C.ar  320  TYR320     -0.0200
      7  CD1      -11.1020   16.2440   -2.0580 C.ar  320  TYR320     -0.0009
      8  CD2       -9.0590   16.6770   -3.1970 C.ar  320  TYR320     -0.0009
      9  CE1      -10.5180   16.6220   -0.8340 C.ar  320  TYR320      0.0417
     10  CE2       -8.4510   17.0210   -1.9940 C.ar  320  TYR320      0.0417
     11  CZ        -9.1790   16.9970   -0.8110 C.ar  320  TYR320      0.1957
     12  OH        -8.6220   17.3260    0.3880 O.3   320  TYR320     -0.2866
     13  OXT      -11.4310   13.4690   -6.5640 O.co2 320  TYR320     -0.2440
@<TRIPOS>BOND
     1     4     3   ar
     2    13     3   ar
     3     3     2    1
     4     2     5    1
     5     2     1    1
     6     5     6    1
     7     6     8   ar
     8     6     7   ar
     9     8    10   ar
    10     7     9   ar
    11    10    11   ar
    12     9    11   ar
    13    11    12    1
