@<TRIPOS>MOLECULE
1tyb_TYR_E_1.pdb
 13 13 0 0 0
SMALL
GASTEIGER

@<TRIPOS>ATOM
      1  N        -10.5220   13.6110   -4.3010 N.3   320  TYR320     -0.1205
      2  CA       -11.5660   14.5670   -4.6870 C.3   320  TYR320      0.1986
      3  C        -12.0570   14.2570   -6.1040 C.2   320  TYR320      0.3822
      4  O        -13.1320   14.8200   -6.4070 O.co2 320  TYR320     -0.2440
      5  CB       -11.0070   15.9850   -4.6250 C.3   320  TYR320      0.0569
      6  CG       -10.3340   16.3560   -3.3360 C.ar  320  TYR320     -0.0200
      7  CD1      -11.0620   16.2950   -2.1480 C.ar  320  TYR320     -0.0009
      8  CD2       -9.0140   16.7700   -3.2530 C.ar  320  TYR320     -0.0009
      9  CE1      -10.4990   16.6610   -0.9260 C.ar  320  TYR320      0.0417
     10  CE2       -8.4180   17.1110   -2.0410 C.ar  320  TYR320      0.0417
     11  CZ        -9.1740   17.0580   -0.8780 C.ar  320  TYR320      0.1957
     12  OH        -8.6190   17.3980    0.3230 O.3   320  TYR320     -0.2866
     13  OXT      -11.3990   13.5110   -6.8480 O.co2 320  TYR320     -0.2440
@<TRIPOS>BOND
     1    13     3   ar
     2     4     3   ar
     3     3     2    1
     4     2     5    1
     5     2     1    1
     6     5     6    1
     7     6     8   ar
     8     6     7   ar
     9     8    10   ar
    10     7     9   ar
    11    10    11   ar
    12     9    11   ar
    13    11    12    1
