@<TRIPOS>MOLECULE
1tyd_TYR_E_1.pdb
 13 13 0 0 0
SMALL
GASTEIGER

@<TRIPOS>ATOM
      1  N        -10.6360   13.6670   -4.2060 N.3   320  TYR320     -0.1205
      2  CA       -11.6650   14.6230   -4.6520 C.3   320  TYR320      0.1986
      3  C        -12.0560   14.3390   -6.1100 C.2   320  TYR320      0.3822
      4  O        -13.0990   14.9280   -6.4810 O.co2 320  TYR320     -0.2440
      5  CB       -11.1300   16.0530   -4.5530 C.3   320  TYR320      0.0569
      6  CG       -10.4260   16.3870   -3.2660 C.ar  320  TYR320     -0.0200
      7  CD1      -11.1690   16.4070   -2.0860 C.ar  320  TYR320     -0.0009
      8  CD2       -9.0660   16.6940   -3.1940 C.ar  320  TYR320     -0.0009
      9  CE1      -10.5810   16.7470   -0.8670 C.ar  320  TYR320      0.0417
     10  CE2       -8.4500   16.9990   -1.9830 C.ar  320  TYR320      0.0417
     11  CZ        -9.2110   17.0300   -0.8250 C.ar  320  TYR320      0.1957
     12  OH        -8.6520   17.3370    0.3770 O.3   320  TYR320     -0.2866
     13  OXT      -11.3430   13.5920   -6.8100 O.co2 320  TYR320     -0.2440
@<TRIPOS>BOND
     1    13     3   ar
     2     4     3   ar
     3     3     2    1
     4     2     5    1
     5     2     1    1
     6     5     6    1
     7     6     8   ar
     8     6     7   ar
     9     8    10   ar
    10     7     9   ar
    11    10    11   ar
    12     9    11   ar
    13    11    12    1
