@<TRIPOS>MOLECULE
1tyo_ENP_A_1.pdb
 32 35 0 0 0
SMALL
GASTEIGER

@<TRIPOS>ATOM
      1  P1       -61.1250  194.2720 -278.2520 P.3   1001  ENP1001     0.2204
      2  O1       -60.5380  194.1340 -276.8490 O.3   1001  ENP1001    -0.4371
      3  O2       -59.9990  194.1200 -279.2240 O.2   1001  ENP1001    -0.5170
      4  O5'      -61.6860  195.7640 -278.3370 O.3   1001  ENP1001    -0.3112
      5  C5'      -63.1040  196.0240 -278.6380 C.3   1001  ENP1001     0.1813
      6  C4'      -63.4200  196.8610 -279.9250 C.3   1001  ENP1001     0.1820
      7  O4'      -63.6960  198.2130 -279.5140 O.3   1001  ENP1001    -0.3136
      8  C3'      -62.2050  196.9440 -280.8450 C.3   1001  ENP1001     0.2157
      9  O3'      -62.6820  196.8970 -282.0980 O.3   1001  ENP1001    -0.2175
     10  C2'      -61.6820  198.3820 -280.7400 C.3   1001  ENP1001     0.2314
     11  O2'      -60.9500  198.8530 -281.9060 O.3   1001  ENP1001    -0.2630
     12  C1'      -62.7960  199.2290 -280.0550 C.3   1001  ENP1001     0.3158
     13  N9       -62.3520  200.2320 -279.0640 N.pl3 1001  ENP1001    -0.1441
     14  C8       -62.7320  201.5790 -279.0890 C.3   1001  ENP1001     0.3376
     15  N7       -62.1910  202.3450 -278.0490 N.2   1001  ENP1001    -0.2134
     16  C5       -61.4810  201.3680 -277.4510 C.2   1001  ENP1001     0.1959
     17  C6       -60.6620  201.5340 -276.2580 C.ar  1001  ENP1001     0.1719
     18  N6       -60.5260  202.7430 -275.6920 N.ar  1001  ENP1001    -0.2233
     19  N1       -60.0470  200.4110 -275.8150 N.ar  1001  ENP1001    -0.2632
     20  C2       -60.0970  199.1140 -276.3670 C.3   1001  ENP1001     0.3777
     21  N3       -60.8500  198.9470 -277.4650 N.2   1001  ENP1001    -0.0363
     22  C4       -61.5140  200.0900 -277.9740 C.2   1001  ENP1001     0.3444
     23  O3       -62.4680  193.4410 -278.6000 O.3   1001  ENP1001    -0.2513
     24  P2       -63.4020  192.7870 -279.7970 P.3   1001  ENP1001     0.3991
     25  O4       -63.3650  191.2490 -279.6980 O.3   1001  ENP1001    -0.1422
     26  O5       -63.1960  193.2460 -281.2480 O.3   1001  ENP1001    -0.1422
     27  P3       -59.3920  198.5600 -281.9770 P.3   1001  ENP1001     0.5328
     28  O7       -59.1880  197.2560 -282.6930 O.3   1001  ENP1001    -0.1145
     29  O8       -58.8050  199.7190 -282.7370 O.2   1001  ENP1001    -0.2224
     30  O9       -58.6860  198.4560 -280.6610 O.3   1001  ENP1001    -0.1145
     31  C1       -59.7400  202.2920 -274.6340 C.ar  1001  ENP1001     0.1193
     32  C9       -59.4070  200.9070 -274.7370 C.ar  1001  ENP1001     0.1015
@<TRIPOS>BOND
     1    29    27    2
     2    28    27    1
     3     9     8    1
     4    27    11    1
     5    27    30    1
     6    11    10    1
     7    26    24    1
     8     8    10    1
     9     8     6    1
    10    10    12    1
    11    12     7    1
    12    12    13    1
    13     6     7    1
    14     6     5    1
    15    24    25    1
    16    24    23    1
    17     3     1    2
    18    14    13    1
    19    14    15    1
    20    13    22    1
    21     5     4    1
    22    23     1    1
    23     4     1    1
    24     1     2    1
    25    15    16    2
    26    22    21    2
    27    22    16    1
    28    21    20    1
    29    16    17    1
    30    20    19    1
    31    17    19   ar
    32    17    18   ar
    33    19    32   ar
    34    18    31   ar
    35    32    31   ar
