@<TRIPOS>MOLECULE
1typ_SPD_A_1.pdb
 10 9 0 0 0
SMALL
GASTEIGER

@<TRIPOS>ATOM
      1  N1        86.2630   47.6480   -9.4470 N.3   496  SPD496     -0.1314
      2  C2        85.7940   48.7290  -10.3170 C.3   496  SPD496      0.1094
      3  C3        84.8320   49.6860   -9.6460 C.3   496  SPD496      0.0220
      4  C4        83.9590   48.9260   -8.6800 C.3   496  SPD496      0.0203
      5  C5        82.6680   49.6360   -8.2950 C.3   496  SPD496      0.0887
      6  N6        81.9300   49.7950   -9.5350 N.3   496  SPD496     -0.2180
      7  C7        80.7630   50.6830   -9.5270 C.3   496  SPD496      0.0902
      8  C8        80.0540   50.7740  -10.8810 C.3   496  SPD496      0.0393
      9  C9        81.1090   51.3000  -11.8730 C.3   496  SPD496      0.1108
     10  N10       81.7390   51.5550  -13.1700 N.3   496  SPD496     -0.1313
@<TRIPOS>BOND
     1    10     9    1
     2     9     8    1
     3     8     7    1
     4     2     3    1
     5     2     1    1
     6     3     4    1
     7     6     7    1
     8     6     5    1
     9     4     5    1
