@<TRIPOS>MOLECULE
1typ_GSH_A_1.pdb
 19 18 0 0 0
SMALL
GASTEIGER

@<TRIPOS>ATOM
      1  N1        81.1620   41.9970   -5.1300 N.3   495  GSH495     -0.1208
      2  CA1       82.5370   42.1580   -4.6800 C.3   495  GSH495      0.1948
      3  C1        83.0000   43.5600   -4.1900 C.2   495  GSH495      0.3819
      4  O11       84.1630   43.7150   -3.7610 O.co2 495  GSH495     -0.2441
      5  O12       82.1850   44.4850   -4.2230 O.co2 495  GSH495     -0.2441
      6  CB1       83.4960   41.6980   -5.7940 C.3   495  GSH495      0.0402
      7  CG1       83.0280   41.3290   -7.1960 C.3   495  GSH495      0.0889
      8  CD1       84.2800   41.2640   -8.0180 C.2   495  GSH495      0.2418
      9  OE1       85.2340   40.5970   -7.6040 O.2   495  GSH495     -0.2733
     10  N2        84.3540   41.9060   -9.1780 N.am  495  GSH495     -0.1968
     11  CA2       85.6020   41.8420   -9.9150 C.3   495  GSH495      0.1843
     12  C2        86.4130   43.1100   -9.8760 C.2   495  GSH495      0.2626
     13  O2        87.5050   43.1620  -10.4430 O.2   495  GSH495     -0.2714
     14  CB2       85.3550   41.4800  -11.3710 C.3   495  GSH495      0.0997
     15  SG2       84.6180   39.8520  -11.6700 S.3   495  GSH495     -0.0797
     16  N3        85.9370   44.1150   -9.1540 N.am  495  GSH495     -0.1954
     17  CA3       86.7310   45.3280   -9.0240 C.3   495  GSH495      0.1869
     18  C3        86.1390   46.3930   -9.8760 C.2   495  GSH495      0.2309
     19  O31       85.4000   46.0740  -10.8200 O.2   495  GSH495     -0.2863
@<TRIPOS>BOND
     1    15    14    1
     2    14    11    1
     3    19    18    2
     4    13    12    2
     5    11    12    1
     6    11    10    1
     7    18    17    1
     8    12    16   am
     9    10     8   am
    10    16    17    1
    11     8     9    2
    12     8     7    1
    13     7     6    1
    14     6     2    1
    15     1     2    1
    16     2     3    1
    17     5     3   ar
    18     3     4   ar
