@<TRIPOS>MOLECULE
1typ_NAP_A_1.pdb
 48 52 0 0 0
SMALL
GASTEIGER

@<TRIPOS>ATOM
      1  PA       102.7870   27.4730   -6.3580 P.3   494  NAP494      0.2189
      2  O1A      103.1720   26.4980   -5.2920 O.3   494  NAP494     -0.4371
      3  O2A      103.8560   28.2990   -6.9880 O.2   494  NAP494     -0.5170
      4  O5B      101.9190   26.6960   -7.4440 O.3   494  NAP494     -0.3112
      5  C5B      102.6730   25.9650   -8.4160 C.3   494  NAP494      0.1813
      6  C4B      102.4470   24.4850   -8.3920 C.3   494  NAP494      0.1820
      7  O4B      103.4640   23.8630   -9.1930 O.3   494  NAP494     -0.3136
      8  C3B      102.7860   23.8440   -7.0810 C.3   494  NAP494      0.2157
      9  O3B      102.4230   22.4830   -7.0980 O.3   494  NAP494     -0.2175
     10  C2B      104.2950   23.9390   -7.0680 C.3   494  NAP494      0.2314
     11  O2B      104.7900   22.8900   -6.2580 O.3   494  NAP494     -0.2630
     12  C1B      104.6150   23.4700   -8.4310 C.3   494  NAP494      0.3158
     13  N9A      105.8360   24.0810   -8.8900 N.pl3 494  NAP494     -0.1439
     14  C8A      106.2760   25.3610   -8.6810 C.3   494  NAP494      0.3377
     15  N7A      107.4090   25.6280   -9.2570 N.2   494  NAP494     -0.2095
     16  C5A      107.7590   24.4170   -9.8450 C.2   494  NAP494      0.2526
     17  C6A      108.8290   24.0610  -10.6830 C.2   494  NAP494      0.4393
     18  N6A      109.7390   24.9510  -11.0580 N.pl3 494  NAP494      0.2180
     19  N1A      108.8850   22.7980  -11.1190 N.2   494  NAP494      0.0021
     20  C2A      107.7870   22.0600  -10.9890 C.3   494  NAP494      0.5254
     21  N3A      106.6550   22.3170  -10.3390 N.2   494  NAP494     -0.0055
     22  C4A      106.7640   23.4950   -9.6910 C.2   494  NAP494      0.3518
     23  O3       101.4760   28.3450   -6.1110 O.3   494  NAP494     -0.2703
     24  PN        99.9280   28.5060   -6.4720 P.3   494  NAP494      0.2189
     25  O1N       99.1730   27.4170   -5.8480 O.3   494  NAP494     -0.4371
     26  O2N       99.6040   28.8380   -7.8960 O.2   494  NAP494     -0.5170
     27  O5D       99.7500   29.7670   -5.5520 O.3   494  NAP494     -0.3112
     28  C5D      100.3490   31.0340   -5.9740 C.3   494  NAP494      0.1813
     29  C4D       99.1580   31.9530   -5.9220 C.3   494  NAP494      0.1799
     30  O4D       98.7160   32.6940   -4.8060 O.3   494  NAP494     -0.3327
     31  C3D       98.2020   32.0070   -7.1090 C.3   494  NAP494      0.2158
     32  O3D       98.5420   32.8200   -8.2440 O.3   494  NAP494     -0.2175
     33  C2D       97.1230   32.7840   -6.3630 C.3   494  NAP494      0.2309
     34  O2D       95.9830   33.0330   -7.1920 O.3   494  NAP494     -0.2158
     35  C1D       97.2760   32.4790   -4.8090 C.3   494  NAP494      0.2263
     36  N1N       96.8370   31.2170   -4.0740 N.pl3 494  NAP494     -0.2787
     37  C2N       95.5730   30.6830   -4.1470 C.3   494  NAP494      0.1244
     38  C3N       95.2660   29.5630   -3.5080 C.2   494  NAP494      0.0544
     39  C7N       93.8030   29.1240   -3.5250 C.2   494  NAP494      0.2818
     40  O7N       92.9130   29.8630   -3.9860 O.2   494  NAP494     -0.2670
     41  N7N       93.5120   28.0030   -2.8940 N.am  494  NAP494     -0.0839
     42  C4N       96.2150   28.9160   -2.7840 C.2   494  NAP494      0.0033
     43  C5N       97.4410   29.4590   -2.6110 C.2   494  NAP494      0.0157
     44  C6N       97.7170   30.6380   -3.2000 C.2   494  NAP494      0.0633
     45  P2B      105.3980   23.2270   -4.8290 P.3   494  NAP494      0.5328
     46  O1X      106.1190   21.9740   -4.5120 O.3   494  NAP494     -0.1145
     47  O2X      104.2480   23.4990   -3.9210 O.3   494  NAP494     -0.1145
     48  O3X      106.2260   24.4130   -5.1750 O.2   494  NAP494     -0.2224
@<TRIPOS>BOND
     1    19    20    1
     2    19    17    2
     3    18    17    1
     4    20    21    1
     5    17    16    1
     6    21    22    2
     7    16    22    1
     8    16    15    2
     9    22    13    1
    10    15    14    1
    11     7    12    1
    12     7     6    1
    13    13    14    1
    14    13    12    1
    15    12    10    1
    16     5     6    1
    17     5     4    1
    18     6     8    1
    19    32    31    1
    20    26    24    2
    21     4     1    1
    22    34    33    1
    23    31    33    1
    24    31    29    1
    25     9     8    1
    26     8    10    1
    27    10    11    1
    28     3     1    2
    29    24    23    1
    30    24    25    1
    31    24    27    1
    32    33    35    1
    33     1    23    1
    34     1     2    1
    35    11    45    1
    36    28    29    1
    37    28    27    1
    38    29    30    1
    39    48    45    2
    40    45    46    1
    41    45    47    1
    42    35    30    1
    43    35    36    1
    44    37    36    1
    45    37    38    1
    46    36    44    1
    47    40    39    2
    48    39    38    1
    49    39    41   am
    50    38    42    2
    51    44    43    2
    52    42    43    1
