@<TRIPOS>MOLECULE
1tyq_ATP_A_1.pdb
 31 33 0 0 0
SMALL
GASTEIGER

@<TRIPOS>ATOM
      1  PG        19.2980   14.6420   42.2070 P.3   1001  ATP1001     0.5373
      2  O1G       19.2410   13.4390   41.1390 O.2   1001  ATP1001    -0.2221
      3  O2G       19.5000   15.9890   41.3500 O.3   1001  ATP1001    -0.1143
      4  O3G       18.0780   14.6930   43.0410 O.3   1001  ATP1001    -0.1143
      5  PB        21.7510   15.5720   43.2520 P.3   1001  ATP1001     0.2277
      6  O1B       21.0610   16.8810   43.2230 O.2   1001  ATP1001    -0.5168
      7  O2B       22.5710   15.2320   44.4340 O.3   1001  ATP1001    -0.4368
      8  O3B       20.6440   14.4170   43.0640 O.3   1001  ATP1001    -0.2258
      9  PA        23.8460   16.4470   41.5980 P.3   1001  ATP1001     0.2189
     10  O1A       23.2900   17.4940   40.7130 O.2   1001  ATP1001    -0.5170
     11  O2A       24.5130   16.8620   42.8530 O.3   1001  ATP1001    -0.4371
     12  O3A       22.6550   15.4170   41.9280 O.3   1001  ATP1001    -0.2700
     13  O5'       24.8480   15.5210   40.7460 O.3   1001  ATP1001    -0.3112
     14  C5'       25.4170   14.3360   41.3070 C.3   1001  ATP1001     0.1813
     15  C4'       25.8510   13.4130   40.1670 C.3   1001  ATP1001     0.1821
     16  O4'       26.7420   14.1600   39.3190 O.3   1001  ATP1001    -0.3135
     17  C3'       26.6250   12.1920   40.6670 C.3   1001  ATP1001     0.2184
     18  O3'       26.2380   11.0430   39.9090 O.3   1001  ATP1001    -0.2174
     19  C2'       28.0690   12.5840   40.3570 C.3   1001  ATP1001     0.2570
     20  O2'       28.8550   11.4130   40.1320 O.3   1001  ATP1001    -0.2130
     21  C1'       27.8480   13.2950   39.0230 C.3   1001  ATP1001     0.3186
     22  N9        29.0270   14.0890   38.6040 N.pl3 1001  ATP1001    -0.1439
     23  C8        29.7120   14.9410   39.3640 C.3   1001  ATP1001     0.3377
     24  N7        30.6920   15.4940   38.6500 N.2   1001  ATP1001    -0.2095
     25  C5        30.6320   14.9890   37.4230 C.2   1001  ATP1001     0.2526
     26  C6        31.3900   15.1780   36.2740 C.2   1001  ATP1001     0.4393
     27  N6        32.4210   16.0190   36.2730 N.pl3 1001  ATP1001     0.2180
     28  N1        31.0550   14.4590   35.1210 N.2   1001  ATP1001     0.0021
     29  C2        29.9700   13.5730   35.1550 C.3   1001  ATP1001     0.5254
     30  N3        29.2720   13.4200   36.2680 N.2   1001  ATP1001    -0.0055
     31  C4        29.5680   14.0930   37.3890 C.2   1001  ATP1001     0.3518
@<TRIPOS>BOND
     1    28    29    1
     2    28    26    2
     3    29    30    1
     4    30    31    2
     5    27    26    1
     6    26    25    1
     7    31    25    1
     8    31    22    1
     9    25    24    2
    10    22    21    1
    11    22    23    1
    12    24    23    1
    13    21    16    1
    14    21    19    1
    15    16    15    1
    16    18    17    1
    17    20    19    1
    18    15    17    1
    19    15    14    1
    20    19    17    1
    21    10     9    2
    22    13    14    1
    23    13     9    1
    24     2     1    2
    25     3     1    1
    26     9    12    1
    27     9    11    1
    28    12     5    1
    29     1     4    1
    30     1     8    1
    31     8     5    1
    32     6     5    2
    33     5     7    1
