@<TRIPOS>MOLECULE
1tyr_REA_A_1.pdb
 22 22 0 0 0
SMALL
GASTEIGER

@<TRIPOS>ATOM
      1  C1        21.6320   40.9420   42.5520 C.3   131  REA131      0.0149
      2  C2        21.6160   40.9500   44.0880 C.3   131  REA131      0.0041
      3  C3        22.2650   42.0700   44.7080 C.3   131  REA131      0.0046
      4  C4        21.6160   43.3970   44.3530 C.3   131  REA131      0.0214
      5  C5        21.4510   43.5440   42.8560 C.2   131  REA131     -0.0515
      6  C6        21.4470   42.4440   42.0040 C.2   131  REA131     -0.0483
      7  C7        21.1250   42.5270   40.5460 C.3   131  REA131      0.0470
      8  C8        21.9750   42.9860   39.4160 C.2   131  REA131     -0.0260
      9  C9        21.7050   43.1330   38.0130 C.2   131  REA131     -0.0258
     10  C10       22.7280   43.6220   37.2580 C.2   131  REA131     -0.0046
     11  C11       22.7150   43.9030   35.8360 C.2   131  REA131     -0.0010
     12  C12       23.7520   44.5170   35.2050 C.2   131  REA131     -0.0080
     13  C13       24.9420   45.0230   35.8750 C.2   131  REA131     -0.0327
     14  C14       25.9120   45.6190   35.1360 C.3   131  REA131      0.1361
     15  C15       26.7430   44.8600   34.2130 C.2   131  REA131      0.3689
     16  C16       20.4910   40.0110   42.0750 C.3   131  REA131      0.0040
     17  C17       22.9680   40.3680   42.0660 C.3   131  REA131      0.0040
     18  C18       21.4200   45.0200   42.4520 C.3   131  REA131      0.0257
     19  C19       20.2840   42.8050   37.5130 C.3   131  REA131      0.0307
     20  C20       24.9410   45.0620   37.4510 C.3   131  REA131      0.0269
     21  O1        27.8180   45.4320   33.4780 O.co2 131  REA131     -0.2453
     22  O2        26.9240   43.5970   33.6670 O.co2 131  REA131     -0.2453
@<TRIPOS>BOND
     1    21    15   ar
     2    22    15   ar
     3    15    14    1
     4    14    13    1
     5    12    11    1
     6    12    13    2
     7    11    10    2
     8    13    20    1
     9    10     9    1
    10    19     9    1
    11     9     8    2
    12     8     7    1
    13     7     6    1
    14     6     1    1
    15     6     5    2
    16    17     1    1
    17    16     1    1
    18    18     5    1
    19     1     2    1
    20     5     4    1
    21     2     3    1
    22     4     3    1
