@<TRIPOS>MOLECULE
1tys_DHF_A_1.pdb
 32 34 0 0 0
SMALL
GASTEIGER

@<TRIPOS>ATOM
      1  N1        29.8780  -19.5830   35.2300 N.2   566  DHF566     -0.2672
      2  C2        28.5790  -19.5330   34.9120 C.1   566  DHF566      0.2609
      3  NA2       28.1540  -19.9400   33.7130 N.pl3 566  DHF566     -0.0220
      4  N3        27.6710  -19.2170   35.8320 N.2   566  DHF566     -0.2466
      5  C4        28.0400  -19.0020   37.1030 C.1   566  DHF566      0.2569
      6  O4        27.1150  -18.5340   38.0020 O.2   566  DHF566     -0.2052
      7  C4A       29.3830  -19.0620   37.4600 C.2   566  DHF566      0.2988
      8  N5        29.8120  -18.7410   38.6640 N.2   566  DHF566     -0.3839
      9  C6        31.0660  -19.0360   39.0470 C.2   566  DHF566      0.1356
     10  C7        32.0810  -19.3320   38.0590 C.3   566  DHF566      0.1931
     11  N8        31.5920  -19.0720   36.6980 N.2   566  DHF566     -0.1992
     12  C8A       30.3000  -19.3200   36.4540 C.1   566  DHF566      0.1401
     13  C9        31.4340  -19.0870   40.4770 C.3   566  DHF566      0.1683
     14  N10       30.2440  -19.2100   41.3500 N.pl3 566  DHF566     -0.2303
     15  C11       27.9460  -22.6670   41.1900 C.ar  566  DHF566      0.0551
     16  C12       27.5100  -21.5570   41.9130 C.ar  566  DHF566      0.0059
     17  C13       28.2930  -20.4130   41.9620 C.ar  566  DHF566      0.0162
     18  C14       29.5130  -20.3650   41.2890 C.ar  566  DHF566      0.0658
     19  C15       29.9140  -21.5010   40.5590 C.ar  566  DHF566      0.0162
     20  C16       29.1420  -22.6390   40.4990 C.ar  566  DHF566      0.0059
     21  C         27.2120  -23.8980   41.2240 C.2   566  DHF566      0.2652
     22  O         27.4560  -24.8350   40.4640 O.2   566  DHF566     -0.2684
     23  N         26.2290  -23.9920   42.1110 N.am  566  DHF566     -0.1918
     24  CA        25.3990  -25.1970   42.1620 C.3   566  DHF566      0.1986
     25  CB        26.0800  -26.2510   43.0870 C.3   566  DHF566      0.0451
     26  CG        26.6490  -25.7610   44.4210 C.3   566  DHF566      0.1164
     27  CD        27.6170  -26.7360   45.0990 C.2   566  DHF566      0.3649
     28  OE1       28.7660  -26.8980   44.6710 O.co2 566  DHF566     -0.2457
     29  OE2       27.2430  -27.3310   46.1080 O.co2 566  DHF566     -0.2457
     30  CT        23.9840  -24.8850   42.6170 C.2   566  DHF566      0.3842
     31  O1        23.1310  -25.7300   42.3790 O.co2 566  DHF566     -0.2437
     32  O2        23.7110  -23.8010   43.1350 O.co2 566  DHF566     -0.2437
@<TRIPOS>BOND
     1     3     2    1
     2     2     1    2
     3     2     4    2
     4     1    12    2
     5     4     5    2
     6    12    11    2
     7    12     7    1
     8    11    10    1
     9     5     7    1
    10     5     6    2
    11     7     8    2
    12    10     9    1
    13     8     9    2
    14     9    13    1
    15    22    21    2
    16    13    14    1
    17    20    19   ar
    18    20    15   ar
    19    19    18   ar
    20    15    21    1
    21    15    16   ar
    22    21    23   am
    23    18    14    1
    24    18    17   ar
    25    16    17   ar
    26    23    24    1
    27    24    30    1
    28    24    25    1
    29    31    30   ar
    30    30    32   ar
    31    25    26    1
    32    26    27    1
    33    28    27   ar
    34    27    29   ar
