@<TRIPOS>MOLECULE
1tys_TMP_A_1.pdb
 21 22 0 0 0
SMALL
GASTEIGER

@<TRIPOS>ATOM
      1  P         31.2330  -13.9030   31.1510 P.3   565  TMP565      0.5327
      2  O1P       32.5300  -13.4540   31.6760 O.3   565  TMP565     -0.1145
      3  O2P       31.2950  -14.2760   29.6830 O.2   565  TMP565     -0.2224
      4  O3P       30.1550  -12.9350   31.3870 O.3   565  TMP565     -0.1145
      5  O5'       30.8500  -15.2290   31.8560 O.3   565  TMP565     -0.2675
      6  C5'       30.6320  -15.4000   33.3100 C.3   565  TMP565      0.1858
      7  C4'       29.3170  -16.1720   33.4410 C.3   565  TMP565      0.1774
      8  O4'       29.2020  -16.6020   34.8250 O.3   565  TMP565     -0.3339
      9  C3'       28.0490  -15.3470   33.1710 C.3   565  TMP565      0.1857
     10  O3'       27.0060  -16.2800   32.9330 O.3   565  TMP565     -0.2203
     11  C2'       27.7970  -14.6490   34.5100 C.3   565  TMP565      0.0874
     12  C1'       28.4440  -15.5990   35.5210 C.3   565  TMP565      0.2090
     13  N1        28.6700  -15.3910   36.9470 N.am  565  TMP565     -0.1794
     14  C2        27.6420  -15.0620   37.8160 C.1   565  TMP565      0.2844
     15  O2        26.4700  -14.9020   37.4600 O.2   565  TMP565     -0.1918
     16  N3        28.0510  -14.8930   39.1300 N.2   565  TMP565     -0.2455
     17  C4        29.3570  -15.0120   39.6000 C.1   565  TMP565      0.2134
     18  O4        29.6300  -14.7940   40.7770 O.2   565  TMP565     -0.2088
     19  C5        30.3580  -15.3550   38.6210 C.2   565  TMP565      0.0891
     20  C5M       31.7710  -15.4700   39.0080 C.3   565  TMP565      0.0462
     21  C6        29.9500  -15.5310   37.3060 C.2   565  TMP565      0.0877
@<TRIPOS>BOND
     1     3     1    2
     2     1     4    1
     3     1     2    1
     4     1     5    1
     5     5     6    1
     6    10     9    1
     7     9     7    1
     8     9    11    1
     9     6     7    1
    10     7     8    1
    11    11    12    1
    12     8    12    1
    13    12    13    1
    14    13    21    1
    15    13    14   am
    16    21    19    2
    17    15    14    2
    18    14    16    2
    19    19    20    1
    20    19    17    1
    21    16    17    2
    22    17    18    2
