@<TRIPOS>MOLECULE
1tyu_RAM_A_1.pdb
 11 11 0 0 0
SMALL
GASTEIGER

@<TRIPOS>ATOM
      1  C1        75.7430   60.3100   96.7180 C.3     8  RAM8        0.3023
      2  C2        76.9640   59.4010   96.8200 C.3     8  RAM8        0.2434
      3  C3        76.6530   57.9720   96.3790 C.3     8  RAM8        0.2198
      4  C4        75.2790   57.5000   96.9350 C.3     8  RAM8        0.2118
      5  C5        74.7810   58.4410   97.9810 C.3     8  RAM8        0.1509
      6  C6        73.4340   58.0220   98.5490 C.3     8  RAM8        0.0350
      7  O1        76.1290   61.4970   97.3190 O.3     8  RAM8       -0.1869
      8  O2        78.0290   59.9520   96.0470 O.3     8  RAM8       -0.2148
      9  O3        76.7210   57.7900   94.9860 O.3     8  RAM8       -0.2174
     10  O4        75.4000   56.2170   97.5370 O.3     8  RAM8       -0.2177
     11  O5        74.6180   59.7960   97.4490 O.3     8  RAM8       -0.3264
@<TRIPOS>BOND
     1     9     3    1
     2     8     2    1
     3     3     2    1
     4     3     4    1
     5     1     2    1
     6     1     7    1
     7     1    11    1
     8     4    10    1
     9     4     5    1
    10    11     5    1
    11     5     6    1
