@<TRIPOS>MOLECULE
1tyu_MAN_A_1.pdb
 11 11 0 0 0
SMALL
GASTEIGER

@<TRIPOS>ATOM
      1  C1        74.8010   55.1110   96.9160 C.3     6  MAN6        0.1777
      2  C2        74.6340   54.0640   97.9710 C.3     6  MAN6        0.2141
      3  C3        76.0030   53.6640   98.4980 C.3     6  MAN6        0.2173
      4  C4        76.8450   53.1470   97.3160 C.3     6  MAN6        0.2142
      5  C5        76.9020   54.2070   96.1940 C.3     6  MAN6        0.1810
      6  C6        77.5840   53.6620   94.9440 C.3     6  MAN6        0.2141
      7  O2        73.9530   52.9090   97.4750 O.3     6  MAN6       -0.2176
      8  O3        75.8520   52.5880   99.4740 O.3     6  MAN6       -0.2175
      9  O4        78.1680   52.8360   97.7860 O.3     6  MAN6       -0.2176
     10  O5        75.5630   54.5890   95.8360 O.3     6  MAN6       -0.3481
     11  O6        77.7680   54.6470   93.9500 O.3     6  MAN6       -0.2176
@<TRIPOS>BOND
     1    11     6    1
     2     6     5    1
     3    10     5    1
     4    10     1    1
     5     5     4    1
     6     1     2    1
     7     4     9    1
     8     4     3    1
     9     7     2    1
    10     2     3    1
    11     3     8    1
