@<TRIPOS>MOLECULE
1tyu_GLA_A_1.pdb
 11 11 0 0 0
SMALL
GASTEIGER

@<TRIPOS>ATOM
      1  C1        72.9360   45.1310   89.4410 C.3     1  GLA1        0.1777
      2  C2        73.0460   44.2630   88.2050 C.3     1  GLA1        0.2141
      3  C3        72.8340   42.8000   88.5830 C.3     1  GLA1        0.2173
      4  C4        73.8350   42.3940   89.6860 C.3     1  GLA1        0.2142
      5  C5        73.6820   43.3530   90.8730 C.3     1  GLA1        0.1810
      6  C6        74.6610   43.1020   92.0020 C.3     1  GLA1        0.2141
      7  O2        72.0600   44.6640   87.2670 O.3     1  GLA1       -0.2176
      8  O3        73.0170   41.9910   87.4360 O.3     1  GLA1       -0.2175
      9  O4        75.1800   42.4310   89.1830 O.3     1  GLA1       -0.2176
     10  O5        73.8670   44.7160   90.4370 O.3     1  GLA1       -0.3481
     11  O6        74.4620   41.8070   92.5560 O.3     1  GLA1       -0.2176
@<TRIPOS>BOND
     1     7     2    1
     2     8     3    1
     3     2     3    1
     4     2     1    1
     5     3     4    1
     6     9     4    1
     7     1    10    1
     8     4     5    1
     9    10     5    1
    10     5     6    1
    11     6    11    1
