@<TRIPOS>MOLECULE
1tyw_GLA_A_1.pdb
 11 11 0 0 0
SMALL
GASTEIGER

@<TRIPOS>ATOM
      1  C1        72.6690   44.9810   89.2780 C.3     1  GLA1        0.1777
      2  C2        72.5440   44.2180   87.9710 C.3     1  GLA1        0.2141
      3  C3        72.2400   42.7490   88.2620 C.3     1  GLA1        0.2173
      4  C4        73.3310   42.1670   89.1570 C.3     1  GLA1        0.2142
      5  C5        73.5480   43.0360   90.4230 C.3     1  GLA1        0.1810
      6  C6        74.7800   42.6220   91.2120 C.3     1  GLA1        0.2141
      7  O2        71.4950   44.7740   87.1990 O.3     1  GLA1       -0.2176
      8  O3        72.1960   42.0220   87.0420 O.3     1  GLA1       -0.2175
      9  O4        74.5450   42.0340   88.4150 O.3     1  GLA1       -0.2176
     10  O5        73.7170   44.4330   90.0800 O.3     1  GLA1       -0.3481
     11  O6        74.8000   41.2190   91.4390 O.3     1  GLA1       -0.2176
@<TRIPOS>BOND
     1     8     3    1
     2     7     2    1
     3     2     3    1
     4     2     1    1
     5     3     4    1
     6     9     4    1
     7     4     5    1
     8     1    10    1
     9    10     5    1
    10     5     6    1
    11     6    11    1
