@<TRIPOS>MOLECULE
1tyw_MAN_A_1.pdb
 11 11 0 0 0
SMALL
GASTEIGER

@<TRIPOS>ATOM
      1  C1        74.8000   55.0830   96.8680 C.3     6  MAN6        0.1777
      2  C2        74.6230   54.0160   97.9340 C.3     6  MAN6        0.2141
      3  C3        75.9890   53.6180   98.4720 C.3     6  MAN6        0.2173
      4  C4        76.8830   53.1340   97.3390 C.3     6  MAN6        0.2142
      5  C5        76.9820   54.1970   96.2240 C.3     6  MAN6        0.1810
      6  C6        77.6860   53.6290   94.9860 C.3     6  MAN6        0.2141
      7  O2        73.9610   52.8660   97.3950 O.3     6  MAN6       -0.2176
      8  O3        75.8440   52.5730   99.4510 O.3     6  MAN6       -0.2175
      9  O4        78.1750   52.8420   97.8570 O.3     6  MAN6       -0.2176
     10  O5        75.6520   54.6200   95.8120 O.3     6  MAN6       -0.3481
     11  O6        77.8590   54.6020   93.9640 O.3     6  MAN6       -0.2176
@<TRIPOS>BOND
     1    11     6    1
     2     6     5    1
     3    10     5    1
     4    10     1    1
     5     5     4    1
     6     1     2    1
     7     4     9    1
     8     4     3    1
     9     7     2    1
    10     2     3    1
    11     3     8    1
