@<TRIPOS>MOLECULE
1tyw_RAM_A_1.pdb
 10 10 0 0 0
SMALL
GASTEIGER

@<TRIPOS>ATOM
      1  C1        72.9470   48.3250   96.5280 C.3     4  RAM4        0.1776
      2  C2        72.2480   46.9920   96.7920 C.3     4  RAM4        0.2141
      3  C3        71.3920   46.6190   95.5760 C.3     4  RAM4        0.2172
      4  C4        72.2330   46.6530   94.2930 C.3     4  RAM4        0.2116
      5  C5        73.0610   47.9360   94.1540 C.3     4  RAM4        0.1483
      6  C6        74.0910   47.8240   93.0430 C.3     4  RAM4        0.0349
      7  O2        73.2170   45.9810   97.0300 O.3     4  RAM4       -0.2176
      8  O3        70.8370   45.3190   95.7430 O.3     4  RAM4       -0.2175
      9  O4        71.3460   46.5880   93.1760 O.3     4  RAM4       -0.2177
     10  O5        73.7770   48.2190   95.3710 O.3     4  RAM4       -0.3508
@<TRIPOS>BOND
     1     6     5    1
     2     9     4    1
     3     5     4    1
     4     5    10    1
     5     4     3    1
     6    10     1    1
     7     3     8    1
     8     3     2    1
     9     1     2    1
    10     2     7    1
