@<TRIPOS>MOLECULE
1tyw_GLC_A_1.pdb
 11 11 0 0 0
SMALL
GASTEIGER

@<TRIPOS>ATOM
      1  C1        69.7910   50.1430   94.6550 C.3     9  GLC9        0.1777
      2  C2        69.3780   50.2430   93.1760 C.3     9  GLC9        0.2141
      3  C3        68.3550   51.3650   93.0040 C.3     9  GLC9        0.2173
      4  C4        67.1690   51.1480   93.9520 C.3     9  GLC9        0.2142
      5  C5        67.7080   51.0110   95.3910 C.3     9  GLC9        0.1810
      6  C6        66.6830   50.8060   96.4950 C.3     9  GLC9        0.2141
      7  O2        70.5070   50.4860   92.3500 O.3     9  GLC9       -0.2176
      8  O3        67.9090   51.4070   91.6610 O.3     9  GLC9       -0.2175
      9  O4        66.2890   52.2560   93.8600 O.3     9  GLC9       -0.2176
     10  O5        68.6380   49.9140   95.4460 O.3     9  GLC9       -0.3481
     11  O6        67.2710   50.9510   97.7870 O.3     9  GLC9       -0.2176
@<TRIPOS>BOND
     1     8     3    1
     2     7     2    1
     3     3     2    1
     4     3     4    1
     5     2     1    1
     6     9     4    1
     7     4     5    1
     8     1    10    1
     9     5    10    1
    10     5     6    1
    11     6    11    1
