@<TRIPOS>MOLECULE
1tyx_RAM_A_1.pdb
 11 11 0 0 0
SMALL
GASTEIGER

@<TRIPOS>ATOM
      1  C1        75.7900   60.4370   96.6740 C.3     8  RAM8        0.3023
      2  C2        76.9570   59.4290   96.8280 C.3     8  RAM8        0.2434
      3  C3        76.6320   58.0040   96.3210 C.3     8  RAM8        0.2198
      4  C4        75.2490   57.5690   96.8030 C.3     8  RAM8        0.2118
      5  C5        74.6540   58.5980   97.7600 C.3     8  RAM8        0.1509
      6  C6        73.2750   58.1860   98.2750 C.3     8  RAM8        0.0350
      7  O1        76.0490   61.5390   97.4580 O.3     8  RAM8       -0.1869
      8  O2        78.1180   59.9240   96.1660 O.3     8  RAM8       -0.2148
      9  O3        76.7180   57.9070   94.9090 O.3     8  RAM8       -0.2174
     10  O4        75.3770   56.3300   97.4900 O.3     8  RAM8       -0.2177
     11  O5        74.5180   59.8730   97.0800 O.3     8  RAM8       -0.3264
@<TRIPOS>BOND
     1     9     3    1
     2     8     2    1
     3     3     4    1
     4     3     2    1
     5     1     2    1
     6     1    11    1
     7     1     7    1
     8     4    10    1
     9     4     5    1
    10    11     5    1
    11     5     6    1
