@<TRIPOS>MOLECULE
1tyx_MAN_A_1.pdb
 11 11 0 0 0
SMALL
GASTEIGER

@<TRIPOS>ATOM
      1  C1        74.8460   55.2010   96.8750 C.3     6  MAN6        0.1777
      2  C2        74.7060   54.1420   97.9610 C.3     6  MAN6        0.2141
      3  C3        76.0840   53.7650   98.4710 C.3     6  MAN6        0.2173
      4  C4        76.9440   53.2840   97.3120 C.3     6  MAN6        0.2142
      5  C5        76.9970   54.3220   96.1830 C.3     6  MAN6        0.1810
      6  C6        77.6720   53.7350   94.9410 C.3     6  MAN6        0.2141
      7  O2        74.0520   52.9740   97.4440 O.3     6  MAN6       -0.2176
      8  O3        75.9540   52.7040   99.4350 O.3     6  MAN6       -0.2175
      9  O4        78.2600   52.9930   97.7750 O.3     6  MAN6       -0.2176
     10  O5        75.6590   54.7290   95.8000 O.3     6  MAN6       -0.3481
     11  O6        77.8530   54.6960   93.9190 O.3     6  MAN6       -0.2176
@<TRIPOS>BOND
     1    11     6    1
     2     6     5    1
     3    10     5    1
     4    10     1    1
     5     5     4    1
     6     1     2    1
     7     4     9    1
     8     4     3    1
     9     7     2    1
    10     2     3    1
    11     3     8    1
