@<TRIPOS>MOLECULE
1tyx_GLA_A_1.pdb
 11 11 0 0 0
SMALL
GASTEIGER

@<TRIPOS>ATOM
      1  C1        73.1630   45.2550   89.4420 C.3     1  GLA1        0.1777
      2  C2        73.1640   44.6490   88.0250 C.3     1  GLA1        0.2141
      3  C3        72.9270   43.1430   88.0810 C.3     1  GLA1        0.2173
      4  C4        73.9730   42.4950   88.9930 C.3     1  GLA1        0.2142
      5  C5        73.9080   43.1580   90.3710 C.3     1  GLA1        0.1810
      6  C6        74.9450   42.5990   91.3150 C.3     1  GLA1        0.2141
      7  O2        72.1330   45.2340   87.2550 O.3     1  GLA1       -0.2176
      8  O3        73.0270   42.6040   86.7790 O.3     1  GLA1       -0.2175
      9  O4        75.2830   42.6460   88.4410 O.3     1  GLA1       -0.2176
     10  O5        74.1300   44.5870   90.2550 O.3     1  GLA1       -0.3481
     11  O6        74.6370   42.9580   92.6480 O.3     1  GLA1       -0.2176
@<TRIPOS>BOND
     1     8     3    1
     2     7     2    1
     3     2     3    1
     4     2     1    1
     5     3     4    1
     6     9     4    1
     7     4     5    1
     8     1    10    1
     9    10     5    1
    10     5     6    1
    11     6    11    1
