@<TRIPOS>MOLECULE
1tyz_PLP_A_1.pdb
 15 15 0 0 0
SMALL
GASTEIGER

@<TRIPOS>ATOM
      1  N1        17.4330   20.0670  155.0400 N.ar  401  PLP401     -0.2452
      2  C2        17.2470   21.2320  154.3550 C.ar  401  PLP401      0.0978
      3  C2A       15.8280   21.5960  153.8780 C.3   401  PLP401      0.0555
      4  C3        18.3340   22.1090  154.0850 C.ar  401  PLP401      0.2049
      5  O3        18.1120   23.2850  153.3810 O.3   401  PLP401     -0.2857
      6  C4        19.6410   21.7540  154.5620 C.ar  401  PLP401      0.0182
      7  C4A       20.8410   22.6940  154.2860 C.3   401  PLP401      0.0342
      8  C5        19.7960   20.5070  155.3000 C.ar  401  PLP401      0.0261
      9  C6        18.6410   19.6950  155.5060 C.ar  401  PLP401      0.0965
     10  C5A       21.1170   20.0010  155.8860 C.3   401  PLP401      0.1815
     11  O4P       21.5830   20.9700  156.8590 O.3   401  PLP401     -0.2653
     12  P         23.1700   21.1990  157.1100 P.3   401  PLP401      0.5329
     13  O1P       23.7490   19.8610  157.5490 O.3   401  PLP401     -0.1145
     14  O2P       23.3670   22.2690  158.1420 O.3   401  PLP401     -0.1145
     15  O3P       23.8340   21.6530  155.8240 O.2   401  PLP401     -0.2224
@<TRIPOS>BOND
     1     5     4    1
     2     3     2    1
     3     4     2   ar
     4     4     6   ar
     5     7     6    1
     6     2     1   ar
     7     6     8   ar
     8     1     9   ar
     9     8     9   ar
    10     8    10    1
    11    15    12    2
    12    10    11    1
    13    11    12    1
    14    12    13    1
    15    12    14    1
