@<TRIPOS>MOLECULE
1tz2_PLP_A_1.pdb
 15 15 0 0 0
SMALL
GASTEIGER

@<TRIPOS>ATOM
      1  N1        16.8080   19.8620  155.5740 N.ar  401  PLP401     -0.2452
      2  C2        16.5610   20.9700  154.8480 C.ar  401  PLP401      0.0978
      3  C2A       15.1220   21.1760  154.3450 C.3   401  PLP401      0.0555
      4  C3        17.6140   21.9210  154.5620 C.ar  401  PLP401      0.2049
      5  O3        17.3510   23.0550  153.8190 O.3   401  PLP401     -0.2857
      6  C4        18.9440   21.6540  155.0820 C.ar  401  PLP401      0.0182
      7  C4A       20.1300   22.6500  154.8190 C.3   401  PLP401      0.0342
      8  C5        19.1390   20.4480  155.8570 C.ar  401  PLP401      0.0261
      9  C6        18.0270   19.5800  156.0710 C.ar  401  PLP401      0.0965
     10  C5A       20.4500   20.0340  156.4760 C.3   401  PLP401      0.1815
     11  O4P       20.8690   21.0500  157.4050 O.3   401  PLP401     -0.2653
     12  P         22.4500   21.2330  157.6650 P.3   401  PLP401      0.5329
     13  O1P       23.0980   21.6510  156.3620 O.2   401  PLP401     -0.2224
     14  O2P       22.6840   22.3210  158.6920 O.3   401  PLP401     -0.1145
     15  O3P       22.9980   19.8930  158.1280 O.3   401  PLP401     -0.1145
@<TRIPOS>BOND
     1     5     4    1
     2     3     2    1
     3     4     2   ar
     4     4     6   ar
     5     7     6    1
     6     2     1   ar
     7     6     8   ar
     8     1     9   ar
     9     8     9   ar
    10     8    10    1
    11    13    12    2
    12    10    11    1
    13    11    12    1
    14    12    15    1
    15    12    14    1
