@<TRIPOS>MOLECULE
1tz3_AIS_A_1.pdb
 15 16 0 0 0
SMALL
GASTEIGER

@<TRIPOS>ATOM
      1  O2'       19.4920  -16.5130  -12.3920 O.3   402  AIS402     -0.2155
      2  C2'       19.9590  -15.4760  -11.5240 C.3   402  AIS402      0.2337
      3  C3'       21.0270  -15.9850  -10.5550 C.3   402  AIS402      0.2162
      4  O3'       21.0300  -17.4140  -10.5690 O.3   402  AIS402     -0.2175
      5  C4'       20.5450  -15.4720   -9.1960 C.3   402  AIS402      0.1831
      6  C5'       21.7260  -14.9440   -8.3790 C.3   402  AIS402      0.2142
      7  O5'       21.2680  -14.4810   -7.1050 O.3   402  AIS402     -0.2176
      8  O4'       19.6630  -14.3910   -9.5340 O.3   402  AIS402     -0.3305
      9  C1'       18.8700  -14.9740  -10.5770 C.3   402  AIS402      0.2408
     10  N1        17.9210  -14.0280  -11.2110 N.ar  402  AIS402     -0.2702
     11  C2        18.0880  -12.7150  -11.3530 C.ar  402  AIS402      0.1814
     12  N3        17.0080  -12.2120  -11.9460 N.ar  402  AIS402     -0.2208
     13  C4        16.1540  -13.2050  -12.1830 C.ar  402  AIS402      0.1365
     14  C5        16.7280  -14.3130  -11.7270 C.ar  402  AIS402      0.1735
     15  N6        16.1790  -15.5240  -11.7770 N.pl3 402  AIS402     -0.1072
@<TRIPOS>BOND
     1     1     2    1
     2    13    12   ar
     3    13    14   ar
     4    12    11   ar
     5    15    14    1
     6    14    10   ar
     7     2     9    1
     8     2     3    1
     9    11    10   ar
    10    10     9    1
    11     9     8    1
    12     4     3    1
    13     3     5    1
    14     8     5    1
    15     5     6    1
    16     6     7    1
