@<TRIPOS>MOLECULE
1tz6_ACP_A_1.pdb
 31 33 0 0 0
SMALL
GASTEIGER

@<TRIPOS>ATOM
      1  PG        22.5470  -10.7060   -3.1120 P.3   401  ACP401      0.1295
      2  O1G       22.0090  -11.8970   -3.8090 O.3   401  ACP401     -0.3567
      3  O2G       21.5310  -10.1550   -1.9880 O.3   401  ACP401     -0.3567
      4  O3G       22.7970   -9.4790   -4.1260 O.2   401  ACP401     -0.4595
      5  PB        25.5140  -10.7850   -3.3880 P.3   401  ACP401      0.3815
      6  O1B       25.1340  -11.3960   -4.6810 O.2   401  ACP401     -0.2547
      7  O2B       25.9290   -9.3630   -3.3810 O.3   401  ACP401     -0.1391
      8  C3B       24.1170  -11.0020   -2.2590 C.3   401  ACP401      0.1768
      9  PA        27.8860  -11.0040   -1.9060 P.3   401  ACP401      0.2209
     10  O1A       28.7510  -10.3620   -2.9210 O.2   401  ACP401     -0.5170
     11  O2A       27.3660  -10.1650   -0.8040 O.3   401  ACP401     -0.4371
     12  O3A       26.6590  -11.6830   -2.6980 O.3   401  ACP401     -0.2483
     13  O5'       28.6410  -12.2780   -1.2780 O.3   401  ACP401     -0.3111
     14  C5'       27.9750  -13.0630   -0.2860 C.3   401  ACP401      0.1813
     15  C4'       28.9830  -13.9900    0.3950 C.3   401  ACP401      0.1821
     16  O4'       29.6270  -14.8890   -0.5240 O.3   401  ACP401     -0.3135
     17  C3'       30.1230  -13.1940    1.0290 C.3   401  ACP401      0.2184
     18  O3'       29.6890  -12.6660    2.2860 O.3   401  ACP401     -0.2174
     19  C2'       31.1010  -14.3450    1.2490 C.3   401  ACP401      0.2570
     20  O2'       30.6390  -15.2180    2.2830 O.3   401  ACP401     -0.2130
     21  C1'       30.9990  -15.0400   -0.1120 C.3   401  ACP401      0.3186
     22  N9        31.8550  -14.3330   -1.0930 N.pl3 401  ACP401     -0.1439
     23  C8        31.4660  -13.3840   -1.9410 C.3   401  ACP401      0.3377
     24  N7        32.5270  -12.9980   -2.6430 N.2   401  ACP401     -0.2095
     25  C5        33.5740  -13.7080   -2.2320 C.2   401  ACP401      0.2526
     26  C6        34.9030  -13.6940   -2.6320 C.2   401  ACP401      0.4393
     27  N6        35.3220  -12.8790   -3.5960 N.pl3 401  ACP401      0.2180
     28  N1        35.7760  -14.5750   -1.9920 N.2   401  ACP401      0.0021
     29  C2        35.3070  -15.4330   -0.9890 C.3   401  ACP401      0.5254
     30  N3        34.0190  -15.3660   -0.6840 N.2   401  ACP401     -0.0055
     31  C4        33.1570  -14.5340   -1.2750 C.2   401  ACP401      0.3518
@<TRIPOS>BOND
     1     6     5    2
     2     4     1    2
     3     2     1    1
     4    27    26    1
     5     5     7    1
     6     5    12    1
     7     5     8    1
     8     1     8    1
     9     1     3    1
    10    10     9    2
    11    12     9    1
    12    24    25    2
    13    24    23    1
    14    26    25    1
    15    26    28    2
    16    25    31    1
    17    28    29    1
    18    23    22    1
    19     9    13    1
    20     9    11    1
    21    13    14    1
    22    31    22    1
    23    31    30    2
    24    22    21    1
    25    29    30    1
    26    16    21    1
    27    16    15    1
    28    14    15    1
    29    21    19    1
    30    15    17    1
    31    17    19    1
    32    17    18    1
    33    19    20    1
