@<TRIPOS>MOLECULE
1tz6_AIS_A_1.pdb
 15 16 0 0 0
SMALL
GASTEIGER

@<TRIPOS>ATOM
      1  O2'       19.5090  -16.4990  -12.2230 O.3   402  AIS402     -0.2155
      2  C2'       20.1380  -15.4080  -11.5430 C.3   402  AIS402      0.2337
      3  C3'       21.2450  -15.8860  -10.5990 C.3   402  AIS402      0.2162
      4  O3'       21.2590  -17.3150  -10.5720 O.3   402  AIS402     -0.2175
      5  C4'       20.8020  -15.3370   -9.2410 C.3   402  AIS402      0.1831
      6  C5'       22.0020  -14.9100   -8.3950 C.3   402  AIS402      0.2142
      7  O5'       21.5350  -14.3650   -7.1570 O.3   402  AIS402     -0.2176
      8  O4'       20.0530  -14.1690   -9.6010 O.3   402  AIS402     -0.3305
      9  C1'       19.1690  -14.7090  -10.5910 C.3   402  AIS402      0.2408
     10  N1        18.3210  -13.6770  -11.2290 N.ar  402  AIS402     -0.2702
     11  C2        18.7090  -12.3890  -11.6110 C.ar  402  AIS402      0.1814
     12  N3        17.6280  -11.7690  -12.0500 N.ar  402  AIS402     -0.2208
     13  C4        16.5860  -12.5940  -11.9720 C.ar  402  AIS402      0.1365
     14  C5        17.0180  -13.7510  -11.4800 C.ar  402  AIS402      0.1735
     15  N6        16.2660  -14.8380  -11.3270 N.pl3 402  AIS402     -0.1072
@<TRIPOS>BOND
     1     1     2    1
     2    12    13   ar
     3    12    11   ar
     4    13    14   ar
     5    11    10   ar
     6     2     3    1
     7     2     9    1
     8    14    15    1
     9    14    10   ar
    10    10     9    1
    11     3     4    1
    12     3     5    1
    13     9     8    1
    14     8     5    1
    15     5     6    1
    16     6     7    1
