@<TRIPOS>MOLECULE
1tz8_DES_B_1.pdb
 20 21 0 0 0
SMALL
GASTEIGER

@<TRIPOS>ATOM
      1  CP9       15.8960   63.5110   37.0920 C.3   128  DES128      0.0050
      2  CP8       15.5990   62.2330   36.3390 C.3   128  DES128      0.0260
      3  CP7       16.7550   61.8740   35.4350 C.2   128  DES128     -0.0261
      4  CP6       18.1270   61.7880   36.0280 C.ar  128  DES128     -0.0041
      5  CP1       18.5620   60.5690   36.5240 C.ar  128  DES128      0.0030
      6  CP2       19.8120   60.4670   37.1070 C.ar  128  DES128      0.0420
      7  CP3       20.6290   61.5750   37.1920 C.ar  128  DES128      0.1957
      8  OP3       21.8580   61.4390   37.7810 O.3   128  DES128     -0.2866
      9  CP4       20.1980   62.8080   36.7100 C.ar  128  DES128      0.0420
     10  CP5       18.9360   62.9190   36.1260 C.ar  128  DES128      0.0030
     11  C7        16.5290   61.6470   34.1530 C.2   128  DES128     -0.0261
     12  C6        15.1150   61.7390   33.6570 C.ar  128  DES128     -0.0041
     13  C5        14.7630   62.4820   32.5310 C.ar  128  DES128      0.0030
     14  C4        13.4230   62.5160   32.1200 C.ar  128  DES128      0.0420
     15  C3        12.4470   61.8160   32.8340 C.ar  128  DES128      0.1957
     16  O3        11.1180   61.8350   32.4560 O.3   128  DES128     -0.2866
     17  C2        12.8100   61.0840   33.9530 C.ar  128  DES128      0.0420
     18  C1        14.1380   61.0480   34.3610 C.ar  128  DES128      0.0030
     19  C8        17.6740   61.2560   33.2420 C.3   128  DES128      0.0260
     20  C9        17.8200   59.7470   33.3270 C.3   128  DES128      0.0050
@<TRIPOS>BOND
     1    14    13   ar
     2    14    15   ar
     3    16    15    1
     4    13    12   ar
     5    15    17   ar
     6    19    20    1
     7    19    11    1
     8    12    11    1
     9    12    18   ar
    10    17    18   ar
    11    11     3    2
    12     3     4    1
    13     3     2    1
    14     4    10   ar
    15     4     5   ar
    16    10     9   ar
    17     2     1    1
    18     5     6   ar
    19     9     7   ar
    20     6     7   ar
    21     7     8    1
