@<TRIPOS>MOLECULE
1tzd_ADP_A_1.pdb
 27 29 0 0 0
SMALL
GASTEIGER

@<TRIPOS>ATOM
      1  PB        18.4090   29.9390  -12.9520 P.3     1  ADP1        0.5373
      2  O1B       18.5250   28.7440  -12.1440 O.3     1  ADP1       -0.1143
      3  O2B       18.4240   31.2400  -12.2370 O.3     1  ADP1       -0.1143
      4  O3B       17.1250   29.7350  -13.8570 O.2     1  ADP1       -0.2221
      5  PA        19.9190   28.6990  -15.0540 P.3     1  ADP1        0.2231
      6  O1A       20.9570   27.8470  -14.4830 O.3     1  ADP1       -0.4370
      7  O2A       18.6740   27.9940  -15.4410 O.2     1  ADP1       -0.5169
      8  O3A       19.5460   29.8700  -14.0200 O.3     1  ADP1       -0.2261
      9  O5'       20.4410   29.5470  -16.3030 O.3     1  ADP1       -0.3111
     10  C5'       19.4340   30.4000  -16.9140 C.3     1  ADP1        0.1813
     11  C4'       19.7650   30.7400  -18.3520 C.3     1  ADP1        0.1821
     12  O4'       21.1530   31.1990  -18.3710 O.3     1  ADP1       -0.3135
     13  C3'       19.7680   29.5860  -19.3360 C.3     1  ADP1        0.2184
     14  O3'       18.4900   29.2550  -19.8270 O.3     1  ADP1       -0.2174
     15  C2'       20.7780   30.0590  -20.3830 C.3     1  ADP1        0.2570
     16  O2'       20.2260   30.8780  -21.4010 O.3     1  ADP1       -0.2130
     17  C1'       21.8050   30.8000  -19.5830 C.3     1  ADP1        0.3186
     18  N9        23.0290   29.9930  -19.2170 N.pl3   1  ADP1       -0.1439
     19  C8        23.1060   29.2910  -18.0370 C.3     1  ADP1        0.3377
     20  N7        24.2280   28.6390  -17.8470 N.2     1  ADP1       -0.2095
     21  C5        24.9680   28.9090  -18.9640 C.2     1  ADP1        0.2526
     22  C6        26.2860   28.5100  -19.3870 C.2     1  ADP1        0.4393
     23  N6        27.0980   27.7100  -18.6610 N.pl3   1  ADP1        0.2180
     24  N1        26.7340   28.9790  -20.6040 N.2     1  ADP1        0.0021
     25  C2        25.9300   29.7960  -21.3670 C.3     1  ADP1        0.5254
     26  N3        24.6810   30.2300  -21.0660 N.2     1  ADP1       -0.0055
     27  C4        24.2440   29.7510  -19.8380 C.2     1  ADP1        0.3518
@<TRIPOS>BOND
     1    16    15    1
     2    25    26    1
     3    25    24    1
     4    26    27    2
     5    24    22    2
     6    15    17    1
     7    15    13    1
     8    27    18    1
     9    27    21    1
    10    14    13    1
    11    17    18    1
    12    17    12    1
    13    22    21    1
    14    22    23    1
    15    13    11    1
    16    18    19    1
    17    21    20    2
    18    12    11    1
    19    11    10    1
    20    19    20    1
    21    10     9    1
    22     9     5    1
    23     7     5    2
    24     5     6    1
    25     5     8    1
    26     8     1    1
    27     4     1    2
    28     1     3    1
    29     1     2    1
