@<TRIPOS>MOLECULE
1tzf_C5G_A_1.pdb
 36 38 0 0 0
SMALL
GASTEIGER

@<TRIPOS>ATOM
      1  N1        21.9350    3.1200   28.6420 N.am  401  C5G401     -0.1778
      2  C2        21.9390    1.9620   27.8880 C.1   401  C5G401      0.2756
      3  N3        22.2540    0.8340   28.5940 N.2   401  C5G401     -0.3024
      4  C4        22.5460    0.7330   29.9500 C.2   401  C5G401      0.2346
      5  C5        22.5040    1.9830   30.6380 C.2   401  C5G401      0.0687
      6  C6        22.2190    3.0870   29.9910 C.2   401  C5G401      0.0836
      7  O2        21.6740    1.9050   26.6850 O.2   401  C5G401     -0.1925
      8  N4        22.7960   -0.3670   30.4230 N.pl3 401  C5G401     -0.0921
      9  C1D       21.5950    4.3950   27.9980 C.3   401  C5G401      0.2400
     10  C2D       20.3930    5.0570   28.6520 C.3   401  C5G401      0.2319
     11  O2D       19.1520    4.6380   28.0770 O.3   401  C5G401     -0.2157
     12  C3D       20.6010    6.5710   28.4170 C.3   401  C5G401      0.2158
     13  C4D       22.1160    6.6370   28.3070 C.3   401  C5G401      0.1799
     14  O4D       22.6500    5.2880   28.1340 O.3   401  C5G401     -0.3320
     15  O3D       19.9330    7.0900   27.2710 O.3   401  C5G401     -0.2175
     16  C5D       22.7750    7.2270   29.5090 C.3   401  C5G401      0.1813
     17  O5D       22.4880    6.3640   30.6200 O.3   401  C5G401     -0.3112
     18  PA        22.4400    6.9850   32.1060 P.3   401  C5G401      0.2189
     19  O1A       21.8160    8.3320   32.2040 O.2   401  C5G401     -0.5170
     20  O2A       21.9120    6.0910   33.1510 O.3   401  C5G401     -0.4371
     21  O3A       24.0580    7.1200   32.3260 O.3   401  C5G401     -0.2703
     22  PB        24.8080    8.0690   33.2790 P.3   401  C5G401      0.2208
     23  O1B       24.7860    7.5680   34.6890 O.3   401  C5G401     -0.4371
     24  O2B       24.0740    9.3890   33.2350 O.2   401  C5G401     -0.5170
     25  O1'       26.3540    8.2210   32.7640 O.3   401  C5G401     -0.2857
     26  C1'       26.6020    8.3400   31.3750 C.3   401  C5G401      0.2742
     27  C2'       28.0760    8.0150   31.2640 C.3   401  C5G401      0.2409
     28  O2'       28.2710    6.7320   31.8870 O.3   401  C5G401     -0.2149
     29  C3'       28.9070    9.0850   32.0040 C.3   401  C5G401      0.2198
     30  O3'       30.3180    8.8920   31.8560 O.3   401  C5G401     -0.2174
     31  C4'       28.5740   10.4520   31.4610 C.3   401  C5G401      0.2144
     32  O4'       29.3740   11.4800   32.0400 O.3   401  C5G401     -0.2176
     33  C5'       27.0600   10.7150   31.6050 C.3   401  C5G401      0.1835
     34  C6'       26.6720   12.0070   30.9190 C.3   401  C5G401      0.2142
     35  O6'       25.2760   12.2570   31.1030 O.3   401  C5G401     -0.2176
     36  O5'       26.2820    9.6920   30.9350 O.3   401  C5G401     -0.3254
@<TRIPOS>BOND
     1     7     2    2
     2    15    12    1
     3     2     3    2
     4     2     1   am
     5     9    14    1
     6     9     1    1
     7     9    10    1
     8    11    10    1
     9    14    13    1
    10    13    12    1
    11    13    16    1
    12    12    10    1
    13     3     4    2
    14     1     6    1
    15    16    17    1
    16     4     8    1
    17     4     5    1
    18     6     5    2
    19    17    18    1
    20    34    35    1
    21    34    33    1
    22    36    26    1
    23    36    33    1
    24    27    26    1
    25    27    28    1
    26    27    29    1
    27    26    25    1
    28    31    33    1
    29    31    29    1
    30    31    32    1
    31    30    29    1
    32    18    19    2
    33    18    21    1
    34    18    20    1
    35    21    22    1
    36    25    22    1
    37    24    22    2
    38    22    23    1
