@<TRIPOS>MOLECULE
1tzj_PLP_A_1.pdb
 15 15 0 0 0
SMALL
GASTEIGER

@<TRIPOS>ATOM
      1  N1        17.5170   20.1020  154.9310 N.ar  401  PLP401     -0.2452
      2  C2        17.3220   21.2290  154.2190 C.ar  401  PLP401      0.0978
      3  C2A       15.8900   21.5100  153.7100 C.3   401  PLP401      0.0555
      4  C3        18.4130   22.1230  153.9540 C.ar  401  PLP401      0.2049
      5  O3        18.2330   23.2860  153.2220 O.3   401  PLP401     -0.2857
      6  C4        19.7060   21.7850  154.4750 C.ar  401  PLP401      0.0182
      7  C4A       20.8890   22.7390  154.2110 C.3   401  PLP401      0.0342
      8  C5        19.8540   20.5670  155.2390 C.ar  401  PLP401      0.0261
      9  C6        18.7110   19.7600  155.4310 C.ar  401  PLP401      0.0965
     10  C5A       21.1620   20.0760  155.8710 C.3   401  PLP401      0.1815
     11  O4P       21.6680   21.0800  156.7920 O.3   401  PLP401     -0.2653
     12  P         23.2530   21.3000  156.9720 P.3   401  PLP401      0.5329
     13  O1P       23.8670   21.7450  155.6690 O.2   401  PLP401     -0.2224
     14  O2P       23.4710   22.3860  157.9950 O.3   401  PLP401     -0.1145
     15  O3P       23.8580   19.9770  157.4030 O.3   401  PLP401     -0.1145
@<TRIPOS>BOND
     1     5     4    1
     2     3     2    1
     3     4     2   ar
     4     4     6   ar
     5     7     6    1
     6     2     1   ar
     7     6     8   ar
     8     1     9   ar
     9     8     9   ar
    10     8    10    1
    11    13    12    2
    12    10    11    1
    13    11    12    1
    14    12    15    1
    15    12    14    1
