@<TRIPOS>MOLECULE
1tzk_PLP_A_1.pdb
 15 15 0 0 0
SMALL
GASTEIGER

@<TRIPOS>ATOM
      1  N1        17.2070   20.0750  154.9180 N.ar  401  PLP401     -0.2452
      2  C2        16.9750   21.2060  154.2100 C.ar  401  PLP401      0.0978
      3  C2A       15.5320   21.4600  153.6940 C.3   401  PLP401      0.0555
      4  C3        18.0310   22.1260  153.9570 C.ar  401  PLP401      0.2049
      5  O3        17.8070   23.2790  153.2420 O.3   401  PLP401     -0.2857
      6  C4        19.3530   21.8200  154.4800 C.ar  401  PLP401      0.0182
      7  C4A       20.5020   22.8040  154.2170 C.3   401  PLP401      0.0342
      8  C5        19.5360   20.6010  155.2320 C.ar  401  PLP401      0.0261
      9  C6        18.4110   19.7600  155.4180 C.ar  401  PLP401      0.0965
     10  C5A       20.8480   20.1330  155.8580 C.3   401  PLP401      0.1815
     11  O4P       21.2970   21.1250  156.8100 O.3   401  PLP401     -0.2653
     12  P         22.8760   21.3520  157.0220 P.3   401  PLP401      0.5329
     13  O1P       23.4830   21.8200  155.7250 O.2   401  PLP401     -0.2224
     14  O2P       23.0860   22.4060  158.0810 O.3   401  PLP401     -0.1145
     15  O3P       23.4530   20.0050  157.4190 O.3   401  PLP401     -0.1145
@<TRIPOS>BOND
     1     5     4    1
     2     3     2    1
     3     4     2   ar
     4     4     6   ar
     5     2     1   ar
     6     7     6    1
     7     6     8   ar
     8     1     9   ar
     9     8     9   ar
    10     8    10    1
    11    13    12    2
    12    10    11    1
    13    11    12    1
    14    12    15    1
    15    12    14    1
