@<TRIPOS>MOLECULE
1tzm_PLP_A_1.pdb
 15 15 0 0 0
SMALL
GASTEIGER

@<TRIPOS>ATOM
      1  N1        17.5590   20.1780  154.8480 N.ar  401  PLP401     -0.2452
      2  C2        17.2930   21.2890  154.1300 C.ar  401  PLP401      0.0978
      3  C2A       15.8440   21.5250  153.6690 C.3   401  PLP401      0.0555
      4  C3        18.3390   22.2200  153.8090 C.ar  401  PLP401      0.2049
      5  O3        18.0800   23.3560  153.0750 O.3   401  PLP401     -0.2857
      6  C4        19.6610   21.9360  154.2760 C.ar  401  PLP401      0.0182
      7  C4A       20.7900   22.9270  153.9480 C.3   401  PLP401      0.0342
      8  C5        19.8840   20.7310  155.0440 C.ar  401  PLP401      0.0261
      9  C6        18.7920   19.8890  155.2980 C.ar  401  PLP401      0.0965
     10  C5A       21.2210   20.2970  155.6190 C.3   401  PLP401      0.1815
     11  O4P       21.6750   21.2750  156.5860 O.3   401  PLP401     -0.2653
     12  P         23.2520   21.4830  156.8180 P.3   401  PLP401      0.5329
     13  O1P       23.8960   21.8540  155.5150 O.2   401  PLP401     -0.2224
     14  O2P       23.4990   22.6050  157.7880 O.3   401  PLP401     -0.1145
     15  O3P       23.8300   20.1760  157.3150 O.3   401  PLP401     -0.1145
@<TRIPOS>BOND
     1     5     4    1
     2     3     2    1
     3     4     2   ar
     4     4     6   ar
     5     7     6    1
     6     2     1   ar
     7     6     8   ar
     8     1     9   ar
     9     8     9   ar
    10     8    10    1
    11    13    12    2
    12    10    11    1
    13    11    12    1
    14    12    15    1
    15    12    14    1
