@<TRIPOS>MOLECULE
1u08_PLP_A_1.pdb
 15 15 0 0 0
SMALL
GASTEIGER

@<TRIPOS>ATOM
      1  N1        15.1110   14.7030   16.1030 N.ar  400  PLP400     -0.2452
      2  C2        14.8590   16.0600   15.9130 C.ar  400  PLP400      0.0978
      3  C2A       15.5690   16.7150   14.7280 C.3   400  PLP400      0.0555
      4  C3        13.9930   16.6920   16.7910 C.ar  400  PLP400      0.2049
      5  O3        13.7810   18.0240   16.5650 O.3   400  PLP400     -0.2857
      6  C4        13.3810   16.0120   17.8660 C.ar  400  PLP400      0.0182
      7  C4A       12.4320   16.7170   18.8460 C.3   400  PLP400      0.0342
      8  C5        13.6340   14.6300   18.0580 C.ar  400  PLP400      0.0261
      9  C6        14.5090   14.0330   17.1530 C.ar  400  PLP400      0.0965
     10  C5A       13.0500   13.7620   19.1650 C.3   400  PLP400      0.1815
     11  O4P       12.0090   12.8790   18.8120 O.3   400  PLP400     -0.2653
     12  P         11.1240   12.1650   19.8880 P.3   400  PLP400      0.5329
     13  O1P       10.1990   11.3400   19.0610 O.2   400  PLP400     -0.2224
     14  O2P       10.3900   13.2300   20.6240 O.3   400  PLP400     -0.1145
     15  O3P       11.9740   11.3500   20.7600 O.3   400  PLP400     -0.1145
@<TRIPOS>BOND
     1     3     2    1
     2     2     1   ar
     3     2     4   ar
     4     1     9   ar
     5     5     4    1
     6     4     6   ar
     7     9     8   ar
     8     6     8   ar
     9     6     7    1
    10     8    10    1
    11    11    10    1
    12    11    12    1
    13    13    12    2
    14    12    14    1
    15    12    15    1
