@<TRIPOS>MOLECULE
1u0a_BGC_A_1.pdb
 12 12 0 0 0
SMALL
GASTEIGER

@<TRIPOS>ATOM
      1  C2        10.9400   62.5930  115.0190 C.3   4014  BGC4014     0.2434
      2  C3         9.6880   61.9290  115.5880 C.3   4014  BGC4014     0.2199
      3  C4         9.8970   60.4430  115.3500 C.3   4014  BGC4014     0.2144
      4  C5        11.1800   59.9280  116.0120 C.3   4014  BGC4014     0.1836
      5  C6        11.3650   58.4120  115.7960 C.3   4014  BGC4014     0.2142
      6  C1        12.2170   62.0610  115.6730 C.3   4014  BGC4014     0.3024
      7  O1        13.3600   62.5850  115.0400 O.3   4014  BGC4014    -0.1869
      8  O2        10.8770   64.0000  115.1900 O.3   4014  BGC4014    -0.2148
      9  O3         8.5410   62.3200  114.8650 O.3   4014  BGC4014    -0.2174
     10  O4         8.8070   59.6570  115.8030 O.3   4014  BGC4014    -0.2176
     11  O5        12.2950   60.6530  115.5300 O.3   4014  BGC4014    -0.3236
     12  O6        11.6910   58.0780  114.4620 O.3   4014  BGC4014    -0.2176
@<TRIPOS>BOND
     1    12     5    1
     2     9     2    1
     3     1     8    1
     4     1     2    1
     5     1     6    1
     6     7     6    1
     7     3     2    1
     8     3    10    1
     9     3     4    1
    10    11     6    1
    11    11     4    1
    12     5     4    1
