@<TRIPOS>MOLECULE
1u0f_G6P_A_1.pdb
 16 16 0 0 0
SMALL
GASTEIGER

@<TRIPOS>ATOM
      1  C1         5.3410    2.4730    1.0570 C.2   900  G6P900      0.3505
      2  C2         6.3740    1.6380    0.2730 C.3   900  G6P900      0.2823
      3  C3         7.5430    2.3110   -0.4450 C.3   900  G6P900      0.2270
      4  C4         7.5900    3.8430   -0.4080 C.3   900  G6P900      0.2275
      5  C5         6.6360    4.5800    0.5510 C.3   900  G6P900      0.2316
      6  C6         6.3460    6.0290    0.1790 C.3   900  G6P900      0.1999
      7  O1         5.0270    1.8890    2.3160 O.2   900  G6P900     -0.2472
      8  O2         7.0500    0.9290    1.2920 O.3   900  G6P900     -0.2082
      9  O3         7.6990    1.8030   -1.7580 O.3   900  G6P900     -0.2169
     10  O4         8.9170    4.3660   -0.4160 O.3   900  G6P900     -0.2163
     11  O5         5.4990    3.9200    1.1300 O.3   900  G6P900     -0.4451
     12  O6         5.2500    6.1370   -0.7090 O.3   900  G6P900     -0.2663
     13  P          4.9560    7.5960   -1.2890 P.3   900  G6P900      0.5327
     14  O1P        6.2750    8.1810   -1.9400 O.3   900  G6P900     -0.1145
     15  O2P        4.5010    8.5630   -0.1120 O.3   900  G6P900     -0.1145
     16  O3P        3.7850    7.4500   -2.3500 O.2   900  G6P900     -0.2224
@<TRIPOS>BOND
     1    16    13    2
     2    14    13    1
     3     9     3    1
     4    13    12    1
     5    13    15    1
     6    12     6    1
     7     3     4    1
     8     3     2    1
     9    10     4    1
    10     4     5    1
    11     6     5    1
    12     2     1    1
    13     2     8    1
    14     5    11    1
    15     1    11    1
    16     1     7    2
