@<TRIPOS>MOLECULE
1u0f_G6Q_A_1.pdb
 16 15 0 0 0
SMALL
GASTEIGER

@<TRIPOS>ATOM
      1  C1         9.3010    2.1640   -2.1160 C.3   901  G6Q901      0.2175
      2  C2         7.9150    1.7120   -1.6260 C.3   901  G6Q901      0.2175
      3  C3         7.4060    2.4420   -0.3690 C.3   901  G6Q901      0.2175
      4  C4         7.1740    3.9550   -0.5380 C.3   901  G6Q901      0.2174
      5  C5         6.6300    4.6250    0.7340 C.3   901  G6Q901      0.2147
      6  C6         6.2320    6.0660    0.4710 C.3   901  G6Q901      0.1892
      7  O1         9.5870    1.8090   -3.4570 O.3   901  G6Q901     -0.2175
      8  O2         6.9440    1.8120   -2.6630 O.3   901  G6Q901     -0.2175
      9  O3         8.2360    2.1850    0.7620 O.3   901  G6Q901     -0.2175
     10  O4         8.3600    4.6160   -0.9750 O.3   901  G6Q901     -0.2175
     11  O5         5.4570    3.9580    1.1710 O.3   901  G6Q901     -0.2176
     12  O6         5.5300    6.0870   -0.7710 O.3   901  G6Q901     -0.2674
     13  P          5.1120    7.4670   -1.4650 P.3   901  G6Q901      0.5327
     14  O1P        6.4170    7.9990   -1.9890 O.3   901  G6Q901     -0.1145
     15  O2P        4.5140    8.2820   -0.3390 O.3   901  G6Q901     -0.1145
     16  O3P        4.0990    7.0060   -2.4800 O.2   901  G6Q901     -0.2224
@<TRIPOS>BOND
     1     7     1    1
     2     8     2    1
     3    16    13    2
     4     1     2    1
     5    14    13    1
     6     2     3    1
     7    13    12    1
     8    13    15    1
     9    10     4    1
    10    12     6    1
    11     4     3    1
    12     4     5    1
    13     3     9    1
    14     6     5    1
    15     5    11    1
