@<TRIPOS>MOLECULE
1u0g_E4P_A_1.pdb
 12 11 0 0 0
SMALL
GASTEIGER

@<TRIPOS>ATOM
      1  C1         8.0180    2.4430   -0.0770 C.3   901  E4P901      0.2175
      2  O1         9.1930    2.5960    0.7100 O.3   901  E4P901     -0.2175
      3  C2         7.3640    3.7110   -0.5170 C.3   901  E4P901      0.2174
      4  O2         8.4140    4.4790   -1.0640 O.3   901  E4P901     -0.2175
      5  C3         6.7300    4.3930    0.6870 C.3   901  E4P901      0.2147
      6  O3         5.6200    3.6230    1.1180 O.3   901  E4P901     -0.2176
      7  C4         6.2260    5.7940    0.3300 C.3   901  E4P901      0.1892
      8  O4         5.2880    5.7220   -0.7420 O.3   901  E4P901     -0.2674
      9  P          4.8490    7.0110   -1.4150 P.3   901  E4P901      0.5327
     10  O1P        4.3190    7.9470   -0.3660 O.3   901  E4P901     -0.1145
     11  O2P        6.0170    7.6460   -2.1060 O.3   901  E4P901     -0.1145
     12  O3P        3.7500    6.6700   -2.3850 O.2   901  E4P901     -0.2224
@<TRIPOS>BOND
     1    12     9    2
     2    11     9    1
     3     9     8    1
     4     9    10    1
     5     4     3    1
     6     8     7    1
     7     3     1    1
     8     3     5    1
     9     1     2    1
    10     7     5    1
    11     5     6    1
