@<TRIPOS>MOLECULE
1u0h_GSP_C_1.pdb
 32 34 0 0 0
SMALL
GASTEIGER

@<TRIPOS>ATOM
      1  PG        23.2660    3.3140   29.1030 P.3   395  GSP395      0.4340
      2  O3B       22.4890    3.3190   27.6490 O.3   395  GSP395     -0.2405
      3  S1G       24.8940    4.1560   28.6990 S.3   395  GSP395      0.0416
      4  O2G       22.2180    3.9840   29.9190 O.3   395  GSP395     -0.1305
      5  O3G       23.7700    1.9410   29.4630 O.2   395  GSP395     -0.2423
      6  PB        20.9570    2.6700   27.4550 P.3   395  GSP395      0.2262
      7  O1B       21.2840    1.4560   26.7250 O.2   395  GSP395     -0.5168
      8  O2B       20.1240    2.4170   28.6620 O.3   395  GSP395     -0.4369
      9  PA        18.7980    4.4830   27.0970 P.3   395  GSP395      0.2189
     10  O1A       17.7210    3.4990   27.3910 O.2   395  GSP395     -0.5170
     11  O2A       19.2780    5.4830   28.1070 O.3   395  GSP395     -0.4371
     12  O3A       20.0730    3.7150   26.5680 O.3   395  GSP395     -0.2701
     13  O5'       18.2960    5.3510   25.8010 O.3   395  GSP395     -0.3112
     14  C5'       19.0700    6.4390   25.1980 C.3   395  GSP395      0.1813
     15  C4'       18.0690    7.3860   24.5630 C.3   395  GSP395      0.1799
     16  O4'       17.3490    6.7180   23.4570 O.3   395  GSP395     -0.3326
     17  C3'       16.9310    7.8260   25.5500 C.3   395  GSP395      0.2158
     18  O3'       16.8640    9.2780   25.4950 O.3   395  GSP395     -0.2175
     19  C2'       15.6090    7.1710   24.9610 C.3   395  GSP395      0.2310
     20  O2'       14.4620    8.0080   25.1400 O.3   395  GSP395     -0.2158
     21  C1'       15.9270    6.9910   23.4560 C.3   395  GSP395      0.2293
     22  N9        15.3170    5.7870   22.8190 N.pl3 395  GSP395     -0.2354
     23  C8        15.3400    4.4440   23.1180 C.3   395  GSP395      0.2246
     24  N7        14.6850    3.6650   22.3150 N.2   395  GSP395     -0.2322
     25  C5        14.1730    4.5650   21.3880 C.2   395  GSP395      0.2182
     26  C6        13.3500    4.2810   20.2310 C.1   395  GSP395      0.2372
     27  O6        13.0000    3.1390   19.9270 O.2   395  GSP395     -0.2069
     28  N1        13.0430    5.4740   19.5620 N.2   395  GSP395     -0.2485
     29  C2        13.4530    6.7680   19.9240 C.1   395  GSP395      0.2531
     30  N2        13.0910    7.8040   19.2020 N.pl3 395  GSP395     -0.0226
     31  N3        14.2330    7.0140   21.0130 N.2   395  GSP395     -0.3074
     32  C4        14.5530    5.8640   21.6950 C.2   395  GSP395      0.2300
@<TRIPOS>BOND
     1    30    29    1
     2    28    29    2
     3    28    26    2
     4    29    31    2
     5    27    26    2
     6    26    25    1
     7    31    32    2
     8    25    32    1
     9    25    24    2
    10    32    22    1
    11    24    23    1
    12    22    23    1
    13    22    21    1
    14    21    16    1
    15    21    19    1
    16    16    15    1
    17    15    14    1
    18    15    17    1
    19    19    20    1
    20    19    17    1
    21    14    13    1
    22    18    17    1
    23    13     9    1
    24    12     9    1
    25    12     6    1
    26     7     6    2
    27     9    10    2
    28     9    11    1
    29     6     2    1
    30     6     8    1
    31     2     1    1
    32     3     1    1
    33     1     5    2
    34     1     4    1
