@<TRIPOS>MOLECULE
1u0h_FOK_A_1.pdb
 29 31 0 0 0
SMALL
GASTEIGER

@<TRIPOS>ATOM
      1  C1        42.4620  -12.6830   52.1870 C.3   101  FOK101      0.1544
      2  O2        42.1240  -13.7540   51.2910 O.3   101  FOK101     -0.2231
      3  C2        43.4000  -13.2860   53.2560 C.3   101  FOK101      0.0330
      4  C3        44.7830  -13.5210   52.7010 C.3   101  FOK101      0.0027
      5  C4        45.5280  -12.3270   51.9830 C.3   101  FOK101      0.0027
      6  C5        44.6590  -11.8890   50.8690 C.3   101  FOK101      0.0390
      7  C6        45.3140  -10.7220   50.0050 C.3   101  FOK101      0.1942
      8  O3        45.6740   -9.5450   50.7400 O.3   101  FOK101     -0.2192
      9  C7        44.4210  -10.3390   48.8010 C.3   101  FOK101      0.2257
     10  O4        45.0220   -9.2360   48.0430 O.3   101  FOK101     -0.4470
     11  C8        42.9540   -9.9060   49.1430 C.3   101  FOK101      0.1599
     12  O1        42.3020   -9.8300   47.8360 O.3   101  FOK101     -0.3531
     13  C9        42.3140  -11.0990   50.0000 C.3   101  FOK101      0.1825
     14  O6        42.4010  -12.2420   49.1080 O.3   101  FOK101     -0.2204
     15  C10       43.1170  -11.4860   51.3640 C.3   101  FOK101      0.0612
     16  C11       40.7760  -10.7570   50.0920 C.3   101  FOK101      0.1848
     17  O7        40.0540  -10.7620   51.3300 O.3   101  FOK101     -0.2203
     18  C12       40.0320  -10.4950   48.7840 C.3   101  FOK101      0.0669
     19  C13       40.8320   -9.8720   47.6050 C.3   101  FOK101      0.1138
     20  C14       40.5950  -10.7600   46.4220 C.2   101  FOK101      0.0003
     21  C15       41.1910  -11.8010   46.0940 C.2   101  FOK101     -0.0025
     22  C16       40.2620   -8.5200   47.2840 C.3   101  FOK101      0.0343
     23  C17       42.9890   -8.4820   49.7700 C.3   101  FOK101      0.0361
     24  C18       46.8670  -12.9290   51.4730 C.3   101  FOK101      0.0001
     25  C19       45.9610  -11.2850   53.0620 C.3   101  FOK101      0.0001
     26  C20       43.0400  -10.3120   52.4160 C.3   101  FOK101      0.0052
     27  C21       45.9940   -9.5080   47.1270 C.2   101  FOK101      0.3176
     28  O5        45.9080  -10.4040   46.3110 O.2   101  FOK101     -0.2501
     29  C22       47.1680   -8.5420   47.2640 C.3   101  FOK101      0.1212
@<TRIPOS>BOND
     1    21    20    2
     2    28    27    2
     3    20    19    1
     4    27    29    1
     5    27    10    1
     6    22    19    1
     7    19    12    1
     8    19    18    1
     9    12    11    1
    10    10     9    1
    11    18    16    1
    12     9    11    1
    13     9     7    1
    14    14    13    1
    15    11    23    1
    16    11    13    1
    17    13    16    1
    18    13    15    1
    19     7     8    1
    20     7     6    1
    21    16    17    1
    22     6    15    1
    23     6     5    1
    24     2     1    1
    25    15     1    1
    26    15    26    1
    27    24     5    1
    28     5     4    1
    29     5    25    1
    30     1     3    1
    31     4     3    1
