@<TRIPOS>MOLECULE
1u0h_ONM_A_1.pdb
 42 45 0 0 0
SMALL
GASTEIGER

@<TRIPOS>ATOM
      1  CA7       66.8580  -14.4240   54.9170 C.3   100  ONM100      0.1355
      2  NA1       65.4120  -14.7320   54.7430 N.pl3 100  ONM100     -0.2355
      3  CA6       64.7860  -15.9480   54.8580 C.ar  100  ONM100      0.0716
      4  CA5       65.5510  -17.2200   55.2080 C.ar  100  ONM100      0.0163
      5  CA4       64.8440  -18.6490   55.3530 C.ar  100  ONM100      0.0013
      6  CA3       63.4210  -18.6220   55.1270 C.ar  100  ONM100      0.0003
      7  CA2       62.6900  -17.2810   54.7710 C.ar  100  ONM100      0.0077
      8  CA1       63.3740  -16.0280   54.6560 C.ar  100  ONM100      0.0904
      9  CA        62.4940  -14.7910   54.3010 C.2   100  ONM100      0.3425
     10  OA        63.0890  -13.5840   53.7090 O.2   100  ONM100     -0.2448
     11  O3'       61.1410  -14.8310   54.5560 O.3   100  ONM100     -0.4437
     12  C3'       60.1790  -13.7380   54.2840 C.3   100  ONM100      0.2329
     13  C2'       59.2500  -14.1810   53.1400 C.3   100  ONM100      0.2406
     14  O2'       59.9090  -15.0080   52.1700 O.3   100  ONM100     -0.2146
     15  C4'       59.1800  -13.4610   55.4610 C.3   100  ONM100      0.1895
     16  C5'       58.5110  -12.1060   55.8230 C.3   100  ONM100      0.1824
     17  O5'       58.6640  -10.9680   54.9710 O.3   100  ONM100     -0.3111
     18  PA        57.4030   -9.9320   54.7210 P.3   100  ONM100      0.2189
     19  O3A       57.9050   -9.1960   53.3450 O.2   100  ONM100     -0.5170
     20  O2A       56.1700  -10.7730   54.5040 O.3   100  ONM100     -0.4371
     21  O1A       57.5200   -8.7950   55.8940 O.3   100  ONM100     -0.2700
     22  PB        56.8660   -9.0140   57.3940 P.3   100  ONM100      0.2277
     23  O3B       55.8570  -10.3100   57.2820 O.2   100  ONM100     -0.5168
     24  O2B       55.8860   -7.9400   57.7520 O.3   100  ONM100     -0.4368
     25  O1B       57.8650   -9.4620   58.4590 O.3   100  ONM100     -0.2258
     26  PG        58.8200   -8.2330   58.6430 P.3   100  ONM100      0.5373
     27  O2G       60.3990   -8.4330   58.4690 O.2   100  ONM100     -0.2221
     28  O3G       58.2970   -6.7650   59.0560 O.3   100  ONM100     -0.1143
     29  O1G       58.5520   -8.3160   60.0990 O.3   100  ONM100     -0.1143
     30  O4'       58.1570  -14.4640   55.3030 O.3   100  ONM100     -0.3314
     31  C1'       58.2050  -14.9390   53.9240 C.3   100  ONM100      0.2305
     32  N9        56.8360  -15.0630   53.3440 N.pl3 100  ONM100     -0.2353
     33  C8        55.8720  -14.1460   53.1430 C.3   100  ONM100      0.2246
     34  N7        54.8260  -14.7160   52.5200 N.2   100  ONM100     -0.2322
     35  C5        55.1400  -15.9980   52.2910 C.2   100  ONM100      0.2182
     36  C4        56.4270  -16.2070   52.7980 C.2   100  ONM100      0.2300
     37  N3        57.0540  -17.4410   52.7080 N.2   100  ONM100     -0.3074
     38  C2        56.4630  -18.5270   52.1260 C.1   100  ONM100      0.2531
     39  N2        57.1040  -19.6850   52.0680 N.pl3 100  ONM100     -0.0226
     40  N1        55.1570  -18.3910   51.5970 N.2   100  ONM100     -0.2485
     41  C6        54.4970  -17.1280   51.6750 C.1   100  ONM100      0.2372
     42  O6        53.3660  -17.0690   51.1950 O.2   100  ONM100     -0.2069
@<TRIPOS>BOND
     1    42    41    2
     2    40    41    2
     3    40    38    2
     4    41    35    1
     5    39    38    1
     6    38    37    2
     7    14    13    1
     8    35    34    2
     9    35    36    1
    10    34    33    1
    11    37    36    2
    12    36    32    1
    13    13    31    1
    14    13    12    1
    15    33    32    1
    16    32    31    1
    17    19    18    2
    18    10     9    2
    19    31    30    1
    20    12    11    1
    21    12    15    1
    22     9    11    1
    23     9     8    1
    24    20    18    1
    25     8     7   ar
    26     8     3   ar
    27    18    17    1
    28    18    21    1
    29     2     3    1
    30     2     1    1
    31     7     6   ar
    32     3     4   ar
    33    17    16    1
    34     6     5   ar
    35     4     5   ar
    36    30    15    1
    37    15    16    1
    38    21    22    1
    39    23    22    2
    40    22    24    1
    41    22    25    1
    42    25    26    1
    43    27    26    2
    44    26    28    1
    45    26    29    1
