@<TRIPOS>MOLECULE
1u0j_ADP_A_1.pdb
 27 29 0 0 0
SMALL
GASTEIGER

@<TRIPOS>ATOM
      1  PB        60.6670   26.4830   16.2280 P.3   491  ADP491      0.5373
      2  O1B       61.9440   26.7360   16.9530 O.3   491  ADP491     -0.1143
      3  O2B       60.0920   25.1170   16.4620 O.2   491  ADP491     -0.2221
      4  O3B       59.6240   27.6390   16.4910 O.3   491  ADP491     -0.1143
      5  PA        60.5300   27.4920   13.5390 P.3   491  ADP491      0.2231
      6  O1A       61.4390   28.6600   13.2390 O.3   491  ADP491     -0.4370
      7  O2A       59.4900   26.8840   12.6480 O.2   491  ADP491     -0.5169
      8  O3A       61.0540   26.5240   14.6700 O.3   491  ADP491     -0.2261
      9  O5'       61.7040   26.8150   12.6440 O.3   491  ADP491     -0.3111
     10  C5'       61.7470   25.3780   12.2760 C.3   491  ADP491      0.1813
     11  C4'       62.1060   25.1140   10.8080 C.3   491  ADP491      0.1821
     12  O4'       61.0930   25.7100    9.9650 O.3   491  ADP491     -0.3135
     13  C3'       63.4410   25.7050   10.3170 C.3   491  ADP491      0.2184
     14  O3'       64.4300   24.6570   10.4170 O.3   491  ADP491     -0.2174
     15  C2'       63.1440   26.1840    8.8840 C.3   491  ADP491      0.2570
     16  O2'       63.5710   25.2630    7.8690 O.3   491  ADP491     -0.2130
     17  C1'       61.6200   26.3520    8.8100 C.3   491  ADP491      0.3186
     18  N9        61.2150   27.8070    8.8060 N.pl3 491  ADP491     -0.1439
     19  C8        60.6460   28.5030    9.8230 C.3   491  ADP491      0.3377
     20  N7        60.4000   29.7840    9.5140 N.2   491  ADP491     -0.2095
     21  C5        60.8360   29.9010    8.2380 C.2   491  ADP491      0.2526
     22  C6        60.8470   31.0360    7.3420 C.2   491  ADP491      0.4393
     23  N6        60.4120   32.2150    7.6190 N.pl3 491  ADP491      0.2180
     24  N1        61.3860   30.7630    6.0900 N.2   491  ADP491      0.0021
     25  C2        61.8750   29.5120    5.7200 C.3   491  ADP491      0.5254
     26  N3        61.8690   28.4530    6.5420 N.2   491  ADP491     -0.0055
     27  C4        61.3480   28.6910    7.7730 C.2   491  ADP491      0.3518
@<TRIPOS>BOND
     1    25    24    1
     2    25    26    1
     3    24    22    2
     4    26    27    2
     5    22    23    1
     6    22    21    1
     7    27    21    1
     8    27    18    1
     9    16    15    1
    10    21    20    2
    11    18    17    1
    12    18    19    1
    13    17    15    1
    14    17    12    1
    15    15    13    1
    16    20    19    1
    17    12    11    1
    18    13    14    1
    19    13    11    1
    20    11    10    1
    21    10     9    1
    22     9     5    1
    23     7     5    2
    24     6     5    1
    25     5     8    1
    26     8     1    1
    27     1     3    2
    28     1     4    1
    29     1     2    1
