@<TRIPOS>MOLECULE
1u0l_GDP_A_1.pdb
 28 30 0 0 0
SMALL
GASTEIGER

@<TRIPOS>ATOM
      1  PB        52.5190   58.5810   35.9620 P.3   299  GDP299      0.5373
      2  O1B       51.9330   59.8760   35.4890 O.3   299  GDP299     -0.1143
      3  O2B       54.0290   58.5030   35.7950 O.3   299  GDP299     -0.1143
      4  O3B       51.8460   57.3410   35.3330 O.2   299  GDP299     -0.2221
      5  O3A       52.2260   58.5090   37.6030 O.3   299  GDP299     -0.2261
      6  PA        51.5800   57.3590   38.4550 P.3   299  GDP299      0.2231
      7  O1A       52.4900   56.1770   38.5570 O.3   299  GDP299     -0.4370
      8  O2A       50.1830   57.0420   37.9370 O.2   299  GDP299     -0.5169
      9  O5'       51.3850   58.0450   39.9110 O.3   299  GDP299     -0.3111
     10  C5'       52.5400   58.4510   40.6510 C.3   299  GDP299      0.1813
     11  C4'       52.2790   58.3500   42.1230 C.3   299  GDP299      0.1799
     12  O4'       51.2270   59.2950   42.4280 O.3   299  GDP299     -0.3326
     13  C3'       51.8680   56.9410   42.6610 C.3   299  GDP299      0.2158
     14  O3'       52.7340   56.6720   43.8580 O.3   299  GDP299     -0.2175
     15  C2'       50.3960   57.0970   43.0640 C.3   299  GDP299      0.2310
     16  O2'       50.1650   56.3620   44.2600 O.3   299  GDP299     -0.2158
     17  C1'       50.2020   58.6590   43.1350 C.3   299  GDP299      0.2293
     18  N9        48.8490   59.2490   42.5430 N.pl3 299  GDP299     -0.2354
     19  C8        48.4270   59.1630   41.2520 C.3   299  GDP299      0.2246
     20  N7        47.2450   59.7910   41.0930 N.2   299  GDP299     -0.2322
     21  C5        46.9230   60.2940   42.3460 C.2   299  GDP299      0.2182
     22  C6        45.7920   61.0490   42.7780 C.1   299  GDP299      0.2372
     23  O6        44.8490   61.4190   42.0740 O.2   299  GDP299     -0.2069
     24  N1        45.8170   61.3790   44.1490 N.2   299  GDP299     -0.2485
     25  C2        46.8510   60.9960   44.9890 C.1   299  GDP299      0.2531
     26  N2        46.7730   61.3570   46.2820 N.pl3 299  GDP299     -0.0226
     27  N3        47.9250   60.2800   44.5690 N.2   299  GDP299     -0.3074
     28  C4        47.8920   59.9650   43.2510 C.2   299  GDP299      0.2300
@<TRIPOS>BOND
     1     4     1    2
     2     2     1    1
     3     3     1    1
     4     1     5    1
     5     5     6    1
     6     8     6    2
     7     6     7    1
     8     6     9    1
     9     9    10    1
    10    10    11    1
    11    20    19    1
    12    20    21    2
    13    19    18    1
    14    23    22    2
    15    11    12    1
    16    11    13    1
    17    21    22    1
    18    21    28    1
    19    12    17    1
    20    18    17    1
    21    18    28    1
    22    13    15    1
    23    13    14    1
    24    22    24    2
    25    15    17    1
    26    15    16    1
    27    28    27    2
    28    24    25    2
    29    27    25    2
    30    25    26    1
