@<TRIPOS>MOLECULE
1u0w_STL_A_1.pdb
 17 18 0 0 0
SMALL
GASTEIGER

@<TRIPOS>ATOM
      1  C1        24.1500   72.9930   -4.8350 C.ar  2000  STL2000     0.1989
      2  C2        23.0850   73.3700   -5.6970 C.ar  2000  STL2000     0.0840
      3  C3        22.0990   74.3220   -5.3110 C.ar  2000  STL2000     0.1989
      4  C4        22.2230   74.9260   -4.0260 C.ar  2000  STL2000     0.0422
      5  C5        23.2710   74.5820   -3.1200 C.ar  2000  STL2000     0.0064
      6  C6        24.2300   73.6140   -3.5570 C.ar  2000  STL2000     0.0422
      7  C7        23.4270   75.1640   -1.7670 C.2   2000  STL2000     0.0002
      8  C8        22.6350   76.1140   -1.1990 C.2   2000  STL2000     0.0000
      9  C9        22.6950   76.6220    0.1840 C.ar  2000  STL2000     0.0002
     10  C10       21.7640   77.6310    0.5570 C.ar  2000  STL2000     0.0033
     11  C11       21.7330   78.1520    1.8790 C.ar  2000  STL2000     0.0420
     12  C12       22.6150   77.6650    2.8880 C.ar  2000  STL2000     0.1957
     13  C13       23.5550   76.6590    2.5180 C.ar  2000  STL2000     0.0420
     14  C14       23.5910   76.1340    1.1970 C.ar  2000  STL2000     0.0033
     15  O1        22.5730   78.1520    4.1510 O.3   2000  STL2000    -0.2866
     16  O2        21.0660   74.6580   -6.1370 O.3   2000  STL2000    -0.2865
     17  O3        25.0720   72.0720   -5.2170 O.3   2000  STL2000    -0.2865
@<TRIPOS>BOND
     1    16     3    1
     2     2     3   ar
     3     2     1   ar
     4     3     4   ar
     5    17     1    1
     6     1     6   ar
     7     4     5   ar
     8     6     5   ar
     9     5     7    1
    10     7     8    2
    11     8     9    1
    12     9    10   ar
    13     9    14   ar
    14    10    11   ar
    15    14    13   ar
    16    11    12   ar
    17    13    12   ar
    18    12    15    1
