@<TRIPOS>MOLECULE
1u0x_HEM_A_1.pdb
 43 50 0 0 0
SMALL
GASTEIGER

@<TRIPOS>ATOM
      1 FE         10.7730   20.1680   36.5310 Fe    185  HEM185      0.0000
      2  CHA       11.2710   23.2150   34.9500 C.2   185  HEM185      0.0000
      3  CHB        7.4140   20.6160   36.1940 C.2   185  HEM185      0.0000
      4  CHC       10.2920   17.4750   38.4320 C.2   185  HEM185      0.0000
      5  CHD       14.1410   19.6510   36.5660 C.2   185  HEM185      0.0000
      6  NA         9.5890   21.6210   35.7020 N.ar  185  HEM185      0.0000
      7  C1A        9.9970   22.8190   35.1790 C.ar  185  HEM185      0.0000
      8  C2A        8.8360   23.6150   34.8900 C.ar  185  HEM185      0.0000
      9  C3A        7.7640   22.8710   35.2340 C.ar  185  HEM185      0.0000
     10  C4A        8.2170   21.6120   35.7450 C.ar  185  HEM185      0.0000
     11  CMA        6.2890   23.2800   35.0930 C.3   185  HEM185      0.0000
     12  CAA        8.8160   25.0310   34.2910 C.3   185  HEM185      0.0000
     13  CBA        8.7350   26.0500   35.4180 C.3   185  HEM185      0.0000
     14  CGA        8.6740   27.4790   34.9380 C.2   185  HEM185      0.0000
     15  O1A        9.4270   27.8670   34.0310 O.co2 185  HEM185      0.0000
     16  O2A        7.8730   28.2480   35.4620 O.co2 185  HEM185      0.0000
     17  NB         9.1370   19.2380   37.1850 N.2   185  HEM185      0.0000
     18  C1B        7.8300   19.5160   36.9040 C.2   185  HEM185      0.0000
     19  C2B        7.0100   18.5120   37.5070 C.2   185  HEM185      0.0000
     20  C3B        7.8160   17.6540   38.1210 C.2   185  HEM185      0.0000
     21  C4B        9.1700   18.0910   37.9330 C.2   185  HEM185      0.0000
     22  CMB        5.4760   18.5100   37.3620 C.3   185  HEM185      0.0000
     23  CAB        7.3110   16.4240   38.8690 C.2   185  HEM185      0.0000
     24  CBB        7.4460   16.2620   40.1640 C.2   185  HEM185      0.0000
     25  NC        12.0000   18.8430   37.3480 N.ar  185  HEM185      0.0000
     26  C1C       11.5890   17.7780   38.0920 C.ar  185  HEM185      0.0000
     27  C2C       12.7340   17.0270   38.4760 C.ar  185  HEM185      0.0000
     28  C3C       13.8060   17.5960   37.9440 C.ar  185  HEM185      0.0000
     29  C4C       13.3740   18.7650   37.2330 C.ar  185  HEM185      0.0000
     30  CMC       12.6980   15.7700   39.3400 C.3   185  HEM185      0.0000
     31  CAC       15.2460   17.1210   38.0980 C.2   185  HEM185      0.0000
     32  CBC       16.2550   17.9130   37.8260 C.2   185  HEM185      0.0000
     33  ND        12.3630   21.2070   35.8780 N.2   185  HEM185      0.0000
     34  C1D       13.6870   20.8010   35.9970 C.2   185  HEM185      0.0000
     35  C2D       14.5760   21.7620   35.3820 C.2   185  HEM185      0.0000
     36  C3D       13.7070   22.8640   34.9000 C.2   185  HEM185      0.0000
     37  C4D       12.3600   22.4290   35.2310 C.2   185  HEM185      0.0000
     38  CMD       16.1210   21.7300   35.2400 C.3   185  HEM185      0.0000
     39  CAD       14.1540   24.1170   34.1440 C.3   185  HEM185      0.0000
     40  CBD       13.7820   23.8860   32.6730 C.3   185  HEM185      0.0000
     41  CGD       14.3230   24.9980   31.8140 C.2   185  HEM185      0.0000
     42  O1D       15.2230   24.6980   30.9760 O.co2 185  HEM185      0.0000
     43  O2D       13.8660   26.1490   31.9660 O.co2 185  HEM185      0.0000
@<TRIPOS>BOND
     1    42    41   ar
     2    41    43   ar
     3    41    40    1
     4    40    39    1
     5    15    14   ar
     6    39    36    1
     7    12     8    1
     8    12    13    1
     9     8     7   ar
    10     8     9   ar
    11    36    37    1
    12    36    35    2
    13    14    13    1
    14    14    16   ar
    15     2     7    2
    16     2    37    1
    17    11     9    1
    18     7     6   ar
    19    37    33    2
    20     9    10   ar
    21    38    35    1
    22    35    34    1
    23     6    10   ar
    24     6     1    1
    25    10     3    2
    26    33    34    1
    27    33     1    1
    28    34     5    2
    29     3    18    1
    30     1    17    1
    31     1    25    1
    32     5    29    1
    33    18    17    2
    34    18    19    1
    35    17    21    1
    36    29    25   ar
    37    29    28   ar
    38    25    26   ar
    39    22    19    1
    40    19    20    2
    41    32    31    2
    42    21    20    1
    43    21     4    2
    44    28    31    1
    45    28    27   ar
    46    26     4    1
    47    26    27   ar
    48    20    23    1
    49    27    30    1
    50    23    24    2
