@<TRIPOS>MOLECULE
1u0y_PA7_A_1.pdb
 23 25 0 0 0
SMALL
GASTEIGER

@<TRIPOS>ATOM
      1  C5'       26.6380   14.6810   22.0110 C.2   338  PA7338      0.2714
      2  O5'       27.7790   15.4080   22.3970 O.2   338  PA7338     -0.2706
      3  N5'       26.6660   13.2550   21.9770 N.am  338  PA7338     -0.2033
      4  C51       26.9600   12.6140   20.7220 C.3   338  PA7338      0.1152
      5  C52       27.7490   11.3540   20.9970 C.3   338  PA7338      0.0234
      6  C53       26.9560   10.1710   20.4520 C.3   338  PA7338      0.0019
      7  C4'       25.3600   15.3660   21.6430 C.3   338  PA7338      0.2293
      8  O4'       24.7330   15.9370   22.7780 O.3   338  PA7338     -0.3067
      9  C3'       25.5080   16.4900   20.6260 C.3   338  PA7338      0.2249
     10  O3'       25.4210   16.0580   19.2870 O.3   338  PA7338     -0.2170
     11  C2'       24.4230   17.4670   21.0610 C.3   338  PA7338      0.2574
     12  O2'       23.1890   17.1260   20.4340 O.3   338  PA7338     -0.2130
     13  C1'       24.3980   17.3090   22.6020 C.3   338  PA7338      0.3190
     14  N9        25.3600   18.2440   23.2480 N.pl3 338  PA7338     -0.1438
     15  C8        26.5500   17.9600   23.9020 C.3   338  PA7338      0.3377
     16  N7        27.1370   19.0360   24.3740 N.2   338  PA7338     -0.2095
     17  C5        26.2770   20.0800   24.0270 C.2   338  PA7338      0.2526
     18  C6        26.3090   21.4970   24.2450 C.2   338  PA7338      0.4393
     19  N6        27.3070   22.1020   24.9020 N.pl3 338  PA7338      0.2180
     20  N1        25.2700   22.2640   23.7690 N.2   338  PA7338      0.0021
     21  C2        24.2530   21.6700   23.1050 C.3   338  PA7338      0.5254
     22  N3        24.1100   20.3580   22.8330 N.2   338  PA7338     -0.0055
     23  C4        25.1710   19.6050   23.3260 C.2   338  PA7338      0.3518
@<TRIPOS>BOND
     1    10     9    1
     2    12    11    1
     3     6     5    1
     4     9    11    1
     5     9     7    1
     6     4     5    1
     7     4     3    1
     8    11    13    1
     9     7     1    1
    10     7     8    1
    11     3     1   am
    12     1     2    2
    13    13     8    1
    14    13    14    1
    15    22    21    1
    16    22    23    2
    17    21    20    1
    18    14    23    1
    19    14    15    1
    20    23    17    1
    21    20    18    2
    22    15    16    1
    23    17    18    1
    24    17    16    2
    25    18    19    1
