@<TRIPOS>MOLECULE
1u0z_RDC_A_1.pdb
 25 27 0 0 0
SMALL
GASTEIGER

@<TRIPOS>ATOM
      1  C1      -119.5830  -39.8590   53.3170 C.2   301  RDC301      0.3440
      2  C2      -120.2300  -38.5370   53.5710 C.ar  301  RDC301      0.1119
      3  C3      -120.3680  -37.6440   52.4090 C.ar  301  RDC301      0.2048
      4  C4      -120.9390  -36.3490   52.5210 C.ar  301  RDC301      0.0851
      5  C5      -121.4040  -35.9010   53.7850 C.ar  301  RDC301      0.2090
      6  C6      -121.3050  -36.7580   54.9620 C.ar  301  RDC301      0.0933
      7  C7      -120.7290  -38.0630   54.8880 C.ar  301  RDC301      0.0086
      8  C8      -120.6360  -38.9380   56.1900 C.3   301  RDC301      0.0966
      9  C9      -119.8000  -38.4360   57.4180 C.2   301  RDC301      0.1775
     10  C10     -118.5740  -37.6380   57.2300 C.2   301  RDC301      0.0378
     11  C11     -117.5530  -38.0110   56.4780 C.2   301  RDC301      0.0027
     12  C12     -116.3340  -37.2520   56.2530 C.2   301  RDC301     -0.0020
     13  C13     -115.3070  -37.6320   55.4860 C.2   301  RDC301      0.0053
     14  C14     -114.9520  -38.8540   54.6040 C.3   301  RDC301      0.1643
     15  C15     -115.3980  -40.2120   54.7790 C.3   301  RDC301      0.1504
     16  C16     -116.2430  -40.8530   53.6810 C.3   301  RDC301      0.0760
     17  C17     -117.6610  -41.2730   53.9660 C.3   301  RDC301      0.1718
     18  C18     -117.9360  -42.0940   55.2200 C.3   301  RDC301      0.0474
     19  O1      -118.4910  -40.0600   54.0580 O.3   301  RDC301     -0.4491
     20  O2      -120.0080  -40.6790   52.4740 O.2   301  RDC301     -0.2448
     21  O3      -119.9460  -38.0100   51.1680 O.3   301  RDC301     -0.2862
     22  O4      -121.9530  -34.6550   53.9500 O.3   301  RDC301     -0.2856
     23 CL1      -121.9140  -36.1340   56.4440 Cl    301  RDC301     -0.0792
     24  O5      -120.1750  -38.6640   58.5370 O.2   301  RDC301     -0.2910
     25  O6      -114.0250  -39.8670   54.7780 O.3   301  RDC301     -0.3489
@<TRIPOS>BOND
     1    21     3    1
     2     3     4   ar
     3     3     2   ar
     4    20     1    2
     5     4     5   ar
     6     1     2    1
     7     1    19    1
     8     2     7   ar
     9    16    17    1
    10    16    15    1
    11     5    22    1
    12     5     6   ar
    13    17    19    1
    14    17    18    1
    15    14    25    1
    16    14    15    1
    17    14    13    1
    18    25    15    1
    19     7     6   ar
    20     7     8    1
    21     6    23    1
    22    13    12    2
    23     8     9    1
    24    12    11    1
    25    11    10    2
    26    10     9    1
    27     9    24    2
