@<TRIPOS>MOLECULE
1u13_HEM_A_1.pdb
 43 50 0 0 0
SMALL
GASTEIGER

@<TRIPOS>ATOM
      1 FE        -16.6190   -6.4330   63.1300 Fe    460  HEM460      0.0000
      2  CHA      -18.1020   -7.2560   66.1370 C.2   460  HEM460      0.0000
      3  CHB      -13.7160   -7.9090   64.1530 C.2   460  HEM460      0.0000
      4  CHC      -15.1500   -5.6040   60.1540 C.2   460  HEM460      0.0000
      5  CHD      -19.5130   -4.9370   62.1560 C.2   460  HEM460      0.0000
      6  NA       -16.0470   -7.3840   64.8000 N.2   460  HEM460      0.0000
      7  C1A      -16.7740   -7.6430   65.9420 C.2   460  HEM460      0.0000
      8  C2A      -16.0150   -8.3670   66.9180 C.2   460  HEM460      0.0000
      9  C3A      -14.7870   -8.5530   66.4000 C.2   460  HEM460      0.0000
     10  C4A      -14.7950   -7.9360   65.0530 C.2   460  HEM460      0.0000
     11  CMA      -13.5930   -9.2560   67.0180 C.3   460  HEM460      0.0000
     12  CAA      -16.4810   -8.8700   68.3120 C.3   460  HEM460      0.0000
     13  CBA      -16.6020   -7.7630   69.3410 C.3   460  HEM460      0.0000
     14  CGA      -17.0600   -8.2370   70.7120 C.2   460  HEM460      0.0000
     15  O1A      -17.3070   -9.4450   70.9440 O.co2 460  HEM460      0.0000
     16  O2A      -17.1750   -7.3300   71.6020 O.co2 460  HEM460      0.0000
     17  NB       -14.8090   -6.7040   62.3320 N.ar  460  HEM460      0.0000
     18  C1B      -13.6950   -7.3550   62.9090 C.ar  460  HEM460      0.0000
     19  C2B      -12.5830   -7.3470   62.0150 C.ar  460  HEM460      0.0000
     20  C3B      -12.9580   -6.7010   60.8920 C.ar  460  HEM460      0.0000
     21  C4B      -14.3720   -6.2960   61.0860 C.ar  460  HEM460      0.0000
     22  CMB      -11.2380   -7.9840   62.3570 C.3   460  HEM460      0.0000
     23  CAB      -12.1550   -6.3830   59.5940 C.3   460  HEM460      0.0000
     24  CBB      -11.5590   -7.6370   58.8590 C.3   460  HEM460      0.0000
     25  NC       -17.2070   -5.4620   61.4570 N.2   460  HEM460      0.0000
     26  C1C      -16.4820   -5.2200   60.3450 C.2   460  HEM460      0.0000
     27  C2C      -17.2560   -4.5050   59.3620 C.2   460  HEM460      0.0000
     28  C3C      -18.4800   -4.3060   59.9170 C.2   460  HEM460      0.0000
     29  C4C      -18.4510   -4.9120   61.2380 C.2   460  HEM460      0.0000
     30  CMC      -16.7440   -4.0800   57.9900 C.3   460  HEM460      0.0000
     31  CAC      -19.7140   -3.6010   59.3590 C.3   460  HEM460      0.0000
     32  CBC      -20.6420   -4.5360   58.5710 C.3   460  HEM460      0.0000
     33  ND       -18.4390   -6.1550   63.9860 N.ar  460  HEM460      0.0000
     34  C1D      -19.5100   -5.4920   63.3860 C.ar  460  HEM460      0.0000
     35  C2D      -20.6270   -5.5250   64.3760 C.ar  460  HEM460      0.0000
     36  C3D      -20.2530   -6.1660   65.4800 C.ar  460  HEM460      0.0000
     37  C4D      -18.8430   -6.5660   65.2190 C.ar  460  HEM460      0.0000
     38  CMD      -22.0130   -4.8610   64.0480 C.3   460  HEM460      0.0000
     39  CAD      -21.0670   -6.4210   66.7070 C.3   460  HEM460      0.0000
     40  CBD      -21.7010   -7.8510   66.6090 C.3   460  HEM460      0.0000
     41  CGD      -22.5640   -8.3410   67.7650 C.2   460  HEM460      0.0000
     42  O1D      -22.7960   -7.6710   68.7980 O.co2 460  HEM460      0.0000
     43  O2D      -23.0320   -9.5010   67.5920 O.co2 460  HEM460      0.0000
@<TRIPOS>BOND
     1    30    27    1
     2    32    31    1
     3    24    23    1
     4    31    28    1
     5    27    28    2
     6    27    26    1
     7    23    20    1
     8    28    29    1
     9     4    26    2
    10     4    21    1
    11    26    25    1
    12    20    21   ar
    13    20    19   ar
    14    21    17   ar
    15    29    25    2
    16    29     5    1
    17    25     1    1
    18    19    22    1
    19    19    18   ar
    20     5    34    2
    21    17    18   ar
    22    17     1    1
    23    18     3    1
    24     1    33    1
    25     1     6    1
    26    34    33   ar
    27    34    35   ar
    28    33    37   ar
    29    38    35    1
    30     3    10    2
    31    35    36   ar
    32     6    10    1
    33     6     7    2
    34    10     9    1
    35    37    36   ar
    36    37     2    2
    37    36    39    1
    38     7     2    1
    39     7     8    1
    40     9     8    2
    41     9    11    1
    42    40    39    1
    43    40    41    1
    44     8    12    1
    45    43    41   ar
    46    41    42   ar
    47    12    13    1
    48    13    14    1
    49    14    15   ar
    50    14    16   ar
