@<TRIPOS>MOLECULE
1u17_HEM_A_1.pdb
 43 50 0 0 0
SMALL
GASTEIGER

@<TRIPOS>ATOM
      1 FE         26.1170   25.5030   61.1280 Fe    201  HEM201      0.0000
      2  CHA       24.8990   25.2140   57.9530 C.2   201  HEM201      0.0000
      3  CHB       29.2740   26.2240   59.8160 C.2   201  HEM201      0.0000
      4  CHC       27.2170   26.1980   64.2300 C.2   201  HEM201      0.0000
      5  CHD       23.1770   24.2330   62.4150 C.2   201  HEM201      0.0000
      6  NA        26.9080   25.7420   59.2270 N.ar  201  HEM201      0.0000
      7  C1A       26.2500   25.4430   58.0740 C.ar  201  HEM201      0.0000
      8  C2A       27.2090   25.4260   56.9840 C.ar  201  HEM201      0.0000
      9  C3A       28.3940   25.7030   57.5160 C.ar  201  HEM201      0.0000
     10  C4A       28.2530   25.8790   58.9530 C.ar  201  HEM201      0.0000
     11  CMA       29.7540   25.7850   56.8340 C.3   201  HEM201      0.0000
     12  CAA       26.8980   25.1110   55.4960 C.3   201  HEM201      0.0000
     13  CBA       26.7410   23.5820   55.3430 C.3   201  HEM201      0.0000
     14  CGA       26.7540   23.1610   53.8680 C.2   201  HEM201      0.0000
     15  O1A       25.7630   23.5730   53.2180 O.co2 201  HEM201      0.0000
     16  O2A       27.6790   22.4470   53.3420 O.co2 201  HEM201      0.0000
     17  NB        27.9210   26.1000   61.8560 N.2   201  HEM201      0.0000
     18  C1B       29.1110   26.3640   61.1760 C.2   201  HEM201      0.0000
     19  C2B       30.0960   26.7500   62.1450 C.2   201  HEM201      0.0000
     20  C3B       29.5240   26.7430   63.3380 C.2   201  HEM201      0.0000
     21  C4B       28.1520   26.3290   63.2020 C.2   201  HEM201      0.0000
     22  CMB       31.5500   27.1090   61.8580 C.3   201  HEM201      0.0000
     23  CAB       30.2460   27.1000   64.6400 C.3   201  HEM201      0.0000
     24  CBB       30.6910   26.0240   65.2650 C.3   201  HEM201      0.0000
     25  NC        25.3580   25.2850   62.9200 N.ar  201  HEM201      0.0000
     26  C1C       25.9930   25.6280   64.1010 C.ar  201  HEM201      0.0000
     27  C2C       25.1290   25.2170   65.2020 C.ar  201  HEM201      0.0000
     28  C3C       24.0120   24.6690   64.6980 C.ar  201  HEM201      0.0000
     29  C4C       24.1360   24.7050   63.2660 C.ar  201  HEM201      0.0000
     30  CMC       25.4560   25.4220   66.7020 C.3   201  HEM201      0.0000
     31  CAC       22.7690   24.0470   65.4010 C.2   201  HEM201      0.0000
     32  CBC       22.8720   23.4890   66.6020 C.2   201  HEM201      0.0000
     33  ND        24.3480   24.8450   60.3200 N.2   201  HEM201      0.0000
     34  C1D       23.2230   24.3950   61.0410 C.2   201  HEM201      0.0000
     35  C2D       22.1130   24.1510   60.1350 C.2   201  HEM201      0.0000
     36  C3D       22.6660   24.4510   58.7390 C.2   201  HEM201      0.0000
     37  C4D       24.0430   24.8820   58.9450 C.2   201  HEM201      0.0000
     38  CMD       20.6850   23.6630   60.4600 C.3   201  HEM201      0.0000
     39  CAD       21.8840   24.2910   57.4120 C.3   201  HEM201      0.0000
     40  CBD       21.5300   25.5870   56.6930 C.3   201  HEM201      0.0000
     41  CGD       20.8450   25.1540   55.3890 C.2   201  HEM201      0.0000
     42  O1D       21.0470   23.9550   54.9240 O.co2 201  HEM201      0.0000
     43  O2D       20.0920   26.0110   54.8210 O.co2 201  HEM201      0.0000
@<TRIPOS>BOND
     1    15    14   ar
     2    16    14   ar
     3    14    13    1
     4    43    41   ar
     5    42    41   ar
     6    13    12    1
     7    41    40    1
     8    12     8    1
     9    40    39    1
    10    11     9    1
    11     8     9   ar
    12     8     7   ar
    13    39    36    1
    14     9    10   ar
    15     2     7    2
    16     2    37    1
    17     7     6   ar
    18    36    37    1
    19    36    35    2
    20    37    33    2
    21    10     6   ar
    22    10     3    2
    23     6     1    1
    24     3    18    1
    25    35    38    1
    26    35    34    1
    27    33    34    1
    28    33     1    1
    29    34     5    2
    30     1    17    1
    31     1    25    1
    32    18    17    2
    33    18    19    1
    34    17    21    1
    35    22    19    1
    36    19    20    2
    37     5    29    1
    38    25    29   ar
    39    25    26   ar
    40    21    20    1
    41    21     4    2
    42    29    28   ar
    43    20    23    1
    44    26     4    1
    45    26    27   ar
    46    23    24    1
    47    28    27   ar
    48    28    31    1
    49    27    30    1
    50    31    32    2
