@<TRIPOS>MOLECULE
1u18_HEM_A_1.pdb
 43 50 0 0 0
SMALL
GASTEIGER

@<TRIPOS>ATOM
      1 FE         25.7290   25.2520   61.6330 Fe    201  HEM201      0.0000
      2  CHA       24.6930   25.0040   58.3560 C.2   201  HEM201      0.0000
      3  CHB       28.9250   25.9010   60.4980 C.2   201  HEM201      0.0000
      4  CHC       26.8910   25.3710   64.7870 C.2   201  HEM201      0.0000
      5  CHD       22.5210   24.9790   62.7040 C.2   201  HEM201      0.0000
      6  NA        26.6000   25.3430   59.8410 N.ar  201  HEM201      0.0000
      7  C1A       26.0290   25.1730   58.6000 C.ar  201  HEM201      0.0000
      8  C2A       27.0170   25.2640   57.5760 C.ar  201  HEM201      0.0000
      9  C3A       28.1740   25.5210   58.1760 C.ar  201  HEM201      0.0000
     10  C4A       27.9290   25.5890   59.5870 C.ar  201  HEM201      0.0000
     11  CMA       29.6020   25.7100   57.5140 C.3   201  HEM201      0.0000
     12  CAA       26.8240   25.1650   56.0020 C.3   201  HEM201      0.0000
     13  CBA       26.8500   23.7000   55.6800 C.3   201  HEM201      0.0000
     14  CGA       26.7570   23.2840   54.2040 C.2   201  HEM201      0.0000
     15  O1A       25.7630   23.6260   53.6150 O.co2 201  HEM201      0.0000
     16  O2A       27.7460   22.6410   53.6940 O.co2 201  HEM201      0.0000
     17  NB        27.5450   25.5370   62.4420 N.2   201  HEM201      0.0000
     18  C1B       28.7020   25.8870   61.8320 C.2   201  HEM201      0.0000
     19  C2B       29.7940   26.1160   62.8370 C.2   201  HEM201      0.0000
     20  C3B       29.2080   25.9350   64.0170 C.2   201  HEM201      0.0000
     21  C4B       27.8050   25.6290   63.7740 C.2   201  HEM201      0.0000
     22  CMB       31.2340   26.4800   62.4810 C.3   201  HEM201      0.0000
     23  CAB       29.7340   26.0260   65.4530 C.2   201  HEM201      0.0000
     24  CBB       31.0680   25.8380   65.6290 C.2   201  HEM201      0.0000
     25  NC        24.9060   25.1320   63.3970 N.ar  201  HEM201      0.0000
     26  C1C       25.5270   25.1400   64.6150 C.ar  201  HEM201      0.0000
     27  C2C       24.5630   24.9320   65.6510 C.ar  201  HEM201      0.0000
     28  C3C       23.3150   24.8230   65.0920 C.ar  201  HEM201      0.0000
     29  C4C       23.4960   24.9990   63.6740 C.ar  201  HEM201      0.0000
     30  CMC       24.9190   24.9100   67.1450 C.3   201  HEM201      0.0000
     31  CAC       21.9510   24.5790   65.7940 C.2   201  HEM201      0.0000
     32  CBC       20.7640   25.2030   65.4980 C.2   201  HEM201      0.0000
     33  ND        23.9090   25.1000   60.6550 N.2   201  HEM201      0.0000
     34  C1D       22.7260   24.9910   61.3340 C.2   201  HEM201      0.0000
     35  C2D       21.6350   24.9640   60.3680 C.2   201  HEM201      0.0000
     36  C3D       22.2690   24.9750   59.0570 C.2   201  HEM201      0.0000
     37  C4D       23.6850   25.0150   59.3030 C.2   201  HEM201      0.0000
     38  CMD       20.1600   24.9090   60.7010 C.3   201  HEM201      0.0000
     39  CAD       21.6640   24.9020   57.6910 C.3   201  HEM201      0.0000
     40  CBD       21.6720   26.3660   57.2400 C.3   201  HEM201      0.0000
     41  CGD       21.0820   26.6260   55.8160 C.2   201  HEM201      0.0000
     42  O1D       20.1360   27.3880   55.7740 O.co2 201  HEM201      0.0000
     43  O2D       21.5760   26.0760   54.7760 O.co2 201  HEM201      0.0000
@<TRIPOS>BOND
     1    15    14   ar
     2    16    14   ar
     3    14    13    1
     4    43    41   ar
     5    13    12    1
     6    42    41   ar
     7    41    40    1
     8    12     8    1
     9    40    39    1
    10    11     9    1
    11     8     9   ar
    12     8     7   ar
    13    39    36    1
    14     9    10   ar
    15     2     7    2
    16     2    37    1
    17     7     6   ar
    18    36    37    1
    19    36    35    2
    20    37    33    2
    21    10     6   ar
    22    10     3    2
    23     6     1    1
    24    35    38    1
    25    35    34    1
    26     3    18    1
    27    33    34    1
    28    33     1    1
    29    34     5    2
    30     1    17    1
    31     1    25    1
    32    18    17    2
    33    18    19    1
    34    17    21    1
    35    22    19    1
    36     5    29    1
    37    19    20    2
    38    25    29   ar
    39    25    26   ar
    40    29    28   ar
    41    21    20    1
    42    21     4    2
    43    20    23    1
    44    26     4    1
    45    26    27   ar
    46    28    27   ar
    47    28    31    1
    48    23    24    2
    49    32    31    2
    50    27    30    1
