@<TRIPOS>MOLECULE
1u19_RET_A_1.pdb
 20 20 0 0 0
SMALL
GASTEIGER

@<TRIPOS>ATOM
      1  C1        34.6930    6.6180   17.6930 C.3   1296  RET1296     0.0183
      2  C2        33.9490    6.0070   16.4810 C.3   1296  RET1296     0.0044
      3  C3        33.2950    6.9840   15.5540 C.3   1296  RET1296     0.0047
      4  C4        34.2500    8.0610   15.0750 C.3   1296  RET1296     0.0217
      5  C5        35.0730    8.7130   16.1820 C.2   1296  RET1296    -0.0479
      6  C6        35.3690    8.0340   17.4020 C.2   1296  RET1296    -0.0307
      7  C7        36.3370    8.6080   18.4060 C.2   1296  RET1296    -0.0052
      8  C8        37.4380    9.4010   18.2580 C.2   1296  RET1296    -0.0049
      9  C9        38.4310    9.8720   19.2340 C.2   1296  RET1296    -0.0261
     10  C10       39.5190   10.5140   18.7020 C.2   1296  RET1296    -0.0300
     11  C11       40.6710   10.9960   19.4510 C.3   1296  RET1296     0.0300
     12  C12       41.7980   11.5140   18.8260 C.3   1296  RET1296     0.0264
     13  C13       42.5390   11.0880   17.6070 C.2   1296  RET1296    -0.0478
     14  C14       43.6800   11.7890   17.4130 C.2   1296  RET1296    -0.0342
     15  C15       44.7080   11.5260   16.4580 C.3   1296  RET1296     0.0300
     16  C16       33.6410    6.6990   18.8300 C.3   1296  RET1296     0.0043
     17  C17       35.7420    5.5250   18.0870 C.3   1296  RET1296     0.0043
     18  C18       35.4540   10.1130   15.7580 C.3   1296  RET1296     0.0260
     19  C19       38.1630    9.6050   20.7090 C.3   1296  RET1296     0.0307
     20  C20       42.0770    9.9680   16.7020 C.3   1296  RET1296     0.0260
@<TRIPOS>BOND
     1     4     3    1
     2     4     5    1
     3     3     2    1
     4    18     5    1
     5     5     6    2
     6    15    14    1
     7     2     1    1
     8    20    13    1
     9     6     1    1
    10     6     7    1
    11    14    13    2
    12    13    12    1
    13     1    17    1
    14     1    16    1
    15     8     7    2
    16     8     9    1
    17    10     9    2
    18    10    11    1
    19    12    11    1
    20     9    19    1
