@<TRIPOS>MOLECULE
1u1c_BAU_A_1.pdb
 20 21 0 0 0
SMALL
GASTEIGER

@<TRIPOS>ATOM
      1  OAC       12.1220   97.9760   70.5720 O.3   5400  BAU5400    -0.2176
      2  CAJ       10.9020   98.6120   70.6050 C.3   5400  BAU5400     0.2141
      3  CAK       10.3780   99.3150   71.7920 C.3   5400  BAU5400     0.1797
      4  OAO       10.6080   98.8990   73.0420 O.3   5400  BAU5400    -0.3308
      5  CAM       10.9110  100.0110   73.7200 C.3   5400  BAU5400     0.2555
      6  NAT       12.1070  100.6440   73.7920 N.am  5400  BAU5400    -0.1756
      7  CAS       12.2730  102.0610   73.5080 C.1   5400  BAU5400     0.2845
      8  OAB       11.3460  102.8070   73.1380 O.2   5400  BAU5400    -0.1918
      9  NAN       13.5890  102.5860   73.6240 N.2   5400  BAU5400    -0.2455
     10  CAR       14.7030  101.7810   73.9890 C.1   5400  BAU5400     0.2137
     11  OAA       15.8180  102.3330   74.0470 O.2   5400  BAU5400    -0.2088
     12  CAI       13.2490   99.8420   74.1620 C.2   5400  BAU5400     0.0882
     13  CAQ       14.5480  100.3720   74.2580 C.2   5400  BAU5400     0.0931
     14  CAL       15.7760   99.4250   74.5480 C.3   5400  BAU5400     0.0669
     15  CG        16.5310   99.0330   73.2790 C.ar  5400  BAU5400    -0.0170
     16  CD2       16.0100   98.0070   72.3930 C.ar  5400  BAU5400    -0.0039
     17  CE2       16.6930   97.6960   71.1580 C.ar  5400  BAU5400    -0.0003
     18  CZ        17.9010   98.4120   70.8270 C.ar  5400  BAU5400    -0.0000
     19  CE1       18.4120   99.4250   71.7140 C.ar  5400  BAU5400    -0.0003
     20  CD1       17.7430   99.7370   72.9350 C.ar  5400  BAU5400    -0.0039
@<TRIPOS>BOND
     1     1     2    1
     2     2     3    1
     3    18    17   ar
     4    18    19   ar
     5    17    16   ar
     6    19    20   ar
     7     3     4    1
     8    16    15   ar
     9    20    15   ar
    10     4     5    1
    11     8     7    2
    12    15    14    1
    13     7     9    2
    14     7     6   am
    15     9    10    2
    16     5     6    1
    17     6    12    1
    18    10    11    2
    19    10    13    1
    20    12    13    2
    21    13    14    1
