@<TRIPOS>MOLECULE
1u1d_181_A_1.pdb
 20 21 0 0 0
SMALL
GASTEIGER

@<TRIPOS>ATOM
      1  OAC        7.0580  160.5440   11.0810 O.3   3400  1813400    -0.2176
      2  CAJ        5.9010  161.2490   10.6140 C.3   3400  1813400     0.2141
      3  CAK        5.8270  162.6260   11.3210 C.3   3400  1813400     0.1797
      4  OAN        5.9710  162.4030   12.7350 O.3   3400  1813400    -0.3308
      5  CAL        6.4520  163.5820   13.4020 C.3   3400  1813400     0.2555
      6  NAT        7.7910  163.9960   13.2470 N.am  3400  1813400    -0.1748
      7  CAS        8.1650  165.1610   12.4880 C.1   3400  1813400     0.2846
      8  OAB        7.3430  165.8430   11.8570 O.2   3400  1813400    -0.1918
      9  NAM        9.5370  165.5090   12.3870 N.2   3400  1813400    -0.2447
     10  CAR       10.5250  164.7150   13.0190 C.1   3400  1813400     0.2236
     11  OAA       11.7020  165.0670   12.9310 O.2   3400  1813400    -0.2080
     12  CAI        8.8050  163.2120   13.8690 C.2   3400  1813400     0.0987
     13  CAQ       10.1700  163.5520   13.7630 C.2   3400  1813400     0.1404
     14  SAO       11.3530  162.5080   14.5550 S.3   3400  1813400    -0.0730
     15  CAP       11.9060  161.4560   13.2520 C.ar  3400  1813400     0.0302
     16  CAH       13.2210  161.5630   12.6720 C.ar  3400  1813400     0.0065
     17  CAF       13.6340  160.6640   11.6140 C.ar  3400  1813400     0.0005
     18  CAD       12.7070  159.6570   11.1480 C.ar  3400  1813400     0.0000
     19  CAE       11.3900  159.5290   11.7080 C.ar  3400  1813400     0.0005
     20  CAG       10.9920  160.4390   12.7680 C.ar  3400  1813400     0.0065
@<TRIPOS>BOND
     1     2     1    1
     2     2     3    1
     3    18    17   ar
     4    18    19   ar
     5     3     4    1
     6    17    16   ar
     7    19    20   ar
     8     8     7    2
     9     9     7    2
    10     9    10    2
    11     7     6   am
    12    16    15   ar
    13     4     5    1
    14    20    15   ar
    15    11    10    2
    16    10    13    1
    17     6     5    1
    18     6    12    1
    19    15    14    1
    20    13    12    2
    21    13    14    1
