@<TRIPOS>MOLECULE
1u1e_182_A_1.pdb
 20 21 0 0 0
SMALL
GASTEIGER

@<TRIPOS>ATOM
      1  OAC       12.2800   97.5150   70.2560 O.3   3400  1823400     0.0000
      2  CAJ       10.9930   98.1030   70.0720 C.3   3400  1823400     0.0000
      3  CAK       10.8040   99.2300   71.0950 C.3   3400  1823400     0.0000
      4  OAN       11.0770   98.6760   72.3950 O.3   3400  1823400     0.0000
      5  CAL       11.2390   99.7130   73.3880 C.3   3400  1823400     0.0000
      6  NAT       12.4570  100.3850   73.4760 N.am  3400  1823400     0.0000
      7  CAS       12.5780  101.7740   73.1730 C.1   3400  1823400     0.0000
      8  OAB       11.6100  102.4610   72.8110 O.2   3400  1823400     0.0000
      9  NAM       13.8370  102.4010   73.2810 N.2   3400  1823400     0.0000
     10  CAR       14.9660  101.6530   73.6830 C.1   3400  1823400     0.0000
     11  OAA       16.0560  102.2250   73.7190 O.2   3400  1823400     0.0000
     12  CAI       13.6050   99.6590   73.8820 C.2   3400  1823400     0.0000
     13  CAQ       14.8630  100.2760   73.9910 C.2   3400  1823400     0.0000
     14 SE         16.2530   99.2920   74.4580 Se    3400  1823400     0.0000
     15  CAP       17.0200   98.8260   72.9600 C.ar  3400  1823400     0.0000
     16  CAH       18.1670   99.4930   72.4580 C.ar  3400  1823400     0.0000
     17  CAF       18.7090   99.1320   71.1940 C.ar  3400  1823400     0.0000
     18  CAD       18.0970   98.0890   70.4490 C.ar  3400  1823400     0.0000
     19  CAE       16.9530   97.4080   70.9410 C.ar  3400  1823400     0.0000
     20  CAG       16.4210   97.7830   72.2100 C.ar  3400  1823400     0.0000
@<TRIPOS>BOND
     1     2     1    1
     2     2     3    1
     3    18    19   ar
     4    18    17   ar
     5    19    20   ar
     6     3     4    1
     7    17    16   ar
     8    20    15   ar
     9     4     5    1
    10    16    15   ar
    11     8     7    2
    12    15    14    1
    13     7     9    2
    14     7     6   am
    15     9    10    2
    16     5     6    1
    17     6    12    1
    18    10    11    2
    19    10    13    1
    20    12    13    2
    21    13    14    1
