@<TRIPOS>MOLECULE
1u1f_183_A_1.pdb
 28 30 0 0 0
SMALL
GASTEIGER

@<TRIPOS>ATOM
      1  OAC       38.5300  160.8370   59.8370 O.3   3300  1833300    -0.2176
      2  CAN       39.6880  161.5990   60.2270 C.3   3300  1833300     0.2141
      3  CAO       39.7310  162.9350   59.4800 C.3   3300  1833300     0.1797
      4  OAT       39.6190  162.7320   58.0550 O.3   3300  1833300    -0.3308
      5  CAR       39.1450  163.8530   57.3140 C.3   3300  1833300     0.2555
      6  NBC       37.8030  164.2670   57.4550 N.am  3300  1833300    -0.1756
      7  CBB       37.4510  165.4620   58.1840 C.1   3300  1833300     0.2845
      8  OAB       38.2680  166.1940   58.7700 O.2   3300  1833300    -0.1918
      9  NAS       36.0750  165.8070   58.2770 N.2   3300  1833300    -0.2455
     10  CBA       35.0540  165.0000   57.6720 C.1   3300  1833300     0.2137
     11  OAA       33.8860  165.3970   57.8220 O.2   3300  1833300    -0.2088
     12  CAY       36.7580  163.4640   56.8500 C.2   3300  1833300     0.0882
     13  CAZ       35.3720  163.7920   56.9390 C.2   3300  1833300     0.0931
     14  CAQ       34.2440  162.8740   56.3330 C.3   3300  1833300     0.0670
     15  CAW       33.6000  161.9510   57.4210 C.ar  3300  1833300    -0.0139
     16  CAK       32.2250  162.1270   57.9010 C.ar  3300  1833300    -0.0037
     17  CAH       31.6690  161.2610   58.9460 C.ar  3300  1833300     0.0028
     18  CAL       32.5120  160.2120   59.5080 C.ar  3300  1833300     0.0369
     19  CAM       34.4270  160.8940   57.9930 C.ar  3300  1833300     0.0330
     20  CAX       33.8870  160.0110   59.0380 C.ar  3300  1833300     0.1387
     21  OAU       34.6550  158.9550   59.5170 O.3   3300  1833300    -0.4707
     22  CAP       35.0240  157.4790   59.3920 C.3   3300  1833300     0.2320
     23  CAV       33.9620  156.6770   58.9080 C.ar  3300  1833300     0.0212
     24  CAJ       34.0060  156.1270   57.5500 C.ar  3300  1833300    -0.0007
     25  CAG       32.8680  155.3520   57.0560 C.ar  3300  1833300    -0.0002
     26  CAE       31.6900  155.1190   57.9100 C.ar  3300  1833300    -0.0000
     27  CAF       31.6420  155.6650   59.2690 C.ar  3300  1833300    -0.0002
     28  CAI       32.7830  156.4400   59.7660 C.ar  3300  1833300    -0.0007
@<TRIPOS>BOND
     1    14    13    1
     2    14    15    1
     3    12    13    2
     4    12     6    1
     5    13    10    1
     6    25    24   ar
     7    25    26   ar
     8     5     6    1
     9     5     4    1
    10    15    16   ar
    11    15    19   ar
    12     6     7   am
    13    24    23   ar
    14    10    11    2
    15    10     9    2
    16    16    17   ar
    17    26    27   ar
    18    19    20   ar
    19     4     3    1
    20     7     9    2
    21     7     8    2
    22    23    22    1
    23    23    28   ar
    24    17    18   ar
    25    20    18   ar
    26    20    21    1
    27    27    28   ar
    28    22    21    1
    29     3     2    1
    30     1     2    1
