@<TRIPOS>MOLECULE
1u1g_BBB_A_1.pdb
 29 31 0 0 0
SMALL
GASTEIGER

@<TRIPOS>ATOM
      1  OAC        7.1250  162.7960   10.8800 O.3   3300  BBB3300    -0.2176
      2  CAN        5.9010  163.4640   10.5590 C.3   3300  BBB3300     0.2141
      3  CAO        5.7200  164.7030   11.4360 C.3   3300  BBB3300     0.1797
      4  OAT        6.0960  164.4510   12.8150 O.3   3300  BBB3300    -0.3307
      5  CAR        6.6000  165.6010   13.5190 C.3   3300  BBB3300     0.2578
      6  NBC        7.9580  165.9720   13.3790 N.am  3300  BBB3300    -0.1458
      7  CBB        8.3280  167.1420   12.6360 C.1   3300  BBB3300     0.2864
      8  OAB        7.5230  167.8470   12.0220 O.2   3300  BBB3300    -0.1918
      9  NAS        9.7050  167.4720   12.5330 N.2   3300  BBB3300    -0.2490
     10  CBA       10.7070  166.6650   13.1450 C.1   3300  BBB3300     0.2004
     11  OAA       11.8760  167.0660   13.0480 O.2   3300  BBB3300    -0.2129
     12  CAY        8.9900  165.1650   13.9920 C.2   3300  BBB3300     0.2578
     13  CAZ       10.3760  165.4770   13.8790 C.3   3300  BBB3300     0.2004
     14  CAQ       11.5060  164.5410   14.4310 C.3   3300  BBB3300     0.0535
     15  CAW       12.1550  163.6350   13.3550 C.ar  3300  BBB3300    -0.0175
     16  CAK       13.4990  163.8460   12.8730 C.ar  3300  BBB3300    -0.0040
     17  CAH       14.0620  163.0180   11.8340 C.ar  3300  BBB3300     0.0028
     18  CAL       13.2630  161.9650   11.2780 C.ar  3300  BBB3300     0.0369
     19  CAM       11.3630  162.5720   12.7950 C.ar  3300  BBB3300     0.0327
     20  CAX       11.9150  161.7310   11.7450 C.ar  3300  BBB3300     0.1387
     21  OAU       11.1580  160.7070   11.1970 O.3   3300  BBB3300    -0.4707
     22  CAP       10.6890  159.2640   11.2760 C.3   3300  BBB3300     0.2320
     23  CAV       11.6610  158.3490   11.7380 C.ar  3300  BBB3300     0.0212
     24  CAJ       11.5200  157.7240   13.0390 C.ar  3300  BBB3300    -0.0007
     25  CAG       12.5380  156.8170   13.5080 C.ar  3300  BBB3300    -0.0002
     26  CAE       13.6910  156.5380   12.6720 C.ar  3300  BBB3300    -0.0000
     27  CAF       13.8370  157.1550   11.3750 C.ar  3300  BBB3300    -0.0002
     28  CAI       12.8160  158.0630   10.9080 C.ar  3300  BBB3300    -0.0007
     29  OAD        8.6260  164.0770   14.7250 O.2   3300  BBB3300    -0.2725
@<TRIPOS>BOND
     1     2     1    1
     2     2     3    1
     3    28    27   ar
     4    28    23   ar
     5    21    22    1
     6    21    20    1
     7    22    23    1
     8    18    20   ar
     9    18    17   ar
    10    27    26   ar
    11     3     4    1
    12    23    24   ar
    13    20    19   ar
    14    17    16   ar
    15     8     7    2
    16     9     7    2
    17     9    10    2
    18     7     6   am
    19    26    25   ar
    20    19    15   ar
    21     4     5    1
    22    16    15   ar
    23    24    25   ar
    24    11    10    2
    25    10    13    1
    26    15    14    1
    27     6     5    1
    28     6    12   am
    29    13    12    1
    30    13    14    1
    31    12    29    2
