@<TRIPOS>MOLECULE
1u1i_NAD_A_1.pdb
 44 48 0 0 0
SMALL
GASTEIGER

@<TRIPOS>ATOM
      1  PA        17.5250  -22.2300   -2.2800 P.3   396  NAD396      0.2189
      2  O1A       18.7400  -21.9430   -1.3730 O.3   396  NAD396     -0.4371
      3  O2A       16.2770  -22.7780   -1.5690 O.2   396  NAD396     -0.5170
      4  O5B       17.9480  -23.3320   -3.3050 O.3   396  NAD396     -0.3112
      5  C5B       19.3690  -23.3430   -3.5300 C.3   396  NAD396      0.1813
      6  C4B       19.7010  -24.8040   -3.2990 C.3   396  NAD396      0.1821
      7  O4B       20.8060  -25.2100   -4.1600 O.3   396  NAD396     -0.3135
      8  C3B       20.1950  -25.1440   -1.8750 C.3   396  NAD396      0.2184
      9  O3B       19.7990  -26.5050   -1.5190 O.3   396  NAD396     -0.2174
     10  C2B       21.7000  -24.9490   -2.1110 C.3   396  NAD396      0.2570
     11  O2B       22.4630  -25.5280   -1.0430 O.3   396  NAD396     -0.2130
     12  C1B       21.8790  -25.6660   -3.4470 C.3   396  NAD396      0.3186
     13  N9A       23.0420  -25.2290   -4.1990 N.pl3 396  NAD396     -0.1439
     14  C8A       23.4660  -23.9410   -4.3940 C.3   396  NAD396      0.3377
     15  N7A       24.5750  -23.8470   -5.1320 N.2   396  NAD396     -0.2095
     16  C5A       24.8590  -25.1730   -5.4250 C.2   396  NAD396      0.2526
     17  C6A       25.9120  -25.7770   -6.1830 C.2   396  NAD396      0.4393
     18  N6A       26.8930  -25.1190   -6.7900 N.pl3 396  NAD396      0.2180
     19  N1A       25.9230  -27.1560   -6.2820 N.2   396  NAD396      0.0021
     20  C2A       24.9110  -27.8610   -5.6590 C.3   396  NAD396      0.5254
     21  N3A       23.9170  -27.3800   -4.9210 N.2   396  NAD396     -0.0055
     22  C4A       23.9310  -26.0320   -4.8460 C.2   396  NAD396      0.3518
     23  O3        17.1300  -20.9450   -3.0890 O.3   396  NAD396     -0.2703
     24  PN        15.6980  -20.8900   -3.7270 P.3   396  NAD396      0.2189
     25  O1N       14.7720  -19.9650   -2.9610 O.3   396  NAD396     -0.4371
     26  O2N       15.1270  -22.2890   -3.8850 O.2   396  NAD396     -0.5170
     27  O5D       15.9720  -20.3160   -5.1840 O.3   396  NAD396     -0.3112
     28  C5D       16.7070  -21.0510   -6.2700 C.3   396  NAD396      0.1813
     29  C4D       17.6220  -20.1250   -7.0610 C.3   396  NAD396      0.1799
     30  O4D       17.0880  -19.5130   -8.2580 O.3   396  NAD396     -0.3327
     31  C3D       18.3670  -18.9700   -6.3540 C.3   396  NAD396      0.2158
     32  O3D       19.6400  -18.8130   -7.0350 O.3   396  NAD396     -0.2175
     33  C2D       17.5220  -17.7570   -6.6990 C.3   396  NAD396      0.2309
     34  O2D       18.3620  -16.5730   -6.8010 O.3   396  NAD396     -0.2158
     35  C1D       16.9270  -18.1150   -8.0200 C.3   396  NAD396      0.2263
     36  N1N       15.5370  -17.7450   -8.2190 N.pl3 396  NAD396     -0.2787
     37  C2N       14.5670  -17.9800   -7.2090 C.3   396  NAD396      0.1244
     38  C3N       13.1730  -17.6010   -7.4550 C.2   396  NAD396      0.0544
     39  C7N       12.1880  -17.7450   -6.5130 C.2   396  NAD396      0.2818
     40  O7N       12.3220  -18.5150   -5.5500 O.2   396  NAD396     -0.2670
     41  N7N       10.9590  -17.2740   -6.9040 N.am  396  NAD396     -0.0839
     42  C4N       12.8900  -17.0090   -8.6780 C.2   396  NAD396      0.0033
     43  C5N       13.8130  -16.8710   -9.7170 C.2   396  NAD396      0.0157
     44  C6N       15.1410  -17.2320   -9.4710 C.2   396  NAD396      0.0633
@<TRIPOS>BOND
     1    43    44    2
     2    43    42    1
     3    44    36    1
     4    42    38    2
     5    30    35    1
     6    30    29    1
     7    36    35    1
     8    36    37    1
     9    35    33    1
    10    38    37    1
    11    38    39    1
    12    29    31    1
    13    29    28    1
    14    32    31    1
    15    41    39   am
    16    34    33    1
    17    18    17    1
    18    33    31    1
    19    39    40    2
    20    19    17    2
    21    19    20    1
    22    28    27    1
    23    17    16    1
    24    20    21    1
    25    16    15    2
    26    16    22    1
    27    27    24    1
    28    15    14    1
    29    21    22    2
    30    22    13    1
    31    14    13    1
    32    13    12    1
    33     7    12    1
    34     7     6    1
    35    26    24    2
    36    24    23    1
    37    24    25    1
    38     5     4    1
    39     5     6    1
    40    12    10    1
    41     4     1    1
    42     6     8    1
    43    23     1    1
    44     1     3    2
    45     1     2    1
    46    10     8    1
    47    10    11    1
    48     8     9    1
