@<TRIPOS>MOLECULE
1u1j_C2F_A_1.pdb
 33 35 0 0 0
SMALL
GASTEIGER

@<TRIPOS>ATOM
      1  N1       -46.7170   40.1870  -71.6700 N.2   773  C2F773     -0.1759
      2  C2       -46.7930   41.4980  -71.9100 C.1   773  C2F773      0.1939
      3  NA2      -46.3120   41.9350  -73.2320 N.pl3 773  C2F773     -0.0341
      4  N3       -47.1830   42.4440  -71.2640 N.2   773  C2F773     -0.2633
      5  C4       -47.8800   42.1150  -70.0960 C.1   773  C2F773      0.2086
      6  O4       -48.7080   43.0330  -69.4370 O.2   773  C2F773     -0.2119
      7  C4A      -47.7730   40.7710  -69.5490 C.3   773  C2F773      0.2184
      8  N5       -47.5590   40.5240  -68.1530 N.3   773  C2F773     -0.2541
      9  C6       -46.7810   39.2700  -67.6330 C.3   773  C2F773      0.0977
     10  C7       -45.7400   38.7840  -68.6210 C.3   773  C2F773      0.1085
     11  N8       -45.7440   39.5770  -69.6970 N.3   773  C2F773     -0.1921
     12  C8A      -46.9160   39.8760  -70.3600 C.3   773  C2F773      0.2201
     13  C9       -47.7320   38.1390  -67.1760 C.3   773  C2F773      0.1295
     14  N10      -48.6130   37.6640  -68.2290 N.pl3 773  C2F773     -0.2361
     15  C11      -48.0940   41.4360  -67.0610 C.3   773  C2F773      0.0906
     16  C12      -52.3380   39.1500  -69.4260 C.ar  773  C2F773      0.0551
     17  C13      -52.0470   39.2440  -68.0340 C.ar  773  C2F773      0.0059
     18  C14      -50.8070   38.7650  -67.5330 C.ar  773  C2F773      0.0162
     19  C15      -49.8550   38.1850  -68.4250 C.ar  773  C2F773      0.0654
     20  C16      -50.1550   38.0930  -69.8110 C.ar  773  C2F773      0.0162
     21  C17      -51.3890   38.5710  -70.3100 C.ar  773  C2F773      0.0059
     22  C        -53.6790   39.6860  -69.9490 C.2   773  C2F773      0.2652
     23  O        -53.7130   40.4300  -70.9380 O.2   773  C2F773     -0.2684
     24  N        -54.7480   39.2870  -69.2450 N.am  773  C2F773     -0.1918
     25  CA       -56.1630   39.6440  -69.4910 C.3   773  C2F773      0.1986
     26  CB       -56.7050   39.2470  -70.8750 C.3   773  C2F773      0.0451
     27  CG       -56.7940   40.4220  -71.8490 C.3   773  C2F773      0.1164
     28  CD       -57.3410   39.9670  -73.2010 C.2   773  C2F773      0.3649
     29  OE1      -56.7230   39.0530  -73.8010 O.co2 773  C2F773     -0.2457
     30  OE2      -58.3680   40.5380  -73.6190 O.co2 773  C2F773     -0.2457
     31  CT       -57.0310   39.0100  -68.3930 C.2   773  C2F773      0.3842
     32  O1       -58.0660   39.6350  -68.0650 O.co2 773  C2F773     -0.2437
     33  O2       -56.6390   37.9170  -67.9040 O.co2 773  C2F773     -0.2437
@<TRIPOS>BOND
     1    29    28   ar
     2    30    28   ar
     3     3     2    1
     4    28    27    1
     5     2     1    2
     6     2     4    2
     7    27    26    1
     8     1    12    1
     9     4     5    2
    10    23    22    2
    11    26    25    1
    12    12    11    1
    13    12     7    1
    14    21    20   ar
    15    21    16   ar
    16     5     7    1
    17     5     6    2
    18    22    16    1
    19    22    24   am
    20    20    19   ar
    21    11    10    1
    22     7     8    1
    23    25    24    1
    24    25    31    1
    25    16    17   ar
    26    10     9    1
    27    19    14    1
    28    19    18   ar
    29    31    32   ar
    30    31    33   ar
    31    14    13    1
    32     8     9    1
    33     8    15    1
    34    17    18   ar
    35     9    13    1
