@<TRIPOS>MOLECULE
1u1w_3HA_A_1.pdb
 11 11 0 0 0
SMALL
GASTEIGER

@<TRIPOS>ATOM
      1  O8         8.1600   30.2580   23.6940 O.co2 700  3HA700     -0.2405
      2  C7         7.5910   31.1680   23.0520 C.2   700  3HA700      0.3892
      3  O9         7.1890   32.2360   23.6110 O.co2 700  3HA700     -0.2405
      4  C2         7.3090   31.0160   21.5910 C.ar  700  3HA700      0.0996
      5  C1         6.7550   32.1210   20.9210 C.ar  700  3HA700      0.0082
      6  C6         6.4140   31.9890   19.5590 C.ar  700  3HA700      0.0036
      7  C5         6.6280   30.8120   18.8830 C.ar  700  3HA700      0.0435
      8  C4         7.1940   29.7280   19.5520 C.ar  700  3HA700      0.2125
      9  O11        7.3980   28.5410   18.9400 O.3   700  3HA700     -0.2851
     10  C3         7.5530   29.8180   20.9430 C.ar  700  3HA700      0.1342
     11  N10        8.1880   28.6840   21.4980 N.pl3 700  3HA700     -0.1245
@<TRIPOS>BOND
     1     7     8   ar
     2     7     6   ar
     3     9     8    1
     4     8    10   ar
     5     6     5   ar
     6     5     4   ar
     7    10    11    1
     8    10     4   ar
     9     4     2    1
    10     2     3   ar
    11     2     1   ar
