@<TRIPOS>MOLECULE
1u1x_HHA_A_1.pdb
 11 11 0 0 0
SMALL
GASTEIGER

@<TRIPOS>ATOM
      1  O1         8.0410   30.4780   23.7130 O.co2 401  HHA401     -0.2453
      2  C          7.4280   31.3600   23.1070 C.2   401  HHA401      0.3698
      3  O2         7.0090   32.3930   23.6380 O.co2 401  HHA401     -0.2453
      4  C1         7.2470   31.2480   21.6000 C.3   401  HHA401      0.1450
      5  C6         6.6410   32.3450   20.9710 C.2   401  HHA401     -0.0182
      6  C5         6.2590   32.1780   19.6330 C.2   401  HHA401     -0.0274
      7  C4         6.4480   30.9740   19.0100 C.3   401  HHA401      0.0601
      8  C3         7.3330   29.9500   19.5420 C.3   401  HHA401      0.1746
      9  O3'        7.2290   28.6970   18.9750 O.3   401  HHA401     -0.2212
     10  C2         7.2370   29.8770   21.0240 C.3   401  HHA401      0.1371
     11  N2         8.2780   28.9090   21.4550 N.3   401  HHA401     -0.1293
@<TRIPOS>BOND
     1     9     8    1
     2     7     8    1
     3     7     6    1
     4     8    10    1
     5     6     5    2
     6     5     4    1
     7    10    11    1
     8    10     4    1
     9     4     2    1
    10     2     3   ar
    11     2     1   ar
