@<TRIPOS>MOLECULE
1u21_P2C_A_1.pdb
 21 22 0 0 0
SMALL
GASTEIGER

@<TRIPOS>ATOM
      1 CL8        23.5800   44.2610   35.9600 Cl    211  P2C211     -0.0789
      2  C1        22.2560   43.1880   36.5030 C.ar  211  P2C211      0.0976
      3  C2        21.4830   42.5330   35.4320 C.ar  211  P2C211      0.2068
      4  O9        21.8100   42.7880   34.1160 O.3   211  P2C211     -0.3018
      5  O10       21.2070   42.0970   32.9520 O.3   211  P2C211      0.0208
      6  O11       21.5610   42.4180   31.7630 O.3   211  P2C211      0.0083
      7  C3        20.3910   41.6360   35.8510 C.ar  211  P2C211      0.0976
      8 CL7        19.4050   40.8110   34.6000 Cl    211  P2C211     -0.0789
      9  C4        20.1510   41.4550   37.2190 C.ar  211  P2C211      0.0311
     10  C6        21.9590   42.9570   37.8540 C.ar  211  P2C211      0.0311
     11  C5        20.9010   42.1070   38.2170 C.ar  211  P2C211      0.0724
     12  N18       20.4850   41.8790   39.5060 N.pl3 211  P2C211     -0.2122
     13  C14       21.0000   42.5420   40.5780 C.ar  211  P2C211      0.0768
     14  C15       21.2400   43.9180   40.4840 C.ar  211  P2C211      0.0167
     15  C16       21.9270   44.5930   41.4900 C.ar  211  P2C211      0.0013
     16  C17       22.3940   43.9220   42.6190 C.ar  211  P2C211      0.0003
     17  C12       22.1980   42.5500   42.7550 C.ar  211  P2C211      0.0079
     18  C13       21.5190   41.8170   41.7870 C.ar  211  P2C211      0.0950
     19  C19       21.3600   40.3240   42.0050 C.2   211  P2C211      0.3890
     20  O21       21.7760   39.5340   41.1340 O.co2 211  P2C211     -0.2405
     21  O20       20.8880   39.8600   43.0530 O.co2 211  P2C211     -0.2405
@<TRIPOS>BOND
     1     6     5    1
     2     5     4    1
     3     4     3    1
     4     8     7    1
     5     3     7   ar
     6     3     2   ar
     7     7     9   ar
     8     1     2    1
     9     2    10   ar
    10     9    11   ar
    11    10    11   ar
    12    11    12    1
    13    12    13    1
    14    14    13   ar
    15    14    15   ar
    16    13    18   ar
    17    20    19   ar
    18    15    16   ar
    19    18    19    1
    20    18    17   ar
    21    19    21   ar
    22    16    17   ar
