@<TRIPOS>MOLECULE
1u22_THG_A_1.pdb
 32 34 0 0 0
SMALL
GASTEIGER

@<TRIPOS>ATOM
      1  N3       -48.6640   45.6650  -70.2390 N.2   773  THG773     -0.2466
      2  C2       -48.2490   45.4900  -71.5380 C.1   773  THG773      0.2609
      3  N1       -47.8300   44.2580  -71.9330 N.2   773  THG773     -0.2672
      4  C8A      -47.8190   43.1870  -71.0600 C.1   773  THG773      0.1401
      5  C4A      -48.2410   43.3160  -69.7070 C.2   773  THG773      0.2988
      6  C4       -48.6700   44.6180  -69.3250 C.1   773  THG773      0.2569
      7  N8       -47.3730   41.9100  -71.5060 N.2   773  THG773     -0.1992
      8  C7       -47.3300   40.7220  -70.6700 C.3   773  THG773      0.1931
      9  C6       -47.7590   40.8490  -69.3230 C.2   773  THG773      0.1356
     10  N5       -48.2490   42.2260  -68.7800 N.2   773  THG773     -0.3839
     11  C9       -47.6680   39.5310  -68.6260 C.3   773  THG773      0.1683
     12  N10      -48.6180   38.4720  -69.1960 N.pl3 773  THG773     -0.2303
     13  C4'      -49.9990   38.5320  -69.3250 C.ar  773  THG773      0.0658
     14  C3'      -50.8080   39.6540  -68.9250 C.ar  773  THG773      0.0162
     15  C2'      -52.2170   39.6410  -69.1020 C.ar  773  THG773      0.0059
     16  C1'      -52.8560   38.5110  -69.6780 C.ar  773  THG773      0.0551
     17  C6'      -52.0710   37.3910  -70.0730 C.ar  773  THG773      0.0059
     18  C5'      -50.6500   37.4040  -69.8950 C.ar  773  THG773      0.0162
     19  C11      -54.3940   38.5160  -69.8690 C.2   773  THG773      0.2652
     20  N        -54.8040   39.0000  -71.0680 N.am  773  THG773     -0.1918
     21  CA       -56.2090   39.1580  -71.5120 C.3   773  THG773      0.1986
     22  C        -56.5690   38.1510  -72.6270 C.2   773  THG773      0.3842
     23  OX2      -57.3730   37.2440  -72.3040 O.co2 773  THG773     -0.2437
     24  OX1      -56.0560   38.3110  -73.7610 O.co2 773  THG773     -0.2437
     25  CB       -56.5120   40.5860  -71.9760 C.3   773  THG773      0.0451
     26  CG       -56.1480   41.6040  -70.8900 C.3   773  THG773      0.1164
     27  CD       -56.4300   43.0300  -71.3210 C.2   773  THG773      0.3649
     28  OE1      -57.6260   43.4000  -71.2850 O.co2 773  THG773     -0.2457
     29  OE2      -55.4420   43.7370  -71.6730 O.co2 773  THG773     -0.2457
     30  O11      -55.1530   38.1250  -68.9600 O.2   773  THG773     -0.2684
     31  O4       -49.0930   44.8420  -68.0370 O.2   773  THG773     -0.2052
     32  N2       -48.2500   46.5120  -72.4160 N.pl3 773  THG773     -0.0220
@<TRIPOS>BOND
     1    24    22   ar
     2    22    23   ar
     3    22    21    1
     4    32     2    1
     5    25    21    1
     6    25    26    1
     7     3     2    2
     8     3     4    2
     9    29    27   ar
    10     2     1    2
    11    21    20    1
    12     7     4    2
    13     7     8    1
    14    27    28   ar
    15    27    26    1
    16    20    19   am
    17     4     5    1
    18     8     9    1
    19     1     6    2
    20    17    18   ar
    21    17    16   ar
    22    18    13   ar
    23    19    16    1
    24    19    30    2
    25     5     6    1
    26     5    10    2
    27    16    15   ar
    28     6    31    2
    29    13    12    1
    30    13    14   ar
    31     9    10    2
    32     9    11    1
    33    12    11    1
    34    15    14   ar
