@<TRIPOS>MOLECULE
1u25_IHS_A_1.pdb
 36 36 0 0 0
SMALL
GASTEIGER

@<TRIPOS>ATOM
      1  C1        40.3190   27.2000    7.4890 C.3   2165  IHS2165     0.2070
      2  O1        40.5930   27.6940    6.1540 O.3   2165  IHS2165    -0.2383
      3  S1        39.7850   27.1640    4.8470 S.3   2165  IHS2165    -0.0001
      4  O4        39.8250   28.3520    3.8860 O.2   2165  IHS2165    -0.3452
      5  O3        40.5940   25.9050    4.4490 O.2   2165  IHS2165    -0.3452
      6  O2        38.3690   26.7670    5.2270 O.3   2165  IHS2165    -0.2682
      7  C2        40.6620   28.2800    8.5450 C.3   2165  IHS2165     0.2070
      8  O12       39.8140   29.3640    8.3330 O.3   2165  IHS2165    -0.2383
      9  S2        38.4990   29.3210    9.2710 S.3   2165  IHS2165    -0.0001
     10  O32       37.6990   28.0790    8.9640 O.2   2165  IHS2165    -0.3452
     11  O22       38.9650   29.2990   10.7250 O.3   2165  IHS2165    -0.2682
     12  O42       37.7890   30.5450    8.8450 O.2   2165  IHS2165    -0.3452
     13  C3        42.1520   28.7550    8.5620 C.3   2165  IHS2165     0.2070
     14  O13       42.5310   29.4290    7.3150 O.3   2165  IHS2165    -0.2383
     15  S3        42.4860   31.0870    7.1780 S.3   2165  IHS2165    -0.0001
     16  O33       42.9570   31.3260    5.7320 O.2   2165  IHS2165    -0.3452
     17  O23       41.0320   31.5760    7.4250 O.2   2165  IHS2165    -0.3452
     18  O43       43.4630   31.6090    8.2330 O.3   2165  IHS2165    -0.2682
     19  C4        43.0660   27.5560    8.7620 C.3   2165  IHS2165     0.2070
     20  O14       42.8730   26.9940   10.1020 O.3   2165  IHS2165    -0.2383
     21  S4        43.3580   27.6560   11.5040 S.3   2165  IHS2165    -0.0001
     22  O34       44.8990   27.5820   11.3850 O.2   2165  IHS2165    -0.3452
     23  O24       42.7440   29.0560   11.6320 O.2   2165  IHS2165    -0.3452
     24  O44       42.8830   26.6680   12.5750 O.3   2165  IHS2165    -0.2682
     25  C5        42.8020   26.3070    7.8420 C.3   2165  IHS2165     0.2070
     26  O15       43.1760   26.4360    6.4630 O.3   2165  IHS2165    -0.2383
     27  S5        44.1710   25.2870    5.7830 S.3   2165  IHS2165    -0.0001
     28  O35       43.8240   25.3750    4.2900 O.2   2165  IHS2165    -0.3452
     29  O25       45.5130   25.8580    6.2250 O.2   2165  IHS2165    -0.3452
     30  O45       43.9660   23.8780    6.3120 O.3   2165  IHS2165    -0.2682
     31  C6        41.2700   25.9720    7.8150 C.3   2165  IHS2165     0.2070
     32  O16       40.9510   25.5630    9.1400 O.3   2165  IHS2165    -0.2383
     33  S6        40.8480   24.0830    9.5500 S.3   2165  IHS2165    -0.0001
     34  O36       40.4750   24.2350   11.0120 O.3   2165  IHS2165    -0.2682
     35  O26       42.1760   23.3560    9.2410 O.2   2165  IHS2165    -0.3452
     36  O46       39.6570   23.5620    8.6780 O.2   2165  IHS2165    -0.3452
@<TRIPOS>BOND
     1     4     3    2
     2    28    27    2
     3     5     3    2
     4     3     6    1
     5     3     2    1
     6    16    15    2
     7    27    29    2
     8    27    30    1
     9    27    26    1
    10     2     1    1
    11    26    25    1
    12    15    14    1
    13    15    17    2
    14    15    18    1
    15    14    13    1
    16     1    31    1
    17     1     7    1
    18    31    25    1
    19    31    32    1
    20    25    19    1
    21     8     7    1
    22     8     9    1
    23     7    13    1
    24    13    19    1
    25    36    33    2
    26    19    20    1
    27    12     9    2
    28    10     9    2
    29    32    33    1
    30    35    33    2
    31     9    11    1
    32    33    34    1
    33    20    21    1
    34    22    21    2
    35    21    23    2
    36    21    24    1
