@<TRIPOS>MOLECULE
1u26_IHS_A_1.pdb
 36 36 0 0 0
SMALL
GASTEIGER

@<TRIPOS>ATOM
      1  C1        17.0260   34.1940   18.7210 C.3   2166  IHS2166     0.2070
      2  O1        16.3930   34.1620   17.4290 O.3   2166  IHS2166    -0.2383
      3  S1        15.9990   32.6880   16.7950 S.3   2166  IHS2166    -0.0001
      4  O4        14.8130   32.9200   15.8820 O.2   2166  IHS2166    -0.3452
      5  O3        17.3030   32.2440   16.0930 O.2   2166  IHS2166    -0.3452
      6  O2        15.6630   31.7200   17.9210 O.3   2166  IHS2166    -0.2682
      7  C2        16.2820   35.2040   19.6600 C.3   2166  IHS2166     0.2070
      8  O12       14.9950   34.7550   19.9010 O.3   2166  IHS2166    -0.2383
      9  S2        14.7670   34.4370   21.5130 S.3   2166  IHS2166    -0.0001
     10  O32       15.7400   33.3550   21.9530 O.2   2166  IHS2166    -0.3452
     11  O22       15.0250   35.7090   22.3100 O.3   2166  IHS2166    -0.2682
     12  O42       13.3280   33.9800   21.5310 O.2   2166  IHS2166    -0.3452
     13  C3        16.1570   36.6770   19.1380 C.3   2166  IHS2166     0.2070
     14  O13       15.3320   36.7910   17.8780 O.3   2166  IHS2166    -0.2383
     15  S3        13.7080   37.2850   17.8790 S.3   2166  IHS2166    -0.0001
     16  O33       13.2940   37.2280   16.4080 O.2   2166  IHS2166    -0.3452
     17  O23       12.9200   36.2920   18.7470 O.3   2166  IHS2166    -0.2682
     18  O43       13.6520   38.7050   18.4430 O.2   2166  IHS2166    -0.3452
     19  C4        17.5340   37.2470   18.8280 C.3   2166  IHS2166     0.2070
     20  O14       18.1120   37.8750   20.0160 O.3   2166  IHS2166    -0.2383
     21  S4        17.5130   39.2960   20.5790 S.3   2166  IHS2166    -0.0001
     22  O34       17.1170   39.9940   19.2690 O.2   2166  IHS2166    -0.3452
     23  O24       16.3750   38.9900   21.5700 O.3   2166  IHS2166    -0.2682
     24  O44       18.6760   40.0000   21.2600 O.2   2166  IHS2166    -0.3452
     25  C5        18.6550   36.3240   18.1920 C.3   2166  IHS2166     0.2070
     26  O15       18.4410   36.4250   16.8420 O.3   2166  IHS2166    -0.2383
     27  S5        19.5060   37.3660   15.9640 S.3   2166  IHS2166    -0.0001
     28  O35       20.4600   36.2820   15.4480 O.2   2166  IHS2166    -0.3452
     29  O25       18.5570   38.0200   14.9420 O.2   2166  IHS2166    -0.3452
     30  O45       20.2300   38.4390   16.7650 O.3   2166  IHS2166    -0.2682
     31  C6        18.5280   34.7650   18.6120 C.3   2166  IHS2166     0.2070
     32  O16       18.9330   34.5880   19.9710 O.3   2166  IHS2166    -0.2383
     33  S6        19.5080   33.1200   20.3820 S.3   2166  IHS2166    -0.0001
     34  O36       19.8560   33.2700   21.8590 O.3   2166  IHS2166    -0.2682
     35  O26       20.6640   32.7630   19.4630 O.2   2166  IHS2166    -0.3452
     36  O46       18.3440   32.1080   20.2150 O.2   2166  IHS2166    -0.3452
@<TRIPOS>BOND
     1    29    27    2
     2    28    27    2
     3     4     3    2
     4    27    30    1
     5    27    26    1
     6     5     3    2
     7    16    15    2
     8     3     2    1
     9     3     6    1
    10    26    25    1
    11     2     1    1
    12    14    15    1
    13    14    13    1
    14    15    18    2
    15    15    17    1
    16    25    31    1
    17    25    19    1
    18    31     1    1
    19    31    32    1
    20     1     7    1
    21    19    13    1
    22    19    20    1
    23    13     7    1
    24    22    21    2
    25    35    33    2
    26     7     8    1
    27     8     9    1
    28    32    33    1
    29    20    21    1
    30    36    33    2
    31    33    34    1
    32    21    24    2
    33    21    23    1
    34     9    12    2
    35     9    10    2
    36     9    11    1
