@<TRIPOS>MOLECULE
1u27_4IP_A_1.pdb
 28 28 0 0 0
SMALL
GASTEIGER

@<TRIPOS>ATOM
      1  C1         6.2140   28.6370    3.7450 C.3   101  4IP101      0.1917
      2  O1         6.5200   29.0630    2.3970 O.3   101  4IP101     -0.2673
      3  C2         7.4370   28.8910    4.6550 C.3   101  4IP101      0.2120
      4  O2         8.6190   28.3040    4.0760 O.3   101  4IP101     -0.2177
      5  C3         7.2260   28.3280    6.0570 C.3   101  4IP101      0.1890
      6  O3         8.4060   28.5110    6.8180 O.3   101  4IP101     -0.2674
      7  C4         6.8810   26.8400    6.0470 C.3   101  4IP101      0.1865
      8  O4         6.5520   26.4350    7.3780 O.3   101  4IP101     -0.2675
      9  C5         5.6990   26.4880    5.1160 C.3   101  4IP101      0.1890
     10  O5         5.6760   25.0650    4.9620 O.3   101  4IP101     -0.2674
     11  C6         5.7810   27.1490    3.7170 C.3   101  4IP101      0.2120
     12  O6         4.5000   27.0390    3.0820 O.3   101  4IP101     -0.2177
     13  P1         6.0470   30.5110    1.8080 P.3   101  4IP101      0.5327
     14  O1P        6.6070   30.5970    0.4320 O.2   101  4IP101     -0.2224
     15  O2P        6.6180   31.5620    2.7140 O.3   101  4IP101     -0.1145
     16  O3P        4.5470   30.5130    1.8260 O.3   101  4IP101     -0.1145
     17  P3         8.4200   29.4230    8.1460 P.3   101  4IP101      0.5327
     18  O4P        9.7850   29.2950    8.7160 O.3   101  4IP101     -0.1145
     19  O5P        8.1180   30.8140    7.7190 O.2   101  4IP101     -0.2224
     20  O6P        7.3820   28.8870    9.0570 O.3   101  4IP101     -0.1145
     21  P4         7.4690   25.4240    8.2420 P.3   101  4IP101      0.5327
     22  O7P        8.4570   24.8380    7.3020 O.2   101  4IP101     -0.2224
     23  O8P        8.1170   26.2400    9.2920 O.3   101  4IP101     -0.1145
     24  O9P        6.5440   24.3920    8.8140 O.3   101  4IP101     -0.1145
     25  P5         4.3510   24.1790    5.1910 P.3   101  4IP101      0.5327
     26  OPF        3.3140   25.0790    5.7820 O.3   101  4IP101     -0.1145
     27  OPG        3.9640   23.6680    3.8360 O.2   101  4IP101     -0.2224
     28  OPH        4.7450   23.0800    6.1230 O.3   101  4IP101     -0.1145
@<TRIPOS>BOND
     1    14    13    2
     2    13    16    1
     3    13     2    1
     4    13    15    1
     5     2     1    1
     6    12    11    1
     7    11     1    1
     8    11     9    1
     9     1     3    1
    10    27    25    2
    11     4     3    1
    12     3     5    1
    13    10     9    1
    14    10    25    1
    15     9     7    1
    16    25    26    1
    17    25    28    1
    18     7     5    1
    19     7     8    1
    20     5     6    1
    21     6    17    1
    22    22    21    2
    23     8    21    1
    24    19    17    2
    25    17    18    1
    26    17    20    1
    27    21    24    1
    28    21    23    1
