@<TRIPOS>MOLECULE
1u28_NAD_A_1.pdb
 44 48 0 0 0
SMALL
GASTEIGER

@<TRIPOS>ATOM
      1  PA        -7.9690    6.6500   26.5090 P.3   500  NAD500      0.2189
      2  O1A       -7.3090    5.5220   27.2130 O.3   500  NAD500     -0.4371
      3  O2A       -7.4320    7.9670   26.9650 O.2   500  NAD500     -0.5170
      4  O5B       -9.5580    6.5570   26.7340 O.3   500  NAD500     -0.3112
      5  C5B      -10.3000    5.4790   26.2030 C.3   500  NAD500      0.1813
      6  C4B      -11.5540    5.9640   25.4820 C.3   500  NAD500      0.1821
      7  O4B      -12.5310    6.4210   26.3990 O.3   500  NAD500     -0.3135
      8  C3B      -11.3160    7.1250   24.5150 C.3   500  NAD500      0.2184
      9  O3B      -11.6450    6.6920   23.2200 O.3   500  NAD500     -0.2174
     10  C2B      -12.2200    8.2530   25.0110 C.3   500  NAD500      0.2570
     11  O2B      -12.8010    9.0360   23.9900 O.3   500  NAD500     -0.2130
     12  C1B      -13.2640    7.4640   25.7850 C.3   500  NAD500      0.3186
     13  N9A      -14.0500    8.2690   26.7400 N.pl3 500  NAD500     -0.1439
     14  C8A      -13.6070    9.2440   27.5920 C.3   500  NAD500      0.3377
     15  N7A      -14.6700    9.7170   28.2760 N.2   500  NAD500     -0.2095
     16  C5A      -15.7820    9.0630   27.8760 C.2   500  NAD500      0.2526
     17  C6A      -17.1220    9.1620   28.2520 C.2   500  NAD500      0.4393
     18  N6A      -17.5360   10.3000   28.8040 N.pl3 500  NAD500      0.2180
     19  N1A      -18.0570    8.3220   27.6530 N.2   500  NAD500      0.0021
     20  C2A      -17.6630    7.4180   26.6820 C.3   500  NAD500      0.5254
     21  N3A      -16.3300    7.3360   26.3160 N.2   500  NAD500     -0.0055
     22  C4A      -15.4050    8.1460   26.9030 C.2   500  NAD500      0.3518
     23  O3        -7.8340    6.5170   24.9030 O.3   500  NAD500     -0.2703
     24  PN        -6.5740    5.8600   24.1410 P.3   500  NAD500      0.2189
     25  O1N       -6.6930    4.3880   24.2060 O.2   500  NAD500     -0.5170
     26  O2N       -5.3460    6.4800   24.6650 O.3   500  NAD500     -0.4371
     27  O5D       -6.7930    6.3030   22.6150 O.3   500  NAD500     -0.3112
     28  C5D       -7.5260    7.4510   22.2570 C.3   500  NAD500      0.1813
     29  C4D       -7.1150    7.9160   20.8630 C.3   500  NAD500      0.1799
     30  O4D       -5.7970    8.4340   20.9200 O.3   500  NAD500     -0.3327
     31  C3D       -7.1140    6.7980   19.8210 C.3   500  NAD500      0.2158
     32  O3D       -7.6190    7.2750   18.5910 O.3   500  NAD500     -0.2175
     33  C2D       -5.6480    6.4530   19.6760 C.3   500  NAD500      0.2309
     34  O2D       -5.2720    5.9690   18.4050 O.3   500  NAD500     -0.2158
     35  C1D       -5.0000    7.8000   19.9350 C.3   500  NAD500      0.2263
     36  N1N       -3.5840    7.6550   20.3360 N.pl3 500  NAD500     -0.2787
     37  C2N       -2.5850    8.2260   19.5870 C.3   500  NAD500      0.1244
     38  C3N       -1.2480    8.0930   19.9690 C.2   500  NAD500      0.0544
     39  C7N       -0.1580    8.4780   19.0010 C.2   500  NAD500      0.2818
     40  O7N       -0.4960    9.1200   17.7850 O.2   500  NAD500     -0.2670
     41  N7N        1.1170    8.2190   19.3010 N.am  500  NAD500     -0.0839
     42  C4N       -0.9430    7.3830   21.1370 C.2   500  NAD500      0.0033
     43  C5N       -1.9660    6.8030   21.8850 C.2   500  NAD500      0.0157
     44  C6N       -3.2870    6.9560   21.4800 C.2   500  NAD500      0.0633
@<TRIPOS>BOND
     1    40    39    2
     2    34    33    1
     3    32    31    1
     4    39    41   am
     5    39    38    1
     6    37    38    1
     7    37    36    1
     8    33    31    1
     9    33    35    1
    10    31    29    1
    11    35    36    1
    12    35    30    1
    13    38    42    2
    14    36    44    1
    15    29    30    1
    16    29    28    1
    17    42    43    1
    18    44    43    2
    19    28    27    1
    20    27    24    1
    21     9     8    1
    22    11    10    1
    23    24    25    2
    24    24    26    1
    25    24    23    1
    26     8    10    1
    27     8     6    1
    28    23     1    1
    29    10    12    1
    30     6     5    1
    31     6     7    1
    32    12     7    1
    33    12    13    1
    34     5     4    1
    35    21    20    1
    36    21    22    2
    37     1     4    1
    38     1     3    2
    39     1     2    1
    40    20    19    1
    41    13    22    1
    42    13    14    1
    43    22    16    1
    44    14    15    1
    45    19    17    2
    46    16    17    1
    47    16    15    2
    48    17    18    1
