@<TRIPOS>MOLECULE
1u28_NAP_C_1.pdb
 48 52 0 0 0
SMALL
GASTEIGER

@<TRIPOS>ATOM
      1  PA       -25.2770  -35.7530    7.5030 P.3   400  NAP400      0.2189
      2  O1A      -26.7070  -36.0860    7.4720 O.2   400  NAP400     -0.5170
      3  O2A      -24.5230  -36.8310    8.1850 O.3   400  NAP400     -0.4371
      4  O5B      -24.7550  -35.5750    5.9950 O.3   400  NAP400     -0.3112
      5  C5B      -23.6150  -34.8250    5.6680 C.3   400  NAP400      0.1813
      6  C4B      -23.5270  -34.7890    4.1530 C.3   400  NAP400      0.1820
      7  O4B      -22.5820  -33.8320    3.6900 O.3   400  NAP400     -0.3136
      8  C3B      -23.1320  -36.1550    3.6030 C.3   400  NAP400      0.2157
      9  O3B      -24.2480  -36.8030    3.0280 O.3   400  NAP400     -0.2175
     10  C2B      -22.0630  -35.8580    2.5760 C.3   400  NAP400      0.2314
     11  O2B      -22.4130  -36.2600    1.2700 O.3   400  NAP400     -0.2630
     12  C1B      -21.9210  -34.3430    2.5460 C.3   400  NAP400      0.3158
     13  N9A      -20.4970  -33.9730    2.4370 N.pl3 400  NAP400     -0.1439
     14  C8A      -19.4050  -34.5080    3.0900 C.3   400  NAP400      0.3377
     15  N7A      -18.2990  -33.8540    2.6550 N.2   400  NAP400     -0.2095
     16  C5A      -18.6720  -32.9340    1.7350 C.2   400  NAP400      0.2526
     17  C6A      -17.9600  -32.0050    0.9850 C.2   400  NAP400      0.4393
     18  N6A      -16.6840  -31.7570    1.2800 N.pl3 400  NAP400      0.2180
     19  N1A      -18.6470  -31.1730    0.1130 N.2   400  NAP400      0.0021
     20  C2A      -20.0210  -31.2570   -0.0210 C.3   400  NAP400      0.5254
     21  N3A      -20.7160  -32.1880    0.7290 N.2   400  NAP400     -0.0055
     22  C4A      -20.0500  -33.0040    1.5880 C.2   400  NAP400      0.3518
     23  O3       -25.1250  -34.2750    8.1600 O.3   400  NAP400     -0.2703
     24  PN       -26.3420  -33.3160    8.6560 P.3   400  NAP400      0.2189
     25  O1N      -27.3690  -33.1480    7.6080 O.2   400  NAP400     -0.5170
     26  O2N      -25.7470  -32.0780    9.1960 O.3   400  NAP400     -0.4371
     27  O5D      -26.9620  -34.2130    9.8470 O.3   400  NAP400     -0.3112
     28  C5D      -26.1470  -34.4910   10.9630 C.3   400  NAP400      0.1813
     29  C4D      -26.2460  -35.9300   11.4480 C.3   400  NAP400      0.1799
     30  O4D      -25.2460  -36.1330   12.4320 O.3   400  NAP400     -0.3327
     31  C3D      -27.5690  -36.2720   12.1180 C.3   400  NAP400      0.2158
     32  O3D      -27.9170  -37.6150   11.8450 O.3   400  NAP400     -0.2175
     33  C2D      -27.2760  -36.1360   13.5920 C.3   400  NAP400      0.2309
     34  O2D      -28.1080  -36.9160   14.4150 O.3   400  NAP400     -0.2158
     35  C1D      -25.8350  -36.6170   13.6310 C.3   400  NAP400      0.2263
     36  N1N      -25.1030  -36.1680   14.8330 N.pl3 400  NAP400     -0.2787
     37  C2N      -25.1780  -34.8590   15.2220 C.3   400  NAP400      0.1244
     38  C3N      -24.4890  -34.4410   16.3570 C.2   400  NAP400      0.0544
     39  C7N      -24.5580  -33.0120   16.7910 C.2   400  NAP400      0.2818
     40  O7N      -24.3910  -32.7290   18.1520 O.2   400  NAP400     -0.2670
     41  N7N      -24.7600  -32.0560   15.8940 N.am  400  NAP400     -0.0839
     42  C4N      -23.7120  -35.3480   17.0790 C.2   400  NAP400      0.0033
     43  C5N      -23.6400  -36.6760   16.6600 C.2   400  NAP400      0.0157
     44  C6N      -24.3430  -37.0740   15.5310 C.2   400  NAP400      0.0633
     45  P2B      -21.2420  -36.6470    0.2290 P.3   400  NAP400      0.5328
     46  O1X      -21.8740  -36.7510   -1.1360 O.2   400  NAP400     -0.2224
     47  O2X      -20.1900  -35.5880    0.1300 O.3   400  NAP400     -0.1145
     48  O3X      -20.6370  -37.9320    0.7530 O.3   400  NAP400     -0.1145
@<TRIPOS>BOND
     1    46    45    2
     2    20    19    1
     3    20    21    1
     4    19    17    2
     5    47    45    1
     6    45    48    1
     7    45    11    1
     8    21    22    2
     9    17    18    1
    10    17    16    1
    11    11    10    1
    12    22    16    1
    13    22    13    1
    14    16    15    2
    15    13    12    1
    16    13    14    1
    17    12    10    1
    18    12     7    1
    19    10     8    1
    20    15    14    1
    21     9     8    1
    22     8     6    1
    23     7     6    1
    24     6     5    1
    25     5     4    1
    26     4     1    1
    27     2     1    2
    28     1    23    1
    29     1     3    1
    30    25    24    2
    31    23    24    1
    32    24    26    1
    33    24    27    1
    34    27    28    1
    35    28    29    1
    36    29    31    1
    37    29    30    1
    38    32    31    1
    39    31    33    1
    40    30    35    1
    41    33    35    1
    42    33    34    1
    43    35    36    1
    44    36    37    1
    45    36    44    1
    46    37    38    1
    47    44    43    2
    48    41    39   am
    49    38    39    1
    50    38    42    2
    51    43    42    1
    52    39    40    2
