@<TRIPOS>MOLECULE
1u29_I3P_A_1.pdb
 24 24 0 0 0
SMALL
GASTEIGER

@<TRIPOS>ATOM
      1  C1         6.8910   28.5590    1.2350 C.3   101  I3P101      0.1918
      2  C2         7.4930   29.9280    1.4550 C.3   101  I3P101      0.2147
      3  C3         7.5710   30.2690    2.9350 C.3   101  I3P101      0.2146
      4  C4         8.4030   29.2420    3.6900 C.3   101  I3P101      0.1892
      5  C5         7.9220   27.8340    3.3670 C.3   101  I3P101      0.1891
      6  C6         7.7490   27.4920    1.8910 C.3   101  I3P101      0.2120
      7  O1         6.8370   28.2680   -0.1510 O.3   101  I3P101     -0.2673
      8  O2         8.7980   29.9550    0.9060 O.3   101  I3P101     -0.2176
      9  O3         8.1600   31.5350    3.0530 O.3   101  I3P101     -0.2176
     10  O4         8.2020   29.3900    5.1000 O.3   101  I3P101     -0.2674
     11  O5         8.8500   26.9480    3.9750 O.3   101  I3P101     -0.2674
     12  O6         7.0940   26.2360    1.7520 O.3   101  I3P101     -0.2177
     13  P1         5.4840   28.5020   -0.9800 P.3   101  I3P101      0.5327
     14  O11        5.8010   27.8910   -2.4080 O.2   101  I3P101     -0.2224
     15  O12        5.2570   30.0740   -1.0950 O.3   101  I3P101     -0.1145
     16  O13        4.2660   27.7580   -0.2940 O.3   101  I3P101     -0.1145
     17  P4         9.1500   30.2680    6.0630 P.3   101  I3P101      0.5327
     18  O41        8.5990   29.9160    7.4780 O.3   101  I3P101     -0.1145
     19  O42       10.6780   29.9130    5.8640 O.3   101  I3P101     -0.1145
     20  O43        8.9910   31.8080    5.7300 O.2   101  I3P101     -0.2224
     21  P5         8.3940   25.5600    4.6120 P.3   101  I3P101      0.5327
     22  O51        9.6180   25.0100    5.4350 O.3   101  I3P101     -0.1145
     23  O52        7.1600   25.8270    5.5610 O.3   101  I3P101     -0.1145
     24  O53        7.9720   24.4940    3.5260 O.2   101  I3P101     -0.2224
@<TRIPOS>BOND
     1    14    13    2
     2    15    13    1
     3    13    16    1
     4    13     7    1
     5     7     1    1
     6     8     2    1
     7     1     2    1
     8     1     6    1
     9     2     3    1
    10    12     6    1
    11     6     5    1
    12     3     9    1
    13     3     4    1
    14     5     4    1
    15     5    11    1
    16    24    21    2
    17     4    10    1
    18    11    21    1
    19    21    22    1
    20    21    23    1
    21    10    17    1
    22    20    17    2
    23    19    17    1
    24    17    18    1
