@<TRIPOS>MOLECULE
1u2d_NAD_A_1.pdb
 44 48 0 0 0
SMALL
GASTEIGER

@<TRIPOS>ATOM
      1  PA        -7.2180    6.3650   26.3770 P.3   500  NAD500      0.2189
      2  O1A       -6.5660    5.1780   27.0480 O.3   500  NAD500     -0.4371
      3  O2A       -6.6960    7.7590   26.6490 O.2   500  NAD500     -0.5170
      4  O5B       -8.7980    6.3440   26.6940 O.3   500  NAD500     -0.3112
      5  C5B       -9.5920    5.2480   26.2420 C.3   500  NAD500      0.1813
      6  C4B      -10.8370    5.6990   25.4830 C.3   500  NAD500      0.1821
      7  O4B      -11.8100    6.2250   26.3860 O.3   500  NAD500     -0.3135
      8  C3B      -10.6150    6.7850   24.4340 C.3   500  NAD500      0.2184
      9  O3B      -10.8760    6.2720   23.1380 O.3   500  NAD500     -0.2174
     10  C2B      -11.6200    7.8710   24.7670 C.3   500  NAD500      0.2570
     11  O2B      -12.2110    8.4110   23.5960 O.3   500  NAD500     -0.2130
     12  C1B      -12.6210    7.1460   25.6570 C.3   500  NAD500      0.3186
     13  N9A      -13.3910    8.0310   26.5730 N.pl3 500  NAD500     -0.1439
     14  C8A      -12.9090    8.9390   27.4630 C.3   500  NAD500      0.3377
     15  N7A      -13.9140    9.5700   28.1620 N.2   500  NAD500     -0.2095
     16  C5A      -15.0760    9.0550   27.7200 C.2   500  NAD500      0.2526
     17  C6A      -16.5400    9.1920   27.9490 C.2   500  NAD500      0.4393
     18  N6A      -17.0140   10.0690   28.8630 N.pl3 500  NAD500      0.2180
     19  N1A      -17.3970    8.4250   27.2300 N.2   500  NAD500      0.0021
     20  C2A      -17.0040    7.5280   26.3010 C.3   500  NAD500      0.5254
     21  N3A      -15.7090    7.3150   26.0070 N.2   500  NAD500     -0.0055
     22  C4A      -14.7070    8.0770   26.7110 C.2   500  NAD500      0.3518
     23  O3        -7.2770    6.1260   24.7860 O.3   500  NAD500     -0.2703
     24  PN        -6.0660    5.4940   23.9420 P.3   500  NAD500      0.2189
     25  O1N       -6.0040    4.0060   24.1980 O.3   500  NAD500     -0.4371
     26  O2N       -4.8440    6.3590   24.1360 O.2   500  NAD500     -0.5170
     27  O5D       -6.5970    5.7200   22.4400 O.3   500  NAD500     -0.3112
     28  C5D       -7.1780    6.9590   22.0300 C.3   500  NAD500      0.1813
     29  C4D       -6.7230    7.2930   20.6170 C.3   500  NAD500      0.1799
     30  O4D       -5.3460    7.6840   20.6380 O.3   500  NAD500     -0.3327
     31  C3D       -6.8310    6.1030   19.6720 C.3   500  NAD500      0.2158
     32  O3D       -7.4160    6.5200   18.4490 O.3   500  NAD500     -0.2175
     33  C2D       -5.4040    5.6380   19.4620 C.3   500  NAD500      0.2309
     34  O2D       -5.2090    5.0930   18.1670 O.3   500  NAD500     -0.2158
     35  C1D       -4.5900    6.9120   19.6950 C.3   500  NAD500      0.2263
     36  N1N       -3.2340    6.6150   20.1930 N.pl3 500  NAD500     -0.2787
     37  C2N       -2.2430    7.0480   19.4860 C.3   500  NAD500      0.1244
     38  C3N       -0.9410    6.8710   19.8170 C.2   500  NAD500      0.0544
     39  C7N        0.1420    7.3940   18.9610 C.2   500  NAD500      0.2818
     40  O7N       -0.1480    7.9050   17.8910 O.2   500  NAD500     -0.2670
     41  N7N        1.4300    7.3210   19.3120 N.am  500  NAD500     -0.0839
     42  C4N       -0.7370    6.1110   21.0980 C.2   500  NAD500      0.0033
     43  C5N       -1.9410    5.6550   21.8470 C.2   500  NAD500      0.0157
     44  C6N       -3.1180    5.9640   21.2990 C.2   500  NAD500      0.0633
@<TRIPOS>BOND
     1    40    39    2
     2    34    33    1
     3    32    31    1
     4    39    41   am
     5    39    38    1
     6    33    31    1
     7    33    35    1
     8    37    38    1
     9    37    36    1
    10    31    29    1
    11    35    36    1
    12    35    30    1
    13    38    42    2
    14    36    44    1
    15    29    30    1
    16    29    28    1
    17    42    43    1
    18    44    43    2
    19    28    27    1
    20    27    24    1
    21     9     8    1
    22    11    10    1
    23    24    26    2
    24    24    25    1
    25    24    23    1
    26     8    10    1
    27     8     6    1
    28    10    12    1
    29    23     1    1
    30     6     5    1
    31     6     7    1
    32    12     7    1
    33    12    13    1
    34    21    20    1
    35    21    22    2
    36     5     4    1
    37    20    19    1
    38     1     3    2
    39     1     4    1
    40     1     2    1
    41    13    22    1
    42    13    14    1
    43    22    16    1
    44    19    17    2
    45    14    15    1
    46    16    17    1
    47    16    15    2
    48    17    18    1
