@<TRIPOS>MOLECULE
1u2g_APR_A_1.pdb
 36 39 0 0 0
SMALL
GASTEIGER

@<TRIPOS>ATOM
      1  N1       -17.7570    8.3720   27.7230 N.2   500  APR500      0.0021
      2  C2       -17.3030    7.5410   26.7610 C.3   500  APR500      0.5254
      3  N3       -15.9960    7.4480   26.4470 N.2   500  APR500     -0.0055
      4  C4       -15.0920    8.2030   27.1130 C.2   500  APR500      0.3518
      5  C5       -15.4870    9.1140   28.1480 C.2   500  APR500      0.2526
      6  C6       -16.9360    9.1760   28.4410 C.2   500  APR500      0.4393
      7  N6       -17.4250    9.9970   29.4000 N.pl3 500  APR500      0.2180
      8  N7       -14.3480    9.7310   28.6390 N.2   500  APR500     -0.2095
      9  C8       -13.3240    9.1730   27.8880 C.3   500  APR500      0.3377
     10  N9       -13.7800    8.2660   26.9710 N.pl3 500  APR500     -0.1439
     11  C1'      -13.1150    7.3910   25.9720 C.3   500  APR500      0.3186
     12  C2'      -12.1660    8.1550   25.0440 C.3   500  APR500      0.2570
     13  O2'      -12.8110    8.6340   23.8790 O.3   500  APR500     -0.2130
     14  C3'      -11.0480    7.1790   24.7160 C.3   500  APR500      0.2184
     15  O3'      -11.2610    6.5190   23.4810 O.3   500  APR500     -0.2174
     16  O4'      -12.3050    6.4520   26.6770 O.3   500  APR500     -0.3135
     17  C4'      -11.1760    6.1860   25.8520 C.3   500  APR500      0.1821
     18  C5'      -10.1270    5.1070   26.2370 C.3   500  APR500      0.1813
     19  O5'       -9.1710    5.6930   27.1390 O.3   500  APR500     -0.3112
     20  PA        -7.7560    6.3410   26.6870 P.3   500  APR500      0.2189
     21  O1A       -7.6160    7.8280   27.2360 O.3   500  APR500     -0.4371
     22  O2A       -6.5660    5.4360   27.2340 O.2   500  APR500     -0.5170
     23  O3A       -7.7680    6.3650   25.0760 O.3   500  APR500     -0.2703
     24  PB        -6.5330    5.7890   24.2180 P.3   500  APR500      0.2189
     25  O1B       -6.4240    4.2160   24.3980 O.2   500  APR500     -0.5170
     26  O2B       -5.1680    6.4920   24.6280 O.3   500  APR500     -0.4371
     27  O5D       -6.9230    6.1550   22.7010 O.3   500  APR500     -0.3112
     28  C5D       -6.7930    7.4890   22.2070 C.3   500  APR500      0.1813
     29  O4D       -5.8940    6.1790   20.3590 O.3   500  APR500     -0.3237
     30  O1D       -7.1690    4.4380   19.4570 O.3   500  APR500     -0.1869
     31  C1D       -6.5560    5.6910   19.1870 C.3   500  APR500      0.3023
     32  O2D       -7.4010    7.1630   17.4510 O.3   500  APR500     -0.2148
     33  C2D       -7.6070    6.7170   18.7860 C.3   500  APR500      0.2433
     34  O3D       -7.2040    9.0870   19.1270 O.3   500  APR500     -0.2175
     35  C3D       -7.4880    7.8580   19.7820 C.3   500  APR500      0.2168
     36  C4D       -6.3610    7.4800   20.7390 C.3   500  APR500      0.1807
@<TRIPOS>BOND
     1    32    33    1
     2    33    31    1
     3    33    35    1
     4    34    35    1
     5    31    30    1
     6    31    29    1
     7    35    36    1
     8    29    36    1
     9    36    28    1
    10    28    27    1
    11    27    24    1
    12    15    14    1
    13    13    12    1
    14    24    25    2
    15    24    26    1
    16    24    23    1
    17    14    12    1
    18    14    17    1
    19    12    11    1
    20    23    20    1
    21    17    18    1
    22    17    16    1
    23    11    16    1
    24    11    10    1
    25    18    19    1
    26     3     2    1
    27     3     4    2
    28    20    19    1
    29    20    22    2
    30    20    21    1
    31     2     1    1
    32    10     4    1
    33    10     9    1
    34     4     5    1
    35     1     6    2
    36     9     8    1
    37     5     6    1
    38     5     8    2
    39     6     7    1
