@<TRIPOS>MOLECULE
1u2g_NDP_C_1.pdb
 48 52 0 0 0
SMALL
GASTEIGER

@<TRIPOS>ATOM
      1  PA       -25.1890  -36.1140    7.7110 P.3   400  NDP400      0.2189
      2  O1A      -26.5520  -36.6600    7.8450 O.2   400  NDP400     -0.5170
      3  O2A      -24.1850  -37.0710    8.2160 O.3   400  NDP400     -0.4371
      4  O5B      -24.9110  -35.7770    6.1760 O.3   400  NDP400     -0.3112
      5  C5B      -23.6780  -35.2150    5.8190 C.3   400  NDP400      0.1813
      6  C4B      -23.5940  -35.2600    4.3070 C.3   400  NDP400      0.1820
      7  O4B      -22.5430  -34.4320    3.8570 O.3   400  NDP400     -0.3136
      8  C3B      -23.3250  -36.6760    3.8110 C.3   400  NDP400      0.2157
      9  O3B      -24.4540  -37.2140    3.1560 O.3   400  NDP400     -0.2175
     10  C2B      -22.1480  -36.5420    2.8700 C.3   400  NDP400      0.2314
     11  O2B      -22.4470  -37.1180    1.6190 O.3   400  NDP400     -0.2630
     12  C1B      -21.9100  -35.0390    2.7530 C.3   400  NDP400      0.3158
     13  N9A      -20.4820  -34.6670    2.7270 N.pl3 400  NDP400     -0.1439
     14  C8A      -19.4610  -35.1370    3.5120 C.3   400  NDP400      0.3377
     15  N7A      -18.3180  -34.5130    3.1420 N.2   400  NDP400     -0.2095
     16  C5A      -18.5970  -33.6510    2.1390 C.2   400  NDP400      0.2526
     17  C6A      -17.8130  -32.7730    1.3950 C.2   400  NDP400      0.4393
     18  N6A      -16.5140  -32.6390    1.6450 N.pl3 400  NDP400      0.2180
     19  N1A      -18.4020  -32.0050    0.4130 N.2   400  NDP400      0.0021
     20  C2A      -19.7570  -32.1060    0.1620 C.3   400  NDP400      0.5254
     21  N3A      -20.5250  -32.9800    0.9020 N.2   400  NDP400     -0.0055
     22  C4A      -19.9550  -33.7390    1.8710 C.2   400  NDP400      0.3518
     23  O3       -25.0420  -34.6610    8.3920 O.3   400  NDP400     -0.2703
     24  PN       -26.2940  -33.7580    8.8570 P.3   400  NDP400      0.2189
     25  O1N      -27.3610  -33.8270    7.8430 O.2   400  NDP400     -0.5170
     26  O2N      -25.7670  -32.4370    9.2590 O.3   400  NDP400     -0.4371
     27  O5D      -26.7930  -34.5530   10.1640 O.3   400  NDP400     -0.3112
     28  C5D      -25.8940  -34.8420   11.2150 C.3   400  NDP400      0.1813
     29  C4D      -26.0410  -36.2850   11.6750 C.3   400  NDP400      0.1799
     30  O4D      -25.0330  -36.5650   12.6300 O.3   400  NDP400     -0.3327
     31  C3D      -27.3750  -36.5410   12.3610 C.3   400  NDP400      0.2158
     32  O3D      -27.8380  -37.8360   12.0510 O.3   400  NDP400     -0.2175
     33  C2D      -27.0440  -36.4260   13.8320 C.3   400  NDP400      0.2309
     34  O2D      -27.9140  -37.1690   14.6560 O.3   400  NDP400     -0.2158
     35  C1D      -25.6190  -36.9680   13.8560 C.3   400  NDP400      0.2263
     36  N1N      -24.8230  -36.5090   15.0150 N.pl3 400  NDP400     -0.2787
     37  C2N      -24.8280  -35.1870   15.3650 C.3   400  NDP400      0.1244
     38  C3N      -24.3550  -34.7620   16.6000 C.2   400  NDP400      0.0544
     39  C7N      -24.2900  -33.2950   16.9190 C.2   400  NDP400      0.2818
     40  O7N      -23.8300  -32.9170   18.1920 O.2   400  NDP400     -0.2670
     41  N7N      -24.6670  -32.3670   16.0370 N.am  400  NDP400     -0.0839
     42  C4N      -23.4700  -35.6750   17.4180 C.2   400  NDP400      0.0033
     43  C5N      -23.5060  -37.0960   16.9370 C.2   400  NDP400      0.0157
     44  C6N      -24.1570  -37.4420   15.7620 C.2   400  NDP400      0.0633
     45  P2B      -21.2790  -37.5350    0.5970 P.3   400  NDP400      0.5328
     46  O1X      -21.8990  -38.2610   -0.5690 O.2   400  NDP400     -0.2224
     47  O2X      -20.5960  -36.2860    0.1060 O.3   400  NDP400     -0.1145
     48  O3X      -20.2970  -38.4340    1.3030 O.3   400  NDP400     -0.1145
@<TRIPOS>BOND
     1    46    45    2
     2    47    45    1
     3    20    19    1
     4    20    21    1
     5    19    17    2
     6    45    48    1
     7    45    11    1
     8    21    22    2
     9    17    18    1
    10    17    16    1
    11    11    10    1
    12    22    16    1
    13    22    13    1
    14    16    15    2
    15    13    12    1
    16    13    14    1
    17    12    10    1
    18    12     7    1
    19    10     8    1
    20    15    14    1
    21     9     8    1
    22     8     6    1
    23     7     6    1
    24     6     5    1
    25     5     4    1
    26     4     1    1
    27     1     2    2
    28     1     3    1
    29     1    23    1
    30    25    24    2
    31    23    24    1
    32    24    26    1
    33    24    27    1
    34    27    28    1
    35    28    29    1
    36    29    31    1
    37    29    30    1
    38    32    31    1
    39    31    33    1
    40    30    35    1
    41    33    35    1
    42    33    34    1
    43    35    36    1
    44    36    37    1
    45    36    44    1
    46    37    38    1
    47    44    43    2
    48    41    39   am
    49    38    39    1
    50    38    42    2
    51    39    40    2
    52    43    42    1
