@<TRIPOS>MOLECULE
1u2o_NEC_A_1.pdb
 22 24 0 0 0
SMALL
GASTEIGER

@<TRIPOS>ATOM
      1  C5'     -118.5530  -37.6770   59.1200 C.2   1001  NEC1001     0.2714
      2  O5'     -118.4920  -36.4710   58.3920 O.2   1001  NEC1001    -0.2706
      3  N5'     -119.1520  -37.7270   60.4290 N.am  1001  NEC1001    -0.2033
      4  C51     -119.4760  -36.5140   61.1440 C.3   1001  NEC1001     0.1153
      5  C52     -118.7070  -36.5200   62.4630 C.3   1001  NEC1001     0.0253
      6  C4'     -118.0550  -38.9790   58.5530 C.3   1001  NEC1001     0.2293
      7  O4'     -119.0860  -39.5810   57.8250 O.3   1001  NEC1001    -0.3067
      8  C3'     -116.8730  -38.9030   57.5940 C.3   1001  NEC1001     0.2249
      9  O3'     -115.6270  -39.0300   58.2320 O.3   1001  NEC1001    -0.2170
     10  C2'     -117.1910  -40.0160   56.5900 C.3   1001  NEC1001     0.2574
     11  O2'     -116.6730  -41.2450   57.0730 O.3   1001  NEC1001    -0.2130
     12  C1'     -118.7470  -39.9750   56.4870 C.3   1001  NEC1001     0.3190
     13  N9      -119.1200  -38.9820   55.4340 N.pl3 1001  NEC1001    -0.1438
     14  C8      -119.6690  -37.7210   55.5780 C.3   1001  NEC1001     0.3377
     15  N7      -119.8800  -37.1220   54.4260 N.2   1001  NEC1001    -0.2095
     16  C5      -119.4650  -38.0410   53.4720 C.2   1001  NEC1001     0.2526
     17  C6      -119.4430  -38.0300   52.0380 C.2   1001  NEC1001     0.4393
     18  N6      -119.8750  -36.9850   51.3240 N.pl3 1001  NEC1001     0.2180
     19  N1      -118.9700  -39.1330   51.3750 N.2   1001  NEC1001     0.0021
     20  C2      -118.5320  -40.1930   52.0810 C.3   1001  NEC1001     0.5254
     21  N3      -118.4930  -40.3300   53.4240 N.2   1001  NEC1001    -0.0055
     22  C4      -118.9810  -39.2030   54.0750 C.2   1001  NEC1001     0.3518
@<TRIPOS>BOND
     1    18    17    1
     2    19    17    2
     3    19    20    1
     4    17    16    1
     5    20    21    1
     6    21    22    2
     7    16    22    1
     8    16    15    2
     9    22    13    1
    10    15    14    1
    11    13    14    1
    12    13    12    1
    13    12    10    1
    14    12     7    1
    15    10    11    1
    16    10     8    1
    17     8     9    1
    18     8     6    1
    19     7     6    1
    20     2     1    2
    21     6     1    1
    22     1     3   am
    23     3     4    1
    24     4     5    1
