@<TRIPOS>MOLECULE
1u2r_GDP_A_1.pdb
 28 30 0 0 0
SMALL
GASTEIGER

@<TRIPOS>ATOM
      1  PB        82.8180   37.0140  -20.2950 P.3   1920  GDP1920     0.5373
      2  O1B       83.0530   36.1750  -19.0930 O.3   1920  GDP1920    -0.1143
      3  O2B       82.8860   38.5080  -20.0250 O.3   1920  GDP1920    -0.1143
      4  O3B       81.5170   36.6460  -21.0310 O.2   1920  GDP1920    -0.2221
      5  O3A       84.0510   36.6720  -21.3610 O.3   1920  GDP1920    -0.2261
      6  PA        84.3080   37.1770  -22.8260 P.3   1920  GDP1920     0.2231
      7  O1A       83.8740   38.5780  -23.0160 O.3   1920  GDP1920    -0.4370
      8  O2A       83.7340   36.2030  -23.8330 O.2   1920  GDP1920    -0.5169
      9  O5'       85.8930   37.0670  -22.9320 O.3   1920  GDP1920    -0.3111
     10  C5'       86.7410   37.8680  -22.0990 C.3   1920  GDP1920     0.1813
     11  C4'       88.1100   37.9150  -22.7270 C.3   1920  GDP1920     0.1799
     12  O4'       88.6200   36.5410  -22.7760 O.3   1920  GDP1920    -0.3326
     13  C3'       88.1260   38.4760  -24.1690 C.3   1920  GDP1920     0.2158
     14  O3'       89.3740   39.2590  -24.2500 O.3   1920  GDP1920    -0.2175
     15  C2'       88.1850   37.2270  -25.0300 C.3   1920  GDP1920     0.2310
     16  O2'       88.7240   37.4710  -26.3000 O.3   1920  GDP1920    -0.2158
     17  C1'       88.9370   36.2330  -24.1140 C.3   1920  GDP1920     0.2293
     18  N9        88.5240   34.7340  -24.4210 N.pl3 1920  GDP1920    -0.2354
     19  C8        87.2490   34.2290  -24.5210 C.3   1920  GDP1920     0.2246
     20  N7        87.2870   32.9140  -24.7970 N.2   1920  GDP1920    -0.2322
     21  C5        88.6440   32.5900  -24.8690 C.2   1920  GDP1920     0.2182
     22  C6        89.3000   31.3480  -25.1430 C.1   1920  GDP1920     0.2372
     23  O6        88.7510   30.2590  -25.3690 O.2   1920  GDP1920    -0.2069
     24  N1        90.7130   31.4420  -25.1310 N.2   1920  GDP1920    -0.2485
     25  C2        91.3960   32.6290  -24.8850 C.1   1920  GDP1920     0.2531
     26  N2        92.7410   32.6010  -24.9010 N.pl3 1920  GDP1920    -0.0226
     27  N3        90.7750   33.7960  -24.6290 N.2   1920  GDP1920    -0.3074
     28  C4        89.4130   33.7040  -24.6460 C.2   1920  GDP1920     0.2300
@<TRIPOS>BOND
     1    16    15    1
     2    23    22    2
     3    22    24    2
     4    22    21    1
     5    24    25    2
     6    15    13    1
     7    15    17    1
     8    26    25    1
     9    25    27    2
    10    21    20    2
    11    21    28    1
    12    20    19    1
    13    28    27    2
    14    28    18    1
    15    19    18    1
    16    18    17    1
    17    14    13    1
    18    13    11    1
    19    17    12    1
    20     8     6    2
    21     7     6    1
    22     9     6    1
    23     9    10    1
    24     6     5    1
    25    12    11    1
    26    11    10    1
    27     5     1    1
    28     4     1    2
    29     1     3    1
    30     1     2    1
