@<TRIPOS>MOLECULE
1u2r_APR_A_1.pdb
 35 38 0 0 0
SMALL
GASTEIGER

@<TRIPOS>ATOM
      1  N1        97.9960   88.0210   55.9420 N.2   1699  APR1699     0.0021
      2  C2        99.0980   87.6460   55.1650 C.3   1699  APR1699     0.5254
      3  N3        99.2320   87.7200   53.8680 N.2   1699  APR1699    -0.0055
      4  C4        98.1300   88.2560   53.2910 C.2   1699  APR1699     0.3518
      5  C5        96.9590   88.6950   53.9230 C.2   1699  APR1699     0.2526
      6  C6        96.8930   88.5690   55.3280 C.2   1699  APR1699     0.4393
      7  N6        95.8420   88.9140   56.0650 N.pl3 1699  APR1699     0.2180
      8  N7        96.0450   89.1990   53.0020 N.2   1699  APR1699    -0.2095
      9  C8        96.6550   89.0360   51.8380 C.3   1699  APR1699     0.3377
     10  N9        97.9000   88.4540   51.9630 N.pl3 1699  APR1699    -0.1439
     11  C1'       98.8910   88.0670   50.9520 C.3   1699  APR1699     0.3186
     12  C2'       98.1010   87.5410   49.7830 C.3   1699  APR1699     0.2570
     13  O2'       98.1460   86.1140   49.7340 O.3   1699  APR1699    -0.2130
     14  C3'       98.6470   88.2460   48.5240 C.3   1699  APR1699     0.2184
     15  O3'       99.4690   87.4030   47.6790 O.3   1699  APR1699    -0.2174
     16  O4'       99.6120   89.1910   50.5480 O.3   1699  APR1699    -0.3135
     17  C4'       99.4220   89.4690   49.0840 C.3   1699  APR1699     0.1821
     18  C5'       98.3990   90.5410   49.4330 C.3   1699  APR1699     0.1813
     19  O5'       98.1170   91.4370   48.6830 O.3   1699  APR1699    -0.3112
     20  PA        97.3810   92.6350   49.4590 P.3   1699  APR1699     0.2189
     21  O1A       97.0860   93.7540   48.4790 O.2   1699  APR1699    -0.5170
     22  O2A       98.2380   93.0120   50.5020 O.3   1699  APR1699    -0.4371
     23  O3A       95.8770   92.1760   49.8440 O.3   1699  APR1699    -0.2703
     24  PB        94.7640   92.0980   48.6120 P.3   1699  APR1699     0.2189
     25  O1B       94.0220   93.2650   48.0480 O.3   1699  APR1699    -0.4371
     26  O2B       95.5440   91.5390   47.5660 O.2   1699  APR1699    -0.5170
     27  O5D       93.8850   90.9300   49.1040 O.3   1699  APR1699    -0.3112
     28  C5D       94.3070   89.9660   49.9990 C.3   1699  APR1699     0.1812
     29  O4D       94.0530   88.0180   48.9110 O.3   1699  APR1699    -0.3482
     30  C1D       94.5440   86.7190   49.3300 C.3   1699  APR1699     0.1777
     31  O2D       93.8390   85.6730   51.5060 O.3   1699  APR1699    -0.2176
     32  C2D       94.4080   86.8270   50.8630 C.3   1699  APR1699     0.2140
     33  O3D       92.1420   87.4690   51.6480 O.3   1699  APR1699    -0.2176
     34  C3D       93.4150   87.9520   51.1670 C.3   1699  APR1699     0.2140
     35  C4D       93.3730   88.8120   49.9480 C.3   1699  APR1699     0.1780
@<TRIPOS>BOND
     1    26    24    2
     2    15    14    1
     3    25    24    1
     4    21    20    2
     5    14    17    1
     6    14    12    1
     7    24    27    1
     8    24    23    1
     9    19    18    1
    10    19    20    1
    11    29    30    1
    12    29    35    1
    13    17    18    1
    14    17    16    1
    15    27    28    1
    16    30    32    1
    17    20    23    1
    18    20    22    1
    19    13    12    1
    20    12    11    1
    21    35    28    1
    22    35    34    1
    23    16    11    1
    24    32    34    1
    25    32    31    1
    26    11    10    1
    27    34    33    1
    28     9    10    1
    29     9     8    1
    30    10     4    1
    31     8     5    2
    32     4     3    2
    33     4     5    1
    34     3     2    1
    35     5     6    1
    36     2     1    1
    37     6     1    2
    38     6     7    1
