@<TRIPOS>MOLECULE
1u2r_SO1_A_1.pdb
 35 39 0 0 0
SMALL
GASTEIGER

@<TRIPOS>ATOM
      1  O14       73.3700   56.6840   18.3690 O.co2 1700  SO11700    -0.2457
      2  C5        74.5610   56.3240   18.3050 C.2   1700  SO11700     0.3643
      3  O15       75.5550   57.0770   18.1860 O.co2 1700  SO11700    -0.2457
      4  C1        74.8290   54.7540   18.3530 C.3   1700  SO11700     0.1025
      5  C4        75.4630   54.2380   16.9500 C.3   1700  SO11700     0.0107
      6  C12       75.3050   52.8270   17.0330 C.3   1700  SO11700     0.0006
      7  C6        74.6680   52.6030   18.4140 C.3   1700  SO11700     0.0033
      8  C10       75.8390   52.7310   19.4630 C.3   1700  SO11700     0.0080
      9  C3        75.7920   54.3070   19.6560 C.3   1700  SO11700     0.0681
     10  C11       77.1750   54.9950   19.4510 C.2   1700  SO11700     0.2071
     11  O19       78.2130   54.4320   19.1550 O.2   1700  SO11700    -0.2883
     12  C9        75.0430   54.7930   20.9790 C.3   1700  SO11700     0.0075
     13  C18       75.6260   54.6210   22.3670 C.3   1700  SO11700     0.0004
     14  C24       74.4390   55.0720   23.2420 C.3   1700  SO11700     0.0000
     15  C22       73.1290   54.6900   22.4830 C.3   1700  SO11700     0.0000
     16  C25       72.2780   55.9570   22.2690 C.3   1700  SO11700     0.0000
     17  C16       73.6720   54.0240   21.2050 C.3   1700  SO11700     0.0005
     18  C7        72.7970   53.9880   19.9250 C.3   1700  SO11700     0.0030
     19  C2        73.6420   53.7740   18.5380 C.3   1700  SO11700     0.0376
     20  C8        72.4460   53.7630   17.5160 C.3   1700  SO11700     0.1453
     21  O17       71.8550   52.4780   17.5550 O.3   1700  SO11700    -0.3286
     22  C52       70.7940   52.3110   16.6770 C.3   1700  SO11700     0.2694
     23  O56       69.7540   53.3390   16.9200 O.3   1700  SO11700    -0.3285
     24  C56       68.6340   53.2550   16.0040 C.3   1700  SO11700     0.1475
     25  C61       67.6510   54.3820   16.3540 C.3   1700  SO11700     0.0348
     26  C55       67.9620   51.8270   16.0830 C.3   1700  SO11700     0.1752
     27  O64       66.8570   51.7240   15.1480 O.3   1700  SO11700    -0.3484
     28  C65       65.5640   51.6040   15.7510 C.3   1700  SO11700     0.1742
     29  C54       69.0190   50.7370   15.7580 C.3   1700  SO11700     0.2165
     30  O60       69.5150   50.9390   14.4330 O.3   1700  SO11700    -0.2175
     31  C53       70.1910   50.8440   16.7580 C.3   1700  SO11700     0.2404
     32  O57       69.6950   50.5980   18.0720 O.3   1700  SO11700    -0.2149
     33  C13       76.0890   55.0780   15.8270 C.3   1700  SO11700     0.0005
     34  C20       77.2180   54.3150   15.0890 C.3   1700  SO11700     0.0000
     35  C21       75.0480   55.5430   14.7770 C.3   1700  SO11700     0.0000
@<TRIPOS>BOND
     1    30    29    1
     2    35    33    1
     3    34    33    1
     4    27    28    1
     5    27    26    1
     6    29    26    1
     7    29    31    1
     8    33     5    1
     9    24    26    1
    10    24    25    1
    11    24    23    1
    12    22    31    1
    13    22    23    1
    14    22    21    1
    15    31    32    1
    16     5     6    1
    17     5     4    1
    18     6     7    1
    19    20    21    1
    20    20    19    1
    21     3     2   ar
    22     2     4    1
    23     2     1   ar
    24     4    19    1
    25     4     9    1
    26     7    19    1
    27     7     8    1
    28    19    18    1
    29    11    10    2
    30    10     9    1
    31     8     9    1
    32     9    12    1
    33    18    17    1
    34    12    17    1
    35    12    13    1
    36    17    15    1
    37    16    15    1
    38    13    14    1
    39    15    14    1
