@<TRIPOS>MOLECULE
1u2s_GLC_A_1.pdb
 12 12 0 0 0
SMALL
GASTEIGER

@<TRIPOS>ATOM
      1  C1        46.0600    1.8040   95.1890 C.3   245  GLC245      0.3024
      2  C2        45.0480    1.9460   94.0480 C.3   245  GLC245      0.2434
      3  C3        45.3380    0.9030   92.9580 C.3   245  GLC245      0.2199
      4  C4        46.8100    0.9610   92.5210 C.3   245  GLC245      0.2144
      5  C5        47.7610    0.9550   93.7270 C.3   245  GLC245      0.1836
      6  C6        49.1680    1.2840   93.2880 C.3   245  GLC245      0.2142
      7  O1        45.8350    2.7900   96.1370 O.3   245  GLC245     -0.1869
      8  O2        43.7290    1.7730   94.5560 O.3   245  GLC245     -0.2148
      9  O3        44.5030    1.1430   91.8320 O.3   245  GLC245     -0.2174
     10  O4        47.1050   -0.1530   91.6880 O.3   245  GLC245     -0.2176
     11  O5        47.3890    1.9730   94.6830 O.3   245  GLC245     -0.3236
     12  O6        49.2030    2.5450   92.6340 O.3   245  GLC245     -0.2176
@<TRIPOS>BOND
     1    10     4    1
     2     9     3    1
     3     4     3    1
     4     4     5    1
     5    12     6    1
     6     3     2    1
     7     6     5    1
     8     5    11    1
     9     2     8    1
    10     2     1    1
    11    11     1    1
    12     1     7    1
