@<TRIPOS>MOLECULE
1u2t_SUP_A_1.pdb
 27 28 0 0 0
SMALL
GASTEIGER

@<TRIPOS>ATOM
      1  C1        45.4170    1.5740   95.3610 C.3   245  SUP245      0.2713
      2  C2        44.5720    1.5290   94.0420 C.3   245  SUP245      0.2406
      3  C3        45.0800    0.3840   93.1150 C.3   245  SUP245      0.2198
      4  C4        46.5440    0.6860   92.7720 C.3   245  SUP245      0.2144
      5  C5        47.4030    0.7570   94.0790 C.3   245  SUP245      0.1835
      6  C6        48.8780    1.0770   93.8090 C.3   245  SUP245      0.2142
      7  O1        45.0250    0.4040   96.0260 O.3   245  SUP245     -0.3033
      8  O2        43.1890    1.3110   94.3980 O.3   245  SUP245     -0.2149
      9  O3        44.3070    0.3370   91.8990 O.3   245  SUP245     -0.2174
     10  O4        47.0310   -0.2830   91.9560 O.3   245  SUP245     -0.2176
     11  O5        46.8680    1.7890   94.9700 O.3   245  SUP245     -0.3256
     12  O6        49.0070    2.4280   93.3060 O.3   245  SUP245     -0.2176
     13  C1'       43.5770    0.5470   98.1170 C.3   245  SUP245      0.2406
     14  C2'       44.9820    0.4900   97.5070 C.3   245  SUP245      0.2516
     15  C3'       45.8220   -0.6780   98.0160 C.3   245  SUP245      0.2381
     16  C4'       47.1860   -0.1810   98.2200 C.3   245  SUP245      0.2166
     17  C5'       46.7760    1.1070   98.7720 C.3   245  SUP245      0.1807
     18  C6'       47.8470    2.1690   98.6910 C.3   245  SUP245      0.1859
     19  O1'       42.5650    0.5120   97.1180 O.3   245  SUP245     -0.2149
     20  O2'       45.6420    1.5330   98.0420 O.3   245  SUP245     -0.3273
     21  O3'       45.8980   -1.7620   97.0800 O.3   245  SUP245     -0.2150
     22  O4'       47.9550   -0.8520   99.2130 O.3   245  SUP245     -0.2175
     23  O6'       47.2620    3.4500   98.8300 O.3   245  SUP245     -0.2675
     24  P         48.4970    4.7100   98.7580 P.3   245  SUP245      0.5327
     25  O10       48.7170    4.8480   97.2870 O.2   245  SUP245     -0.2224
     26  O11       47.8390    5.9160   99.3070 O.3   245  SUP245     -0.1145
     27  O12       49.7980    4.5090   99.4320 O.3   245  SUP245     -0.1145
@<TRIPOS>BOND
     1     9     3    1
     2    10     4    1
     3     4     3    1
     4     4     5    1
     5     3     2    1
     6    12     6    1
     7     6     5    1
     8     2     8    1
     9     2     1    1
    10     5    11    1
    11    11     1    1
    12     1     7    1
    13     7    14    1
    14    21    15    1
    15    19    13    1
    16    25    24    2
    17    14    15    1
    18    14    20    1
    19    14    13    1
    20    15    16    1
    21    20    17    1
    22    16    17    1
    23    16    22    1
    24    18    17    1
    25    18    23    1
    26    24    23    1
    27    24    26    1
    28    24    27    1
