@<TRIPOS>MOLECULE
1u2v_ADP_A_1.pdb
 27 29 0 0 0
SMALL
GASTEIGER

@<TRIPOS>ATOM
      1  PB        23.3400   13.5840   44.1090 P.3   1001  ADP1001     0.5373
      2  O1B       22.3860   13.0940   45.3090 O.3   1001  ADP1001    -0.1143
      3  O2B       22.3910   13.7520   42.8190 O.2   1001  ADP1001    -0.2221
      4  O3B       24.0440   14.8420   44.4500 O.3   1001  ADP1001    -0.1143
      5  PA        23.8630   10.8480   43.6980 P.3   1001  ADP1001     0.2231
      6  O1A       24.6650   10.0900   44.6850 O.3   1001  ADP1001    -0.4370
      7  O2A       22.3880   10.8010   43.8100 O.2   1001  ADP1001    -0.5169
      8  O3A       24.3520   12.3810   43.7630 O.3   1001  ADP1001    -0.2261
      9  O5'       24.2780   10.3820   42.2130 O.3   1001  ADP1001    -0.3111
     10  C5'       25.2630   11.0870   41.4540 C.3   1001  ADP1001     0.1813
     11  C4'       25.6280   10.3030   40.1900 C.3   1001  ADP1001     0.1821
     12  O4'       26.5370   11.0950   39.4030 O.3   1001  ADP1001    -0.3135
     13  C3'       26.3730    9.0140   40.5500 C.3   1001  ADP1001     0.2184
     14  O3'       26.0780    7.9960   39.5900 O.3   1001  ADP1001    -0.2174
     15  C2'       27.8310    9.4540   40.4230 C.3   1001  ADP1001     0.2570
     16  O2'       28.6510    8.3100   40.1700 O.3   1001  ADP1001    -0.2130
     17  C1'       27.6940   10.2820   39.1450 C.3   1001  ADP1001     0.3186
     18  N9        28.8650   11.1470   38.8650 N.pl3 1001  ADP1001    -0.1439
     19  C8        29.4510   11.9790   39.7260 C.3   1001  ADP1001     0.3377
     20  N7        30.4160   12.6530   39.1070 N.2   1001  ADP1001    -0.2095
     21  C5        30.4510   12.2480   37.8410 C.2   1001  ADP1001     0.2526
     22  C6        31.2240   12.6060   36.7430 C.2   1001  ADP1001     0.4393
     23  N6        32.1570   13.5480   36.8460 N.pl3 1001  ADP1001     0.2180
     24  N1        30.9860   11.9700   35.5190 N.2   1001  ADP1001     0.0021
     25  C2        29.9780   10.9990   35.4340 C.3   1001  ADP1001     0.5254
     26  N3        29.2620   10.6880   36.4980 N.2   1001  ADP1001    -0.0055
     27  C4        29.4660   11.2800   37.6900 C.2   1001  ADP1001     0.3518
@<TRIPOS>BOND
     1    25    24    1
     2    25    26    1
     3    24    22    2
     4    26    27    2
     5    22    23    1
     6    22    21    1
     7    27    21    1
     8    27    18    1
     9    21    20    2
    10    18    17    1
    11    18    19    1
    12    20    19    1
    13    17    12    1
    14    17    15    1
    15    12    11    1
    16    14    13    1
    17    16    15    1
    18    11    13    1
    19    11    10    1
    20    15    13    1
    21    10     9    1
    22     9     5    1
    23     3     1    2
    24     5     8    1
    25     5     7    2
    26     5     6    1
    27     8     1    1
    28     1     4    1
    29     1     2    1
