@<TRIPOS>MOLECULE
1u2y_GOX_A_1.pdb
 13 13 0 0 0
SMALL
GASTEIGER

@<TRIPOS>ATOM
      1  C1         9.1350   16.4340   42.9910 C.2   499  GOX499      0.4163
      2  N1        10.2050   17.2690   42.8140 N.4   499  GOX499      0.1455
      3  C2         8.4950   16.3800   44.3910 C.3   499  GOX499      0.2978
      4  N5         8.6150   15.7960   41.8660 N.2   499  GOX499     -0.0582
      5  O7        10.7640   17.3790   41.6350 O.3   499  GOX499      0.0696
      6  O2         9.3840   16.2620   45.5060 O.3   499  GOX499     -0.2066
      7  C3         7.3450   15.3510   44.5020 C.3   499  GOX499      0.2291
      8  O3         6.5500   15.7180   45.6290 O.3   499  GOX499     -0.2168
      9  C4         6.4930   15.3880   43.2420 C.3   499  GOX499      0.2365
     10  O4         5.3840   14.4830   43.3570 O.3   499  GOX499     -0.2155
     11  C5         7.4210   14.9360   42.0700 C.3   499  GOX499      0.2803
     12  C6         6.6430   14.9140   40.7310 C.3   499  GOX499      0.2377
     13  O6         6.0150   16.1700   40.4700 O.3   499  GOX499     -0.2155
@<TRIPOS>BOND
     1    13    12    1
     2    12    11    1
     3     5     2    1
     4     4    11    1
     5     4     1    2
     6    11     9    1
     7     2     1    1
     8     1     3    1
     9     9    10    1
    10     9     7    1
    11     3     7    1
    12     3     6    1
    13     7     8    1
