@<TRIPOS>MOLECULE
1u2z_SAH_A_1.pdb
 26 28 0 0 0
SMALL
GASTEIGER

@<TRIPOS>ATOM
      1  N         29.4860   17.2370   -5.0820 N.3   801  SAH801     -0.1159
      2  CA        30.2500   16.4090   -6.0710 C.3   801  SAH801      0.2168
      3  CB        29.3450   16.6080   -7.1020 C.2   801  SAH801      0.0105
      4  CG        29.4860   15.7130   -8.2170 C.2   801  SAH801      0.0284
      5  SD        28.3320   15.9570   -9.6890 S.3   801  SAH801     -0.1108
      6  C         31.6960   16.9410   -6.1420 C.2   801  SAH801      0.3860
      7  O         31.8200   18.2410   -6.0530 O.co2 801  SAH801     -0.2437
      8  OXT       32.6820   16.1460   -6.4560 O.co2 801  SAH801     -0.2437
      9  C5'       26.8350   15.5590   -8.7190 C.3   801  SAH801      0.0945
     10  C4'       26.4570   14.0990   -8.7140 C.3   801  SAH801      0.1634
     11  O4'       25.0910   13.9370   -8.2970 O.3   801  SAH801     -0.3152
     12  C3'       26.4970   13.4380  -10.0820 C.3   801  SAH801      0.2168
     13  O3'       27.7660   12.8190  -10.2510 O.3   801  SAH801     -0.2175
     14  C2'       25.3990   12.3660  -10.0470 C.3   801  SAH801      0.2569
     15  O2'       25.8630   11.0360  -10.0660 O.3   801  SAH801     -0.2130
     16  C1'       24.6720   12.6710   -8.7370 C.3   801  SAH801      0.3185
     17  N9        23.2150   12.5710   -8.7250 N.pl3 801  SAH801     -0.1439
     18  C8        22.2870   13.1050   -9.5890 C.3   801  SAH801      0.3377
     19  N7        21.0500   12.7790   -9.3000 N.2   801  SAH801     -0.2095
     20  C5        21.1720   11.9830   -8.1680 C.2   801  SAH801      0.2526
     21  C6        20.2250   11.3240   -7.3720 C.2   801  SAH801      0.4393
     22  N6        18.9120   11.3560   -7.6090 N.pl3 801  SAH801      0.2180
     23  N1        20.6780   10.6190   -6.3080 N.2   801  SAH801      0.0021
     24  C2        21.9990   10.5850   -6.0760 C.3   801  SAH801      0.5254
     25  N3        22.9840   11.1620   -6.7530 N.2   801  SAH801     -0.0055
     26  C4        22.4980   11.8540   -7.7990 C.2   801  SAH801      0.3518
@<TRIPOS>BOND
     1    13    12    1
     2    12    14    1
     3    12    10    1
     4    15    14    1
     5    14    16    1
     6     5     9    1
     7     5     4    1
     8    18    19    1
     9    18    17    1
    10    19    20    2
    11    16    17    1
    12    16    11    1
    13    17    26    1
    14     9    10    1
    15    10    11    1
    16     4     3    2
    17    20    26    1
    18    20    21    1
    19    26    25    2
    20    22    21    1
    21    21    23    2
    22     3     2    1
    23    25    24    1
    24     8     6   ar
    25    23    24    1
    26     6     2    1
    27     6     7   ar
    28     2     1    1
