@<TRIPOS>MOLECULE
1u30_GOX_A_1.pdb
 13 13 0 0 0
SMALL
GASTEIGER

@<TRIPOS>ATOM
      1  C1         5.0370   14.4920   42.5780 C.2   500  GOX500      0.4163
      2  N1         5.6730   14.2830   43.7430 N.4   500  GOX500      0.1455
      3  C2         5.8710   14.3910   41.2840 C.3   500  GOX500      0.2978
      4  N5         3.6860   14.7380   42.6570 N.2   500  GOX500     -0.0582
      5  O7         5.0770   14.3230   44.9140 O.3   500  GOX500      0.0696
      6  O2         7.1730   14.9800   41.2000 O.3   500  GOX500     -0.2066
      7  C3         5.0070   14.7290   40.0480 C.3   500  GOX500      0.2291
      8  O3         5.7030   14.0940   38.9790 O.3   500  GOX500     -0.2168
      9  C4         3.5580   14.1600   40.2450 C.3   500  GOX500      0.2365
     10  O4         2.7590   14.4190   39.0850 O.3   500  GOX500     -0.2155
     11  C5         2.8930   14.9590   41.4340 C.3   500  GOX500      0.2803
     12  C6         1.4770   14.5870   41.8280 C.3   500  GOX500      0.2377
     13  O6         1.2300   13.1830   41.6700 O.3   500  GOX500     -0.2155
@<TRIPOS>BOND
     1     8     7    1
     2    10     9    1
     3     7     9    1
     4     7     3    1
     5     9    11    1
     6     6     3    1
     7     3     1    1
     8    11    12    1
     9    11     4    1
    10    13    12    1
    11     1     4    2
    12     1     2    1
    13     2     5    1
