@<TRIPOS>MOLECULE
1u30_LAG_A_1.pdb
 35 37 0 0 0
SMALL
GASTEIGER

@<TRIPOS>ATOM
      1  CA1       10.7110   17.2350   44.4640 C.2   501  LAG501      0.4163
      2  NA1        9.6910   17.3800   45.3240 N.4   501  LAG501      0.1455
      3  OA7        8.9230   16.3330   45.5530 O.3   501  LAG501      0.0696
      4  CA2       11.4850   18.4720   44.1490 C.3   501  LAG501      0.2976
      5  OA2       10.7450   19.5500   44.4870 O.3   501  LAG501     -0.2066
      6  CA3       11.8580   18.4690   42.6530 C.3   501  LAG501      0.2260
      7  OA3       12.5990   19.5400   42.4210 O.3   501  LAG501     -0.2169
      8  CA4       12.5870   17.1750   42.3050 C.3   501  LAG501      0.2025
      9  OA4       12.6880   16.9880   41.0220 O.3   501  LAG501     -0.3237
     10  CA5       11.9770   15.9190   42.8090 C.3   501  LAG501      0.2771
     11  NA5       10.9870   15.9990   43.8580 N.2   501  LAG501     -0.0584
     12  CA6       13.1170   15.1160   43.5000 C.3   501  LAG501      0.2376
     13  OA6       13.3360   15.6350   44.7140 O.3   501  LAG501     -0.2155
     14  CB1       13.8040   17.7190   40.5000 C.3   501  LAG501      0.2696
     15  CB2       13.4180   17.9930   38.9950 C.3   501  LAG501      0.2404
     16  CB3       13.5040   16.6700   38.1480 C.3   501  LAG501      0.2167
     17  CB4       14.9380   16.1110   38.2570 C.3   501  LAG501      0.1804
     18  CB5       15.1900   15.7880   39.8290 C.3   501  LAG501      0.1803
     19  CB6       16.5840   15.1950   40.0700 C.3   501  LAG501      0.2141
     20  OB2       12.0830   18.4970   38.9150 O.3   501  LAG501     -0.2149
     21  OB3       13.1770   16.9710   36.7750 O.3   501  LAG501     -0.2175
     22  OB4       15.0370   14.9320   37.4880 O.3   501  LAG501     -0.3257
     23  OB5       15.0890   17.0300   40.5950 O.3   501  LAG501     -0.3257
     24  OB6       17.5680   15.9730   39.4490 O.3   501  LAG501     -0.2176
     25  CD1       16.2260   14.9020   36.6640 C.3   501  LAG501      0.2695
     26  CD2       15.8690   14.9080   35.1350 C.3   501  LAG501      0.2406
     27  CD3       15.0670   13.6000   34.8000 C.3   501  LAG501      0.2198
     28  CD4       15.9550   12.3950   35.1340 C.3   501  LAG501      0.2144
     29  CD5       16.3220   12.4300   36.6840 C.3   501  LAG501      0.1835
     30  CD6       17.2280   11.2210   37.0500 C.3   501  LAG501      0.2142
     31  OD2       15.0890   16.0630   34.8560 O.3   501  LAG501     -0.2149
     32  OD3       14.7480   13.5670   33.4250 O.3   501  LAG501     -0.2174
     33  OD4       15.2560   11.2030   34.8460 O.3   501  LAG501     -0.2176
     34  OD5       17.0230   13.6960   36.9760 O.3   501  LAG501     -0.3256
     35  OD6       18.5810   11.4270   36.5600 O.3   501  LAG501     -0.2176
@<TRIPOS>BOND
     1    32    27    1
     2    27    28    1
     3    27    26    1
     4    33    28    1
     5    31    26    1
     6    28    29    1
     7    26    25    1
     8    35    30    1
     9    25    34    1
    10    25    22    1
    11    29    34    1
    12    29    30    1
    13    21    16    1
    14    22    17    1
    15    16    17    1
    16    16    15    1
    17    17    18    1
    18    20    15    1
    19    15    14    1
    20    24    19    1
    21    18    19    1
    22    18    23    1
    23    14    23    1
    24    14     9    1
    25     9     8    1
    26     8     6    1
    27     8    10    1
    28     7     6    1
    29     6     4    1
    30    10    12    1
    31    10    11    1
    32    12    13    1
    33    11     1    2
    34     4     1    1
    35     4     5    1
    36     1     2    1
    37     2     3    1
