@<TRIPOS>MOLECULE
1u31_NAP_A_1.pdb
 48 52 0 0 0
SMALL
GASTEIGER

@<TRIPOS>ATOM
      1  PA        41.9200   27.9490   24.2580 P.3   300  NAP300      0.2189
      2  O1A       41.9400   26.4820   24.3620 O.2   300  NAP300     -0.5170
      3  O2A       42.4480   28.5690   25.4900 O.3   300  NAP300     -0.4371
      4  O5B       42.7100   28.3680   22.9360 O.3   300  NAP300     -0.3112
      5  C5B       43.5420   29.4930   22.8740 C.3   300  NAP300      0.1813
      6  C4B       44.1790   29.4100   21.5020 C.3   300  NAP300      0.1820
      7  O4B       44.8620   30.6080   21.2300 O.3   300  NAP300     -0.3136
      8  C3B       45.1960   28.2780   21.4380 C.3   300  NAP300      0.2157
      9  O3B       44.6640   27.1780   20.7350 O.3   300  NAP300     -0.2175
     10  C2B       46.4000   28.8720   20.7340 C.3   300  NAP300      0.2314
     11  O2B       46.6490   28.2130   19.5150 O.3   300  NAP300     -0.2630
     12  C1B       46.0160   30.3200   20.4750 C.3   300  NAP300      0.3158
     13  N9A       47.0940   31.2530   20.8380 N.pl3 300  NAP300     -0.1439
     14  C8A       47.8720   31.2700   21.9680 C.3   300  NAP300      0.3377
     15  N7A       48.7330   32.3100   21.8720 N.2   300  NAP300     -0.2095
     16  C5A       48.5120   32.9520   20.7050 C.2   300  NAP300      0.2526
     17  C6A       49.0960   34.0650   20.1100 C.2   300  NAP300      0.4393
     18  N6A       50.0070   34.7820   20.7640 N.pl3 300  NAP300      0.2180
     19  N1A       48.6350   34.4890   18.8770 N.2   300  NAP300      0.0021
     20  C2A       47.6070   33.8180   18.2380 C.3   300  NAP300      0.5254
     21  N3A       47.0300   32.7170   18.8360 N.2   300  NAP300     -0.0055
     22  C4A       47.4810   32.2960   20.0460 C.2   300  NAP300      0.3518
     23  O3        40.4220   28.3740   23.8840 O.3   300  NAP300     -0.2703
     24  PN        39.6730   29.6660   24.4740 P.3   300  NAP300      0.2189
     25  O1N       38.7000   30.0630   23.4390 O.2   300  NAP300     -0.5170
     26  O2N       40.6550   30.6550   24.9530 O.3   300  NAP300     -0.4371
     27  O5D       38.8970   29.0030   25.7220 O.3   300  NAP300     -0.3112
     28  C5D       39.4300   29.0270   27.0280 C.3   300  NAP300      0.1813
     29  C4D       39.7100   27.6170   27.5470 C.3   300  NAP300      0.1799
     30  O4D       40.3000   27.7070   28.8320 O.3   300  NAP300     -0.3327
     31  C3D       38.4510   26.7760   27.7040 C.3   300  NAP300      0.2158
     32  O3D       38.7300   25.4460   27.3370 O.3   300  NAP300     -0.2175
     33  C2D       38.1550   26.8050   29.1850 C.3   300  NAP300      0.2309
     34  O2D       37.5600   25.6060   29.6290 O.3   300  NAP300     -0.2158
     35  C1D       39.5310   27.0060   29.7940 C.3   300  NAP300      0.2263
     36  N1N       39.4400   27.7470   31.0640 N.pl3 300  NAP300     -0.2787
     37  C2N       38.8970   29.0060   31.1080 C.3   300  NAP300      0.1244
     38  C3N       38.8140   29.6960   32.3170 C.2   300  NAP300      0.0544
     39  C7N       37.9890   30.9480   32.4150 C.2   300  NAP300      0.2818
     40  O7N       37.4260   31.3040   33.6560 O.2   300  NAP300     -0.2670
     41  N7N       37.8040   31.7020   31.3310 N.am  300  NAP300     -0.0839
     42  C4N       39.2920   29.0900   33.4790 C.2   300  NAP300      0.0033
     43  C5N       39.8440   27.8120   33.4210 C.2   300  NAP300      0.0157
     44  C6N       39.9120   27.1480   32.2000 C.2   300  NAP300      0.0633
     45  P2B       48.0920   28.2560   18.8020 P.3   300  NAP300      0.5328
     46  O1X       48.4650   29.6940   18.5370 O.3   300  NAP300     -0.1145
     47  O2X       49.1260   27.6080   19.6920 O.3   300  NAP300     -0.1145
     48  O3X       48.0050   27.5170   17.4920 O.2   300  NAP300     -0.2224
@<TRIPOS>BOND
     1    48    45    2
     2    20    21    1
     3    20    19    1
     4    46    45    1
     5    45    11    1
     6    45    47    1
     7    21    22    2
     8    19    17    2
     9    11    10    1
    10    22    16    1
    11    22    13    1
    12    17    16    1
    13    17    18    1
    14    12    10    1
    15    12    13    1
    16    12     7    1
    17    16    15    2
    18    10     8    1
    19     9     8    1
    20    13    14    1
    21     7     6    1
    22     8     6    1
    23     6     5    1
    24    15    14    1
    25     5     4    1
    26     4     1    1
    27    25    24    2
    28    23     1    1
    29    23    24    1
    30     1     2    2
    31     1     3    1
    32    24    26    1
    33    24    27    1
    34    27    28    1
    35    28    29    1
    36    32    31    1
    37    29    31    1
    38    29    30    1
    39    31    33    1
    40    30    35    1
    41    33    34    1
    42    33    35    1
    43    35    36    1
    44    36    37    1
    45    36    44    1
    46    37    38    1
    47    41    39   am
    48    44    43    2
    49    38    39    1
    50    38    42    2
    51    39    40    2
    52    43    42    1
