@<TRIPOS>MOLECULE
1u33_LM2_A_1.pdb
 36 38 0 0 0
SMALL
GASTEIGER

@<TRIPOS>ATOM
      1  CA1       10.3360   16.8890   44.0860 C.2   500  LM2500      0.4163
      2  NA1        9.2880   16.8530   44.8950 N.4   500  LM2500      0.1455
      3  OA7        8.6360   15.7060   44.9990 O.3   500  LM2500      0.0696
      4  CA2       11.1090   18.2140   43.9450 C.3   500  LM2500      0.2976
      5  OA2       10.3900   19.2630   44.3750 O.3   500  LM2500     -0.2066
      6  CA3       11.6250   18.3380   42.4680 C.3   500  LM2500      0.2260
      7  OA3       12.3060   19.4680   42.3240 O.3   500  LM2500     -0.2169
      8  CA4       12.4680   17.0690   42.0790 C.3   500  LM2500      0.2025
      9  OA4       12.5150   16.9670   40.7580 O.3   500  LM2500     -0.3237
     10  CA5       11.8660   15.7440   42.4260 C.3   500  LM2500      0.2771
     11  NA5       10.7440   15.7130   43.3830 N.2   500  LM2500     -0.0584
     12  CA6       12.9780   14.8440   43.0540 C.3   500  LM2500      0.2376
     13  OA6       13.4420   15.3890   44.2240 O.3   500  LM2500     -0.2155
     14  CB1       13.5910   17.6860   40.1720 C.3   500  LM2500      0.2696
     15  CB2       13.2430   17.9250   38.6260 C.3   500  LM2500      0.2404
     16  CB3       13.2910   16.6000   37.7800 C.3   500  LM2500      0.2167
     17  CB4       14.7350   16.0160   37.9190 C.3   500  LM2500      0.1804
     18  CB5       14.9820   15.6980   39.5370 C.3   500  LM2500      0.1803
     19  CB6       16.3540   15.1180   39.8180 C.3   500  LM2500      0.2141
     20  OB2       11.9500   18.5710   38.5590 O.3   500  LM2500     -0.2149
     21  OB3       12.9890   16.9230   36.4000 O.3   500  LM2500     -0.2175
     22  OB4       14.8150   14.8200   37.1620 O.3   500  LM2500     -0.3257
     23  OB5       14.8860   16.9700   40.2910 O.3   500  LM2500     -0.3257
     24  OB6       17.3490   15.9470   39.3210 O.3   500  LM2500     -0.2176
     25  CD1       16.0640   14.7590   36.3950 C.3   500  LM2500      0.2695
     26  CD2       15.8740   14.7870   34.8250 C.3   500  LM2500      0.2404
     27  CD3       15.0460   13.4970   34.4010 C.3   500  LM2500      0.2166
     28  CD4       15.8670   12.2280   34.7950 C.3   500  LM2500      0.1779
     29  CD5       16.0960   12.2360   36.4160 C.3   500  LM2500      0.1802
     30  CD6       16.9370   11.0050   36.8650 C.3   500  LM2500      0.2141
     31  OD2       15.1700   16.0020   34.4990 O.3   500  LM2500     -0.2149
     32  OD3       14.8680   13.4950   33.0070 O.3   500  LM2500     -0.2175
     33  OD4       15.1380   11.0070   34.4260 O.3   500  LM2500     -0.3483
     34  OD5       16.8100   13.5050   36.7820 O.3   500  LM2500     -0.3257
     35  OD6       18.2470   11.0200   36.2860 O.3   500  LM2500     -0.2176
     36  CD7       15.8470   10.1330   33.5070 C.3   500  LM2500      0.1742
@<TRIPOS>BOND
     1    32    27    1
     2    36    33    1
     3    27    28    1
     4    27    26    1
     5    33    28    1
     6    31    26    1
     7    28    29    1
     8    26    25    1
     9    35    30    1
    10    25    34    1
    11    25    22    1
    12    21    16    1
    13    29    34    1
    14    29    30    1
    15    22    17    1
    16    16    17    1
    17    16    15    1
    18    17    18    1
    19    20    15    1
    20    15    14    1
    21    24    19    1
    22    18    19    1
    23    18    23    1
    24    14    23    1
    25    14     9    1
    26     9     8    1
    27     8    10    1
    28     8     6    1
    29     7     6    1
    30    10    12    1
    31    10    11    1
    32     6     4    1
    33    12    13    1
    34    11     1    2
    35     4     1    1
    36     4     5    1
    37     1     2    1
    38     2     3    1
