@<TRIPOS>MOLECULE
1u3c_NDS_A_1.pdb
 12 11 0 0 0
SMALL
GASTEIGER

@<TRIPOS>ATOM
      1  O3        69.8740   -8.7210   84.8010 O.3   512  NDS512     -0.3075
      2  S1        71.0730   -8.8490   83.9080 S.3   512  NDS512     -0.1961
      3  O1        72.3730   -8.7950   84.6520 O.3   512  NDS512     -0.3075
      4  O2        71.0530   -7.9220   82.7290 O.3   512  NDS512     -0.3075
      5  C4        71.0010  -10.5460   83.2200 C.3   512  NDS512      0.1031
      6  C3        70.4590  -10.6420   81.7890 C.3   512  NDS512     -0.0007
      7  C2        69.0630  -11.2650   81.7490 C.3   512  NDS512     -0.0715
      8  N1        69.0220  -12.5920   81.1070 N.4   512  NDS512      0.3871
      9  C1        70.0650  -13.4680   81.6650 C.3   512  NDS512     -0.0959
     10  C7        67.6980  -13.1730   81.3860 C.3   512  NDS512     -0.0959
     11  C5        69.2000  -12.4470   79.6550 C.3   512  NDS512     -0.0733
     12  C6        69.1120  -13.7800   78.9100 C.3   512  NDS512     -0.0244
@<TRIPOS>BOND
     1    12    11    1
     2    11     8    1
     3     8    10    1
     4     8     9    1
     5     8     7    1
     6     7     6    1
     7     6     5    1
     8     4     2    1
     9     5     2    1
    10     2     3    1
    11     2     1    1
