@<TRIPOS>MOLECULE
1u3d_NDS_A_1.pdb
 12 11 0 0 0
SMALL
GASTEIGER

@<TRIPOS>ATOM
      1  O3        69.8560   -8.4480   85.0440 O.3   512  NDS512     -0.3075
      2  S1        71.0290   -8.7120   84.1390 S.3   512  NDS512     -0.1961
      3  O1        72.3430   -8.7190   84.8520 O.3   512  NDS512     -0.3075
      4  O2        71.0450   -7.8840   82.8990 O.3   512  NDS512     -0.3075
      5  C4        70.8050  -10.4530   83.5820 C.3   512  NDS512      0.1031
      6  C3        70.4330  -10.6440   82.1130 C.3   512  NDS512     -0.0007
      7  C2        69.0330  -11.2510   81.9790 C.3   512  NDS512     -0.0715
      8  N1        68.9940  -12.5800   81.3380 N.4   512  NDS512      0.3871
      9  C1        70.0530  -13.4600   81.8670 C.3   512  NDS512     -0.0959
     10  C7        67.6750  -13.1430   81.6310 C.3   512  NDS512     -0.0959
     11  C5        69.1590  -12.4340   79.8810 C.3   512  NDS512     -0.0733
     12  C6        69.0180  -13.7700   79.1490 C.3   512  NDS512     -0.0244
@<TRIPOS>BOND
     1    12    11    1
     2    11     8    1
     3     8    10    1
     4     8     9    1
     5     8     7    1
     6     7     6    1
     7     6     5    1
     8     4     2    1
     9     5     2    1
    10     2     3    1
    11     2     1    1
