@<TRIPOS>MOLECULE
1u3d_ANP_A_1.pdb
 31 33 0 0 0
SMALL
GASTEIGER

@<TRIPOS>ATOM
      1  PG        63.2790   -8.0170   59.2270 P.3   511  ANP511      0.4884
      2  O1G       62.3960   -8.6800   58.2450 O.2   511  ANP511     -0.2331
      3  O2G       64.7650   -7.8110   58.6380 O.3   511  ANP511     -0.1240
      4  O3G       63.4410   -8.8980   60.5670 O.3   511  ANP511     -0.1240
      5  PB        63.3260   -5.7500   60.9290 P.3   511  ANP511      0.4669
      6  O1B       64.7820   -6.0160   61.0420 O.2   511  ANP511     -0.2351
      7  O2B       62.4740   -6.0720   62.0920 O.3   511  ANP511     -0.1253
      8  N3B       62.7460   -6.5550   59.6580 N.3   511  ANP511     -0.0163
      9  PA        61.8050   -3.3540   60.9070 P.3   511  ANP511      0.2220
     10  O1A       61.7150   -2.2370   59.9570 O.2   511  ANP511     -0.5170
     11  O2A       60.6370   -4.2770   61.0170 O.3   511  ANP511     -0.4370
     12  O3A       63.1170   -4.2060   60.5150 O.3   511  ANP511     -0.2360
     13  O5'       62.1490   -2.7840   62.3750 O.3   511  ANP511     -0.3111
     14  C5'       62.3060   -3.6730   63.4860 C.3   511  ANP511      0.1813
     15  C4'       61.5340   -3.1970   64.7190 C.3   511  ANP511      0.1821
     16  O4'       61.9620   -1.9140   65.2040 O.3   511  ANP511     -0.3135
     17  C3'       60.0460   -3.0200   64.4200 C.3   511  ANP511      0.2184
     18  O3'       59.4100   -4.2990   64.4430 O.3   511  ANP511     -0.2174
     19  C2'       59.6610   -2.1910   65.6420 C.3   511  ANP511      0.2570
     20  O2'       59.7910   -2.9320   66.8600 O.3   511  ANP511     -0.2130
     21  C1'       60.7920   -1.1620   65.5820 C.3   511  ANP511      0.3186
     22  N9        60.5400   -0.1430   64.5380 N.pl3 511  ANP511     -0.1439
     23  C8        60.9060   -0.2350   63.2580 C.3   511  ANP511      0.3377
     24  N7        60.6300    0.9120   62.6360 N.2   511  ANP511     -0.2095
     25  C5        60.0850    1.7270   63.5190 C.2   511  ANP511      0.2526
     26  C6        59.6210    3.0430   63.4390 C.2   511  ANP511      0.4393
     27  N6        59.7080    3.7030   62.2980 N.pl3 511  ANP511      0.2180
     28  N1        59.0900    3.6330   64.5940 N.2   511  ANP511      0.0021
     29  C2        59.0420    2.8930   65.7860 C.3   511  ANP511      0.5254
     30  N3        59.4930    1.6590   65.8230 N.2   511  ANP511     -0.0055
     31  C4        60.0120    1.0580   64.7360 C.2   511  ANP511      0.3518
@<TRIPOS>BOND
     1     2     1    2
     2     3     1    1
     3     1     8    1
     4     1     4    1
     5     8     5    1
     6    10     9    2
     7    12     9    1
     8    12     5    1
     9     9    11    1
    10     9    13    1
    11     5     6    2
    12     5     7    1
    13    27    26    1
    14    13    14    1
    15    24    23    1
    16    24    25    2
    17    23    22    1
    18    26    25    1
    19    26    28    2
    20    14    15    1
    21    25    31    1
    22    17    18    1
    23    17    15    1
    24    17    19    1
    25    22    31    1
    26    22    21    1
    27    28    29    1
    28    15    16    1
    29    31    30    2
    30    16    21    1
    31    21    19    1
    32    19    20    1
    33    29    30    1
