@<TRIPOS>MOLECULE
1u3f_ADP_A_1.pdb
 27 29 0 0 0
SMALL
GASTEIGER

@<TRIPOS>ATOM
      1  PB        -3.0890   14.3930   21.6420 P.3   201  ADP201      0.5373
      2  O1B       -1.7770   14.9270   22.0830 O.3   201  ADP201     -0.1143
      3  O2B       -2.9360   13.2200   20.5360 O.2   201  ADP201     -0.2221
      4  O3B       -3.9780   15.4740   21.1230 O.3   201  ADP201     -0.1143
      5  PA        -5.1090   12.9780   23.1490 P.3   201  ADP201      0.2231
      6  O1A       -6.1740   13.6250   22.3650 O.2   201  ADP201     -0.5169
      7  O2A       -5.0070   11.5540   22.8170 O.3   201  ADP201     -0.4370
      8  O3A       -3.7310   13.6820   22.8710 O.3   201  ADP201     -0.2261
      9  O5'       -5.2970   13.2240   24.7050 O.3   201  ADP201     -0.3111
     10  C5'       -5.4160   14.5550   25.2070 C.3   201  ADP201      0.1813
     11  C4'       -5.6830   14.5170   26.7130 C.3   201  ADP201      0.1821
     12  O4'       -6.1110   15.8370   27.0650 O.3   201  ADP201     -0.3135
     13  C3'       -6.8180   13.5810   27.1230 C.3   201  ADP201      0.2184
     14  O3'       -6.5290   12.8780   28.3450 O.3   201  ADP201     -0.2174
     15  C2'       -8.0390   14.4690   27.3210 C.3   201  ADP201      0.2570
     16  O2'       -8.9700   13.9820   28.2960 O.3   201  ADP201     -0.2130
     17  C1'       -7.4400   15.8310   27.6290 C.3   201  ADP201      0.3186
     18  N9        -8.2520   16.9230   26.9930 N.pl3 201  ADP201     -0.1439
     19  C8        -8.1900   17.2650   25.6910 C.3   201  ADP201      0.3377
     20  N7        -9.0350   18.2680   25.4520 N.2   201  ADP201     -0.2095
     21  C5        -9.6410   18.5780   26.5750 C.2   201  ADP201      0.2526
     22  C6       -10.6020   19.5140   26.9570 C.2   201  ADP201      0.4393
     23  N6       -11.1130   20.3610   26.0520 N.pl3 201  ADP201      0.2180
     24  N1       -11.0260   19.5670   28.2600 N.2   201  ADP201      0.0021
     25  C2       -10.5330   18.7250   29.2080 C.3   201  ADP201      0.5254
     26  N3        -9.6020   17.8160   28.8480 N.2   201  ADP201     -0.0055
     27  C4        -9.1360   17.7080   27.5770 C.2   201  ADP201      0.3518
@<TRIPOS>BOND
     1     3     1    2
     2     4     1    1
     3     1     2    1
     4     1     8    1
     5     6     5    2
     6     7     5    1
     7     8     5    1
     8     5     9    1
     9     9    10    1
    10    10    11    1
    11    20    19    1
    12    20    21    2
    13    19    18    1
    14    23    22    1
    15    21    22    1
    16    21    27    1
    17    11    12    1
    18    11    13    1
    19    22    24    2
    20    18    27    1
    21    18    17    1
    22    12    17    1
    23    13    15    1
    24    13    14    1
    25    15    17    1
    26    15    16    1
    27    27    26    2
    28    24    25    1
    29    26    25    1
