@<TRIPOS>MOLECULE
1u3g_ADP_A_1.pdb
 27 29 0 0 0
SMALL
GASTEIGER

@<TRIPOS>ATOM
      1  PB         3.3700   17.4800   20.2870 P.3   301  ADP301      0.5373
      2  O1B        4.8090   17.7450   20.0990 O.3   301  ADP301     -0.1143
      3  O2B        2.8810   16.1290   19.5470 O.2   301  ADP301     -0.2221
      4  O3B        2.5490   18.6200   19.8300 O.3   301  ADP301     -0.1143
      5  PA         1.9080   16.6270   22.6080 P.3   301  ADP301      0.2231
      6  O1A        0.7270   17.4300   22.2530 O.2   301  ADP301     -0.5169
      7  O2A        1.7140   15.2010   22.2850 O.3   301  ADP301     -0.4370
      8  O3A        3.1380   17.1840   21.7990 O.3   301  ADP301     -0.2261
      9  O5'        2.3340   16.7990   24.1310 O.3   301  ADP301     -0.3111
     10  C5'        2.5750   18.0810   24.7150 C.3   301  ADP301      0.1813
     11  C4'        2.1690   18.0170   26.1990 C.3   301  ADP301      0.1821
     12  O4'        2.1180   19.3640   26.6760 O.3   301  ADP301     -0.3135
     13  C3'        0.7840   17.4070   26.4310 C.3   301  ADP301      0.2184
     14  O3'        0.8480   16.2360   27.2520 O.3   301  ADP301     -0.2174
     15  C2'       -0.0720   18.4630   27.1290 C.3   301  ADP301      0.2570
     16  O2'       -0.6000   18.0310   28.3960 O.3   301  ADP301     -0.2130
     17  C1'        0.8140   19.7050   27.1890 C.3   301  ADP301      0.3186
     18  N9         0.2290   20.8480   26.3850 N.pl3 301  ADP301     -0.1439
     19  C8         0.2210   20.9300   25.0420 C.3   301  ADP301      0.3377
     20  N7        -0.3690   22.0620   24.6640 N.2   301  ADP301     -0.2095
     21  C5        -0.7420   22.7130   25.7330 C.2   301  ADP301      0.2526
     22  C6        -1.3910   23.9280   25.9810 C.2   301  ADP301      0.4393
     23  N6        -1.7730   24.7020   24.9570 N.pl3 301  ADP301      0.2180
     24  N1        -1.6380   24.3310   27.2740 N.2   301  ADP301      0.0021
     25  C2        -1.2650   23.5710   28.3390 C.3   301  ADP301      0.5254
     26  N3        -0.6350   22.3920   28.1110 N.2   301  ADP301     -0.0055
     27  C4        -0.3590   21.9330   26.8550 C.2   301  ADP301      0.3518
@<TRIPOS>BOND
     1     3     1    2
     2     4     1    1
     3     2     1    1
     4     1     8    1
     5     8     5    1
     6     6     5    2
     7     7     5    1
     8     5     9    1
     9     9    10    1
    10    20    19    1
    11    20    21    2
    12    10    11    1
    13    23    22    1
    14    19    18    1
    15    21    22    1
    16    21    27    1
    17    22    24    2
    18    11    13    1
    19    11    12    1
    20    18    27    1
    21    18    17    1
    22    13    15    1
    23    13    14    1
    24    12    17    1
    25    27    26    2
    26    15    17    1
    27    15    16    1
    28    24    25    1
    29    26    25    1
