@<TRIPOS>MOLECULE
1u3g_THF_A_1.pdb
 34 36 0 0 0
SMALL
GASTEIGER

@<TRIPOS>ATOM
      1  N1        13.0870   23.5990   15.9920 N.2   501  THF501     -0.1759
      2  C2        13.2770   22.4760   15.2990 C.1   501  THF501      0.1939
      3  NA2       14.2570   22.5350   14.2070 N.pl3 501  THF501     -0.0341
      4  N3        12.8130   21.3800   15.3750 N.2   501  THF501     -0.2633
      5  C4        11.7510   21.3060   16.2440 C.1   501  THF501      0.2086
      6  O4        10.6660   20.4810   15.9960 O.2   501  THF501     -0.2119
      7  C4A       11.7980   22.1290   17.4390 C.3   501  THF501      0.2202
      8  N5        10.6700   22.3990   18.2620 N.3   501  THF501     -0.2271
      9  C6        10.7770   23.3960   19.4420 C.3   501  THF501      0.0999
     10  C7        11.4680   24.6330   18.9500 C.3   501  THF501      0.1086
     11  N8        11.7800   24.4690   17.6510 N.3   501  THF501     -0.1921
     12  C8A       12.5240   23.3890   17.2130 C.3   501  THF501      0.2202
     13  C9        11.5250   22.8500   20.6550 C.3   501  THF501      0.1296
     14  N10       11.5580   21.3760   20.6540 N.pl3 501  THF501     -0.2361
     15  C11       13.2840   18.9100   23.7420 C.ar  501  THF501      0.0551
     16  C12       12.6420   18.3600   22.5700 C.ar  501  THF501      0.0059
     17  C13       12.0820   19.1660   21.5370 C.ar  501  THF501      0.0162
     18  C14       12.1680   20.5720   21.7060 C.ar  501  THF501      0.0654
     19  C15       12.8020   21.1660   22.8590 C.ar  501  THF501      0.0162
     20  C16       13.3650   20.3420   23.8840 C.ar  501  THF501      0.0059
     21  C         13.8090   17.9540   24.7190 C.2   501  THF501      0.2652
     22  O         13.0100   17.4050   25.4980 O.2   501  THF501     -0.2684
     23  N         15.1430   17.6650   24.8050 N.am  501  THF501     -0.1918
     24  CA        15.6610   16.5090   25.5780 C.3   501  THF501      0.1986
     25  CB        16.7910   15.9780   24.8000 C.3   501  THF501      0.0451
     26  CG        16.8640   14.4520   24.9020 C.3   501  THF501      0.1164
     27  CD        17.9470   13.8420   25.8370 C.2   501  THF501      0.3649
     28  OE1       17.5810   13.2840   26.8940 O.co2 501  THF501     -0.2457
     29  OE2       19.1530   13.9150   25.5280 O.co2 501  THF501     -0.2457
     30  CT        15.9770   16.7540   27.0980 C.2   501  THF501      0.3842
     31  O1        17.0340   17.3510   27.4050 O.co2 501  THF501     -0.2437
     32  O2        15.1850   16.3580   27.9760 O.co2 501  THF501     -0.2437
     33  CP1        9.3210   21.8080   18.0660 C.3   501  THF501      0.2599
     34  O3         8.6870   22.0090   16.7800 O.3   501  THF501     -0.2005
@<TRIPOS>BOND
     1     3     2    1
     2     2     4    2
     3     2     1    2
     4     4     5    2
     5     1    12    1
     6     6     5    2
     7     5     7    1
     8    34    33    1
     9    12     7    1
    10    12    11    1
    11     7     8    1
    12    11    10    1
    13    33     8    1
    14     8     9    1
    15    10     9    1
    16     9    13    1
    17    14    13    1
    18    14    18    1
    19    17    18   ar
    20    17    16   ar
    21    18    19   ar
    22    16    15   ar
    23    19    20   ar
    24    15    20   ar
    25    15    21    1
    26    21    23   am
    27    21    22    2
    28    25    26    1
    29    25    24    1
    30    23    24    1
    31    26    27    1
    32    29    27   ar
    33    24    30    1
    34    27    28   ar
    35    30    31   ar
    36    30    32   ar
