@<TRIPOS>MOLECULE
1u3i_GSH_A_1.pdb
 20 19 0 0 0
SMALL
GASTEIGER

@<TRIPOS>ATOM
      1  N1         7.1410   53.3610   36.6800 N.3   301  GSH301     -0.1208
      2  CA1        8.2230   54.1640   36.1330 C.3   301  GSH301      0.1948
      3  C1         8.1130   54.3940   34.6620 C.2   301  GSH301      0.3819
      4  O11        7.8020   55.3880   33.9800 O.co2 301  GSH301     -0.2441
      5  O12        8.4120   53.3270   34.1300 O.co2 301  GSH301     -0.2441
      6  CB1        9.1670   54.9320   37.0420 C.3   301  GSH301      0.0402
      7  CG1        9.8540   56.1210   36.3920 C.3   301  GSH301      0.0889
      8  CD1       11.0540   56.4300   37.2410 C.2   301  GSH301      0.2418
      9  OE1       11.3400   55.6120   38.3390 O.2   301  GSH301     -0.2733
     10  N2        11.7960   57.4700   36.8990 N.am  301  GSH301     -0.1968
     11  CA2       13.1090   57.7190   37.4640 C.3   301  GSH301      0.1843
     12  C2        13.2100   59.1740   37.8380 C.2   301  GSH301      0.2627
     13  O2        12.5930   60.1040   37.0030 O.2   301  GSH301     -0.2714
     14  CB2       14.2070   57.4210   36.4350 C.3   301  GSH301      0.0997
     15  SG2       13.9560   55.8080   35.6400 S.3   301  GSH301     -0.0797
     16  N3        13.9060   59.5230   38.9140 N.am  301  GSH301     -0.1917
     17  CA3       14.4790   60.8630   39.1180 C.3   301  GSH301      0.2285
     18  C3        13.6540   61.6150   40.1380 C.2   301  GSH301      0.3865
     19  O31       12.6060   61.0690   40.5540 O.co2 301  GSH301     -0.2437
     20  O32       13.9570   62.7580   40.5620 O.co2 301  GSH301     -0.2437
@<TRIPOS>BOND
     1     4     3   ar
     2     5     3   ar
     3     3     2    1
     4    15    14    1
     5     2     1    1
     6     2     6    1
     7     7     6    1
     8     7     8    1
     9    14    11    1
    10    10     8   am
    11    10    11    1
    12    13    12    2
    13     8     9    2
    14    11    12    1
    15    12    16   am
    16    16    17    1
    17    17    18    1
    18    18    19   ar
    19    18    20   ar
