@<TRIPOS>MOLECULE
1u3l_CDP_A_1.pdb
 25 26 0 0 0
SMALL
GASTEIGER

@<TRIPOS>ATOM
      1  O3B       14.6490   30.9310    7.1800 O.3   669  CDP669     -0.1143
      2  PB        14.4790   29.2780    7.0060 P.3   669  CDP669      0.5373
      3  O1B       13.7620   28.9810    5.5880 O.2   669  CDP669     -0.2221
      4  O2B       15.8600   28.5820    7.0730 O.3   669  CDP669     -0.1143
      5  O3A       13.6070   28.6830    8.3080 O.3   669  CDP669     -0.2261
      6  PA        11.9760   28.5730    8.2000 P.3   669  CDP669      0.2231
      7  O1A       11.4850   27.4860    9.1520 O.3   669  CDP669     -0.4370
      8  O2A       11.5180   28.3530    6.7190 O.2   669  CDP669     -0.5169
      9  O5'       11.3000   29.9730    8.5780 O.3   669  CDP669     -0.3111
     10  C5'       10.9520   30.1500    9.8730 C.3   669  CDP669      0.1813
     11  C4'       10.8840   31.5370   10.2200 C.3   669  CDP669      0.1799
     12  O4'        9.6350   32.0190   10.6810 O.3   669  CDP669     -0.3320
     13  C3'       11.7820   31.4850   11.4300 C.3   669  CDP669      0.2158
     14  O3'       12.9030   32.2740   11.1020 O.3   669  CDP669     -0.2175
     15  C2'       10.9490   32.0150   12.5520 C.3   669  CDP669      0.2319
     16  O2'       11.1910   33.3710   12.8180 O.3   669  CDP669     -0.2157
     17  C1'        9.5350   31.9020   12.0730 C.3   669  CDP669      0.2400
     18  N1         8.7650   30.6710   12.4900 N.am  669  CDP669     -0.1778
     19  C2         7.6660   30.7470   13.3430 C.1   669  CDP669      0.2756
     20  O2         7.2830   31.8310   13.8030 O.2   669  CDP669     -0.1925
     21  N3         6.9340   29.6700   13.7310 N.2   669  CDP669     -0.3024
     22  C4         7.2640   28.4490   13.2880 C.2   669  CDP669      0.2346
     23  N4         6.5260   27.4050   13.6860 N.pl3 669  CDP669     -0.0921
     24  C5         8.3550   28.2980   12.4370 C.2   669  CDP669      0.0687
     25  C6         9.0630   29.4360   12.0720 C.2   669  CDP669      0.0836
@<TRIPOS>BOND
     1     3     2    2
     2     8     6    2
     3     2     4    1
     4     2     1    1
     5     2     5    1
     6     6     5    1
     7     6     9    1
     8     6     7    1
     9     9    10    1
    10    10    11    1
    11    11    12    1
    12    11    13    1
    13    12    17    1
    14    14    13    1
    15    13    15    1
    16    25    24    2
    17    25    18    1
    18    17    18    1
    19    17    15    1
    20    24    22    1
    21    18    19   am
    22    15    16    1
    23    22    23    1
    24    22    21    2
    25    19    21    2
    26    19    20    2
