@<TRIPOS>MOLECULE
1u3q_272_A_1.pdb
 18 20 0 0 0
SMALL
GASTEIGER

@<TRIPOS>ATOM
      1  C1        19.9970   -4.2710   17.3730 C.2   501  272501      0.1806
      2  C2        20.4640   -4.2460   16.0270 C.2   501  272501      0.0780
      3  C3        19.5010   -4.1030   14.9980 C.ar  501  272501      0.1794
      4  C4        18.0940   -3.9840   15.2330 C.ar  501  272501      0.0543
      5  C5        17.6060   -4.0080   16.6170 C.2   501  272501     -0.0132
      6  C6        18.5750   -4.1540   17.6880 C.3   501  272501      0.0954
      7  O10       19.7190   -4.0450   13.6830 O.2   501  272501     -0.3533
      8  N11       18.5560   -3.8930   13.1000 N.ar  501  272501     -0.0769
      9  C12       17.4520   -3.8540   13.9310 C.ar  501  272501      0.1250
     10  C13       16.0100   -3.6420   13.4810 C.2   501  272501      0.0522
     11  C14       15.7170   -3.3960   12.0780 C.2   501  272501      0.1817
     12  C15       14.3850   -3.1850   11.6060 C.3   501  272501      0.1338
     13  C16       13.3140   -3.2140   12.5310 C.2   501  272501      0.1628
     14  C17       13.5740   -3.4580   13.9290 C.3   501  272501      0.0911
     15  C18       14.9240   -3.6720   14.4110 C.2   501  272501     -0.0139
     16  O22       12.1580   -3.0310   12.1340 O.2   501  272501     -0.2952
     17  O23       16.5820   -3.3550   11.2110 O.2   501  272501     -0.2908
     18  O24       20.8390   -4.3920   18.2710 O.2   501  272501     -0.2909
@<TRIPOS>BOND
     1    17    11    2
     2    12    11    1
     3    12    13    1
     4    11    10    1
     5    16    13    2
     6    13    14    1
     7     8     7   ar
     8     8     9   ar
     9    10     9    1
    10    10    15    2
    11     7     3   ar
    12    14    15    1
    13     9     4   ar
    14     3     4   ar
    15     3     2    2
    16     4     5    2
    17     2     1    1
    18     5     6    1
    19     1     6    1
    20     1    18    2
