@<TRIPOS>MOLECULE
1u3r_338_A_1.pdb
 21 24 0 0 0
SMALL
GASTEIGER

@<TRIPOS>ATOM
      1  C1        25.3150   36.0370   41.3650 C.2   201  338201      0.1951
      2  C2        26.6330   35.4910   41.5330 C.2   201  338201      0.0816
      3  C3        27.5430   35.6270   40.4440 C.2   201  338201      0.1769
      4  C4        27.1620   36.2700   39.2500 C.2   201  338201      0.1514
      5  C5        25.8540   36.8170   39.0640 C.3   201  338201      0.0916
      6  C6        24.9250   36.6940   40.1460 C.2   201  338201      0.0236
      7  O10       28.8300   35.2130   40.3600 O.2   201  338201     -0.4249
      8  C11       29.2550   35.5980   39.1140 C.2   201  338201      0.2818
      9  N12       28.2490   36.2520   38.3910 N.2   201  338201     -0.3684
     10  C13       30.5760   35.3850   38.6210 C.ar  201  338201      0.0665
     11  C15       31.2050   36.0730   37.4430 C.ar  201  338201      0.0087
     12  C16       32.6220   35.7430   37.0830 C.ar  201  338201      0.0391
     13  C17       33.3370   34.7850   37.8630 C.ar  201  338201      0.0032
     14  C18       32.7280   34.1320   38.9810 C.ar  201  338201      0.0003
     15  C19       31.3850   34.4320   39.3440 C.ar  201  338201      0.0058
     16  C23       30.5470   37.0530   36.6130 C.ar  201  338201      0.0004
     17  C24       31.1960   37.6870   35.5020 C.ar  201  338201      0.0033
     18  C25       32.5520   37.3560   35.1810 C.ar  201  338201      0.0420
     19  C26       33.2740   36.3930   35.9570 C.ar  201  338201      0.1956
     20  O30       24.3980   35.9380   42.3820 O.2   201  338201     -0.2868
     21  O31       34.5880   36.1210   35.5990 O.3   201  338201     -0.2866
@<TRIPOS>BOND
     1    18    17   ar
     2    18    19   ar
     3    17    16   ar
     4    21    19    1
     5    19    12   ar
     6    16    11   ar
     7    12    11   ar
     8    12    13   ar
     9    11    10   ar
    10    13    14   ar
    11     9     8    2
    12     9     4    2
    13    10     8    1
    14    10    15   ar
    15    14    15   ar
    16     5     4    1
    17     5     6    1
    18     8     7    1
    19     4     3    1
    20     6     1    2
    21     7     3    1
    22     3     2    2
    23     1     2    1
    24     1    20    1
