@<TRIPOS>MOLECULE
1u3s_797_A_1.pdb
 21 24 0 0 0
SMALL
GASTEIGER

@<TRIPOS>ATOM
      1  C1        28.5560   36.9250   37.8410 C.ar  201  797201      0.0209
      2  C2        28.8270   36.3570   39.1400 C.ar  201  797201      0.0016
      3  C3        27.7760   36.1960   40.0930 C.ar  201  797201      0.0003
      4  C4        26.3940   36.6220   39.7330 C.ar  201  797201      0.0032
      5  C5        26.1350   37.1800   38.4500 C.ar  201  797201      0.0002
      6  C6        27.2100   37.3290   37.5200 C.ar  201  797201      0.0016
      7  C10       28.0480   35.6400   41.3790 C.ar  201  797201      0.0033
      8  C11       26.9740   35.4930   42.3120 C.ar  201  797201      0.0420
      9  C12       25.6430   35.9000   41.9620 C.ar  201  797201      0.1957
     10  C13       25.3440   36.4620   40.6810 C.ar  201  797201      0.0420
     11  O17       24.6310   35.7380   42.8950 O.3   201  797201     -0.2866
     12  C18       29.6560   37.1110   36.8170 C.ar  201  797201      0.1229
     13  C19       31.0570   36.7560   36.8020 C.ar  201  797201      0.0582
     14  C20       31.6060   37.1910   35.5520 C.ar  201  797201      0.1800
     15  O21       30.6050   37.7710   34.8600 O.2   201  797201     -0.3533
     16  N22       29.5120   37.7190   35.5850 N.ar  201  797201     -0.0770
     17  C23       31.9610   36.0910   37.7340 C.ar  201  797201      0.0080
     18  C24       33.3440   35.9000   37.3790 C.ar  201  797201      0.0423
     19  C25       33.8320   36.3630   36.1040 C.ar  201  797201      0.1989
     20  C26       32.9710   37.0080   35.1860 C.ar  201  797201      0.0822
     21  O30       35.1640   36.1880   35.7540 O.3   201  797201     -0.2865
@<TRIPOS>BOND
     1    15    14   ar
     2    15    16   ar
     3    20    14   ar
     4    20    19   ar
     5    14    13   ar
     6    16    12   ar
     7    21    19    1
     8    19    18   ar
     9    13    12   ar
    10    13    17   ar
    11    12     1    1
    12    18    17   ar
    13     6     1   ar
    14     6     5   ar
    15     1     2   ar
    16     5     4   ar
    17     2     3   ar
    18     4     3   ar
    19     4    10   ar
    20     3     7   ar
    21    10     9   ar
    22     7     8   ar
    23     9     8   ar
    24     9    11    1
