@<TRIPOS>MOLECULE
1u3t_NAD_A_1.pdb
 44 48 0 0 0
SMALL
GASTEIGER

@<TRIPOS>ATOM
      1  PA        22.1740   -4.5720    1.7150 P.3   1377  NAD1377     0.2189
      2  O1A       22.1610   -5.9480    1.2140 O.3   1377  NAD1377    -0.4371
      3  O2A       23.0360   -3.7150    0.8600 O.2   1377  NAD1377    -0.5170
      4  O5B       22.6800   -4.5010    3.2230 O.3   1377  NAD1377    -0.3112
      5  C5B       22.7580   -5.6890    4.1070 C.3   1377  NAD1377     0.1813
      6  C4B       23.9520   -5.3390    4.9850 C.3   1377  NAD1377     0.1821
      7  O4B       23.8860   -6.1120    6.1780 O.3   1377  NAD1377    -0.3135
      8  C3B       25.2720   -5.6060    4.2370 C.3   1377  NAD1377     0.2184
      9  O3B       26.2720   -4.6820    4.6840 O.3   1377  NAD1377    -0.2174
     10  C2B       25.5330   -7.0100    4.8470 C.3   1377  NAD1377     0.2570
     11  O2B       26.9340   -7.3130    4.7910 O.3   1377  NAD1377    -0.2130
     12  C1B       25.1150   -6.7990    6.3120 C.3   1377  NAD1377     0.3186
     13  N9A       24.8680   -8.0560    6.9730 N.pl3 1377  NAD1377    -0.1439
     14  C8A       24.3010   -9.2340    6.4900 C.3   1377  NAD1377     0.3377
     15  N7A       24.2620  -10.2120    7.4680 N.2   1377  NAD1377    -0.2095
     16  C5A       24.8090   -9.5890    8.5760 C.2   1377  NAD1377     0.2526
     17  C6A       25.0420  -10.1110    9.8370 C.2   1377  NAD1377     0.4393
     18  N6A       24.6300  -11.3610   10.1630 N.pl3 1377  NAD1377     0.2180
     19  N1A       25.6170   -9.2790   10.7860 N.2   1377  NAD1377     0.0021
     20  C2A       25.9920   -7.9830   10.4350 C.3   1377  NAD1377     0.5254
     21  N3A       25.7620   -7.4580    9.1750 N.2   1377  NAD1377    -0.0055
     22  C4A       25.1970   -8.3300    8.2730 C.2   1377  NAD1377     0.3518
     23  O3        20.6730   -4.0240    1.9100 O.3   1377  NAD1377    -0.2703
     24  PN        20.0880   -2.5640    2.0050 P.3   1377  NAD1377     0.2189
     25  O1N       19.5780   -2.1440    0.6940 O.2   1377  NAD1377    -0.5170
     26  O2N       21.0030   -1.5380    2.6010 O.3   1377  NAD1377    -0.4371
     27  O5D       18.7690   -2.6840    2.9560 O.3   1377  NAD1377    -0.3112
     28  C5D       18.8060   -3.3410    4.2180 C.3   1377  NAD1377     0.1813
     29  C4D       17.4990   -3.8200    4.8520 C.3   1377  NAD1377     0.1799
     30  O4D       16.5630   -2.7450    4.9410 O.3   1377  NAD1377    -0.3327
     31  C3D       16.8190   -4.9000    3.9790 C.3   1377  NAD1377     0.2158
     32  O3D       16.0170   -5.7480    4.8120 O.3   1377  NAD1377    -0.2175
     33  C2D       15.9000   -3.9960    3.1520 C.3   1377  NAD1377     0.2309
     34  O2D       14.8310   -4.7790    2.6180 O.3   1377  NAD1377    -0.2158
     35  C1D       15.3640   -3.1110    4.2780 C.3   1377  NAD1377     0.2263
     36  N1N       14.7230   -1.8830    3.8010 N.pl3 1377  NAD1377    -0.2787
     37  C2N       13.7300   -1.4010    4.4980 C.3   1377  NAD1377     0.1244
     38  C3N       13.1960   -0.2330    4.1260 C.2   1377  NAD1377     0.0544
     39  C7N       12.1880    0.2910    4.8250 C.2   1377  NAD1377     0.2818
     40  O7N       11.4830    1.1920    4.3160 O.2   1377  NAD1377    -0.2670
     41  N7N       11.9470   -0.1680    6.0500 N.am  1377  NAD1377    -0.0839
     42  C4N       13.6290    0.4630    3.0600 C.2   1377  NAD1377     0.0033
     43  C5N       14.6370   -0.0040    2.3210 C.2   1377  NAD1377     0.0157
     44  C6N       15.1840   -1.2200    2.7310 C.2   1377  NAD1377     0.0633
@<TRIPOS>BOND
     1    25    24    2
     2     3     1    2
     3     2     1    1
     4     1    23    1
     5     1     4    1
     6    23    24    1
     7    24    26    1
     8    24    27    1
     9    43    44    2
    10    43    42    1
    11    34    33    1
    12    44    36    1
    13    27    28    1
    14    42    38    2
    15    33    31    1
    16    33    35    1
    17     4     5    1
    18    36    35    1
    19    36    37    1
    20    31    32    1
    21    31    29    1
    22     5     6    1
    23    38    37    1
    24    38    39    1
    25    28    29    1
    26     8     9    1
    27     8    10    1
    28     8     6    1
    29    35    30    1
    30    40    39    2
    31    11    10    1
    32    39    41   am
    33    10    12    1
    34    29    30    1
    35     6     7    1
    36     7    12    1
    37    12    13    1
    38    14    13    1
    39    14    15    1
    40    13    22    1
    41    15    16    2
    42    22    16    1
    43    22    21    2
    44    16    17    1
    45    21    20    1
    46    17    18    1
    47    17    19    2
    48    20    19    1
