@<TRIPOS>MOLECULE
1u3t_CCB_A_1.pdb
 12 13 0 0 0
SMALL
GASTEIGER

@<TRIPOS>ATOM
      1  N1        10.6130   -0.5220    0.8190 N.am  1378  CCB1378    -0.2756
      2  C2        11.6510   -0.6070   -0.0170 C.2   1378  CCB1378     0.3028
      3  O3        12.3060   -1.6340   -0.1680 O.2   1378  CCB1378    -0.2649
      4  C5        10.1810   -1.6540    1.6030 C.3   1378  CCB1378     0.0757
      5  C6         9.9460    0.7210    0.8940 C.3   1378  CCB1378     0.0757
      6  C7         8.9570   -2.3640    1.1350 C.3   1378  CCB1378     0.0198
      7  C8         8.5490   -3.1810    2.3470 C.3   1378  CCB1378     0.0018
      8  C9         9.1740   -2.5130    3.5590 C.3   1378  CCB1378     0.0018
      9  C10        9.9130   -1.3120    3.0300 C.3   1378  CCB1378     0.0198
     10  C20        9.6140    1.6940    1.9660 C.3   1378  CCB1378     0.0199
     11  C21        8.7930    2.4240    0.9610 C.3   1378  CCB1378     0.0034
     12  C22        8.6420    1.1210    0.2610 C.3   1378  CCB1378     0.0199
@<TRIPOS>BOND
     1     3     2    2
     2     2     1   am
     3    12     5    1
     4    12    11    1
     5     1     5    1
     6     1     4    1
     7     5    10    1
     8    11    10    1
     9     6     4    1
    10     6     7    1
    11     4     9    1
    12     7     8    1
    13     9     8    1
