@<TRIPOS>MOLECULE
1u3u_BNF_A_1.pdb
 10 10 0 0 0
SMALL
GASTEIGER

@<TRIPOS>ATOM
      1  C1        -1.9220   -0.2190  -19.4040 C.ar  1378  BNF1378    -0.0003
      2  C2        -2.2500    0.3210  -18.1690 C.ar  1378  BNF1378    -0.0000
      3  C3        -1.3310    0.2270  -17.0990 C.ar  1378  BNF1378    -0.0003
      4  C4        -0.1080   -0.4490  -17.2830 C.ar  1378  BNF1378    -0.0026
      5  C5         0.2310   -1.0010  -18.5270 C.ar  1378  BNF1378    -0.0005
      6  C6        -0.7050   -0.8910  -19.5730 C.ar  1378  BNF1378    -0.0026
      7  C12        1.5410   -1.7210  -18.7360 C.3   1378  BNF1378     0.1419
      8  N13        2.2530   -1.1320  -19.8850 N.am  1378  BNF1378    -0.1929
      9  C14        3.0650   -1.8060  -20.6890 C.2   1378  BNF1378     0.3204
     10  O16        3.2730   -3.0210  -20.5710 O.2   1378  BNF1378    -0.2633
@<TRIPOS>BOND
     1     9    10    2
     2     9     8   am
     3     8     7    1
     4     6     1   ar
     5     6     5   ar
     6     1     2   ar
     7     7     5    1
     8     5     4   ar
     9     2     3   ar
    10     4     3   ar
