@<TRIPOS>MOLECULE
1u3u_NAD_A_1.pdb
 44 48 0 0 0
SMALL
GASTEIGER

@<TRIPOS>ATOM
      1  PA         4.4000  -13.3290  -19.1660 P.3   1377  NAD1377     0.2189
      2  O1A        3.0920  -13.9290  -19.6090 O.3   1377  NAD1377    -0.4371
      3  O2A        5.5440  -13.5450  -20.0740 O.2   1377  NAD1377    -0.5170
      4  O5B        4.8400  -13.9530  -17.7660 O.3   1377  NAD1377    -0.3112
      5  C5B        3.7880  -14.3910  -16.8410 C.3   1377  NAD1377     0.1813
      6  C4B        4.3640  -15.5170  -15.9930 C.3   1377  NAD1377     0.1821
      7  O4B        3.3970  -15.7810  -14.9530 O.3   1377  NAD1377    -0.3135
      8  C3B        4.6110  -16.7810  -16.8470 C.3   1377  NAD1377     0.2184
      9  O3B        5.8830  -17.3590  -16.5120 O.3   1377  NAD1377    -0.2174
     10  C2B        3.4350  -17.6260  -16.3070 C.3   1377  NAD1377     0.2570
     11  O2B        3.7330  -19.0410  -16.4000 O.3   1377  NAD1377    -0.2130
     12  C1B        3.2740  -17.2060  -14.8230 C.3   1377  NAD1377     0.3186
     13  N9A        1.9250  -17.5020  -14.4260 N.pl3 1377  NAD1377    -0.1439
     14  C8A        0.7190  -17.3480  -15.1350 C.3   1377  NAD1377     0.3377
     15  N7A       -0.4010  -17.7010  -14.4030 N.2   1377  NAD1377    -0.2095
     16  C5A        0.1300  -18.0990  -13.2140 C.2   1377  NAD1377     0.2526
     17  C6A       -0.5390  -18.5100  -12.0680 C.2   1377  NAD1377     0.4393
     18  N6A       -1.8870  -18.6300  -11.9680 N.pl3 1377  NAD1377     0.2180
     19  N1A        0.2540  -18.8110  -10.9830 N.2   1377  NAD1377     0.0021
     20  C2A        1.6350  -18.6690  -11.0200 C.3   1377  NAD1377     0.5254
     21  N3A        2.3380  -18.2540  -12.1660 N.2   1377  NAD1377    -0.0055
     22  C4A        1.5070  -17.9650  -13.2200 C.2   1377  NAD1377     0.3518
     23  O3         4.0900  -11.7800  -18.8420 O.3   1377  NAD1377    -0.2703
     24  PN         5.0530  -10.5090  -18.8120 P.3   1377  NAD1377     0.2189
     25  O1N        5.3080   -9.9230  -20.1410 O.2   1377  NAD1377    -0.5170
     26  O2N        6.2590  -10.8000  -17.9620 O.3   1377  NAD1377    -0.4371
     27  O5D        4.0940   -9.4840  -17.9820 O.3   1377  NAD1377    -0.3112
     28  C5D        3.7250   -9.7960  -16.6480 C.3   1377  NAD1377     0.1813
     29  C4D        2.6110   -8.8390  -16.2180 C.3   1377  NAD1377     0.1799
     30  O4D        3.1670   -7.5080  -16.1400 O.3   1377  NAD1377    -0.3327
     31  C3D        1.4870   -8.7690  -17.2820 C.3   1377  NAD1377     0.2158
     32  O3D        0.2110   -8.6810  -16.6250 O.3   1377  NAD1377    -0.2175
     33  C2D        1.7960   -7.4160  -17.9480 C.3   1377  NAD1377     0.2309
     34  O2D        0.5760   -6.8710  -18.4960 O.3   1377  NAD1377    -0.2158
     35  C1D        2.2530   -6.5680  -16.7510 C.3   1377  NAD1377     0.2263
     36  N1N        3.0700   -5.3990  -17.0690 N.pl3 1377  NAD1377    -0.2787
     37  C2N        2.9670   -4.3000  -16.2820 C.3   1377  NAD1377     0.1244
     38  C3N        3.7590   -3.2230  -16.4150 C.2   1377  NAD1377     0.0544
     39  C7N        3.6280   -2.1270  -15.5510 C.2   1377  NAD1377     0.2818
     40  O7N        4.0680   -0.9960  -15.8290 O.2   1377  NAD1377    -0.2670
     41  N7N        3.0560   -2.2400  -14.3360 N.am  1377  NAD1377    -0.0839
     42  C4N        4.7150   -3.2200  -17.4320 C.2   1377  NAD1377     0.0033
     43  C5N        4.8250   -4.3110  -18.2300 C.2   1377  NAD1377     0.0157
     44  C6N        4.0180   -5.4210  -18.0610 C.2   1377  NAD1377     0.0633
@<TRIPOS>BOND
     1    25    24    2
     2     3     1    2
     3     2     1    1
     4     1    23    1
     5     1     4    1
     6    23    24    1
     7    24    27    1
     8    24    26    1
     9    34    33    1
    10    43    44    2
    11    43    42    1
    12    44    36    1
    13    27    28    1
    14    33    31    1
    15    33    35    1
    16     4     5    1
    17    42    38    2
    18    31    32    1
    19    31    29    1
    20    36    35    1
    21    36    37    1
    22     8     9    1
    23     8    10    1
    24     8     6    1
    25     5     6    1
    26    35    30    1
    27    28    29    1
    28    38    37    1
    29    38    39    1
    30    11    10    1
    31    10    12    1
    32    29    30    1
    33     6     7    1
    34    40    39    2
    35    39    41   am
    36    14    13    1
    37    14    15    1
    38     7    12    1
    39    12    13    1
    40    13    22    1
    41    15    16    2
    42    22    16    1
    43    22    21    2
    44    16    17    1
    45    21    20    1
    46    17    18    1
    47    17    19    2
    48    20    19    1
