@<TRIPOS>MOLECULE
1u3v_NAD_A_1.pdb
 44 48 0 0 0
SMALL
GASTEIGER

@<TRIPOS>ATOM
      1  PA         4.2020  -13.4390  -19.2000 P.3   1377  NAD1377     0.2189
      2  O1A        2.8740  -13.9930  -19.6380 O.3   1377  NAD1377    -0.4371
      3  O2A        5.3760  -13.6730  -20.0720 O.2   1377  NAD1377    -0.5170
      4  O5B        4.5930  -14.0780  -17.7930 O.3   1377  NAD1377    -0.3112
      5  C5B        3.5960  -14.4220  -16.8340 C.3   1377  NAD1377     0.1813
      6  C4B        4.1450  -15.5690  -15.9800 C.3   1377  NAD1377     0.1821
      7  O4B        3.1240  -15.8630  -15.0350 O.3   1377  NAD1377    -0.3135
      8  C3B        4.3560  -16.8540  -16.8400 C.3   1377  NAD1377     0.2184
      9  O3B        5.6390  -17.4280  -16.5410 O.3   1377  NAD1377    -0.2174
     10  C2B        3.2120  -17.7430  -16.3150 C.3   1377  NAD1377     0.2570
     11  O2B        3.5700  -19.1350  -16.3760 O.3   1377  NAD1377    -0.2130
     12  C1B        3.0250  -17.3020  -14.8400 C.3   1377  NAD1377     0.3186
     13  N9A        1.6670  -17.5390  -14.4570 N.pl3 1377  NAD1377    -0.1439
     14  C8A        0.4850  -17.3950  -15.2000 C.3   1377  NAD1377     0.3377
     15  N7A       -0.6120  -17.7630  -14.4460 N.2   1377  NAD1377    -0.2095
     16  C5A       -0.0870  -18.1350  -13.2360 C.2   1377  NAD1377     0.2526
     17  C6A       -0.7270  -18.5960  -12.0900 C.2   1377  NAD1377     0.4393
     18  N6A       -2.0670  -18.7760  -12.0150 N.pl3 1377  NAD1377     0.2180
     19  N1A        0.0540  -18.9060  -10.9980 N.2   1377  NAD1377     0.0021
     20  C2A        1.4360  -18.7520  -11.0410 C.3   1377  NAD1377     0.5254
     21  N3A        2.1030  -18.2830  -12.1980 N.2   1377  NAD1377    -0.0055
     22  C4A        1.2670  -17.9930  -13.2520 C.2   1377  NAD1377     0.3518
     23  O3         3.9040  -11.9300  -18.8370 O.3   1377  NAD1377    -0.2703
     24  PN         4.8660  -10.6310  -18.7990 P.3   1377  NAD1377     0.2189
     25  O1N        5.0880  -10.0540  -20.1700 O.2   1377  NAD1377    -0.5170
     26  O2N        6.0840  -10.9230  -18.0100 O.3   1377  NAD1377    -0.4371
     27  O5D        3.9000   -9.5970  -18.0050 O.3   1377  NAD1377    -0.3112
     28  C5D        3.5140   -9.8760  -16.6540 C.3   1377  NAD1377     0.1813
     29  C4D        2.3880   -8.9180  -16.2310 C.3   1377  NAD1377     0.1799
     30  O4D        2.9500   -7.6040  -16.1210 O.3   1377  NAD1377    -0.3327
     31  C3D        1.2560   -8.8700  -17.2940 C.3   1377  NAD1377     0.2158
     32  O3D       -0.0060   -8.7910  -16.6270 O.3   1377  NAD1377    -0.2175
     33  C2D        1.5770   -7.5160  -17.9840 C.3   1377  NAD1377     0.2309
     34  O2D        0.3780   -6.9580  -18.5490 O.3   1377  NAD1377    -0.2158
     35  C1D        2.0220   -6.6810  -16.7720 C.3   1377  NAD1377     0.2263
     36  N1N        2.8420   -5.5060  -17.0980 N.pl3 1377  NAD1377    -0.2787
     37  C2N        2.7420   -4.4140  -16.2970 C.3   1377  NAD1377     0.1244
     38  C3N        3.5660   -3.3610  -16.4270 C.2   1377  NAD1377     0.0544
     39  C7N        3.4760   -2.2700  -15.5660 C.2   1377  NAD1377     0.2818
     40  O7N        3.9780   -1.1650  -15.8490 O.2   1377  NAD1377    -0.2670
     41  N7N        2.9000   -2.3380  -14.3450 N.am  1377  NAD1377    -0.0839
     42  C4N        4.5290   -3.3860  -17.4110 C.2   1377  NAD1377     0.0033
     43  C5N        4.6510   -4.4600  -18.2270 C.2   1377  NAD1377     0.0157
     44  C6N        3.7820   -5.5500  -18.0550 C.2   1377  NAD1377     0.0633
@<TRIPOS>BOND
     1    25    24    2
     2     3     1    2
     3     2     1    1
     4     1    23    1
     5     1     4    1
     6    23    24    1
     7    24    26    1
     8    24    27    1
     9    34    33    1
    10    43    44    2
    11    43    42    1
    12    44    36    1
    13    27    28    1
    14    33    31    1
    15    33    35    1
    16     4     5    1
    17    42    38    2
    18    31    32    1
    19    31    29    1
    20    36    35    1
    21    36    37    1
    22     8     9    1
    23     8    10    1
    24     8     6    1
    25     5     6    1
    26    35    30    1
    27    28    29    1
    28    38    37    1
    29    38    39    1
    30    11    10    1
    31    10    12    1
    32    29    30    1
    33     6     7    1
    34    40    39    2
    35    39    41   am
    36    14    13    1
    37    14    15    1
    38     7    12    1
    39    12    13    1
    40    13    22    1
    41    15    16    2
    42    22    16    1
    43    22    21    2
    44    16    17    1
    45    21    20    1
    46    17    18    1
    47    17    19    2
    48    20    19    1
