@<TRIPOS>MOLECULE
1u3v_HPL_A_1.pdb
 10 9 0 0 0
SMALL
GASTEIGER

@<TRIPOS>ATOM
      1  C1        -3.5240    0.1060  -19.0130 C.3   1378  HPL1378     0.0000
      2  C2        -2.6640   -0.2320  -17.8100 C.3   1378  HPL1378     0.0000
      3  C3        -1.4220   -0.9870  -18.2370 C.3   1378  HPL1378     0.0001
      4  C4        -0.2100   -0.4910  -17.4850 C.3   1378  HPL1378     0.0018
      5  C5         1.0650   -1.2200  -17.8980 C.3   1378  HPL1378     0.0234
      6  C6        -2.6710    0.6070  -20.1830 C.3   1378  HPL1378     0.0000
      7  C12        1.0490   -1.6990  -19.3170 C.3   1378  HPL1378     0.1156
      8  N13        2.2300   -1.2480  -20.0340 N.am  1378  HPL1378    -0.1978
      9  C14        3.1310   -2.0220  -20.6220 C.2   1378  HPL1378     0.3201
     10  O16        3.0860   -3.2490  -20.6140 O.2   1378  HPL1378    -0.2633
@<TRIPOS>BOND
     1     9    10    2
     2     9     8   am
     3     6     1    1
     4     8     7    1
     5     7     5    1
     6     1     2    1
     7     3     2    1
     8     3     4    1
     9     5     4    1
