@<TRIPOS>MOLECULE
1u3w_FXY_A_1.pdb
 11 10 0 0 0
SMALL
GASTEIGER

@<TRIPOS>ATOM
      1  O10      -51.5500  -59.9370   45.0850 O.2   1378  FXY1378    -0.2633
      2  C9       -50.5670  -59.1920   45.2160 C.2   1378  FXY1378     0.3201
      3  N8       -49.3400  -59.5400   45.0610 N.am  1378  FXY1378    -0.1995
      4  C1       -48.9720  -60.9380   44.7800 C.3   1378  FXY1378     0.0958
      5  C25      -48.3900  -61.4650   46.0840 C.3   1378  FXY1378     0.0234
      6  C2       -47.9260  -60.8450   43.6770 C.3   1378  FXY1378     0.0217
      7  C3       -47.4820  -62.1930   43.1430 C.3   1378  FXY1378     0.0018
      8  C4       -46.7900  -61.9290   41.8140 C.3   1378  FXY1378     0.0001
      9  C5       -45.5000  -62.7070   41.6730 C.3   1378  FXY1378     0.0000
     10  C6       -45.0620  -62.6490   40.2170 C.3   1378  FXY1378     0.0000
     11  C7       -43.6070  -62.2650   40.0370 C.3   1378  FXY1378     0.0000
@<TRIPOS>BOND
     1    11    10    1
     2    10     9    1
     3     9     8    1
     4     8     7    1
     5     7     6    1
     6     6     4    1
     7     4     3    1
     8     4     5    1
     9     3     2   am
    10     1     2    2
