@<TRIPOS>MOLECULE
1u3w_NAD_A_1.pdb
 44 48 0 0 0
SMALL
GASTEIGER

@<TRIPOS>ATOM
      1  PA       -61.0870  -63.1520   42.8940 P.3   1377  NAD1377     0.2189
      2  O1A      -60.9380  -64.7050   43.0270 O.2   1377  NAD1377    -0.5170
      3  O2A      -61.8270  -62.4110   43.9420 O.3   1377  NAD1377    -0.4371
      4  O5B      -61.8200  -62.9950   41.5430 O.3   1377  NAD1377    -0.3112
      5  C5B      -61.5660  -63.6300   40.3180 C.3   1377  NAD1377     0.1813
      6  C4B      -62.8720  -63.7570   39.5510 C.3   1377  NAD1377     0.1821
      7  O4B      -62.6350  -64.4900   38.3700 O.3   1377  NAD1377    -0.3135
      8  C3B      -64.0910  -64.3780   40.2840 C.3   1377  NAD1377     0.2184
      9  O3B      -65.1900  -63.4730   40.2560 O.3   1377  NAD1377    -0.2174
     10  C2B      -64.3790  -65.6570   39.4740 C.3   1377  NAD1377     0.2570
     11  O2B      -65.7420  -66.0040   39.3740 O.3   1377  NAD1377    -0.2130
     12  C1B      -63.8150  -65.2570   38.1240 C.3   1377  NAD1377     0.3186
     13  N9A      -63.4070  -66.4400   37.3550 N.pl3 1377  NAD1377    -0.1439
     14  C8A      -62.7320  -67.5870   37.8050 C.3   1377  NAD1377     0.3377
     15  N7A      -62.5670  -68.3590   36.7290 N.2   1377  NAD1377    -0.2095
     16  C5A      -63.0920  -67.7880   35.6370 C.2   1377  NAD1377     0.2526
     17  C6A      -63.1770  -68.0800   34.2820 C.2   1377  NAD1377     0.4393
     18  N6A      -62.7080  -69.2470   33.8130 N.pl3 1377  NAD1377     0.2180
     19  N1A      -63.8030  -67.2290   33.4290 N.2   1377  NAD1377     0.0021
     20  C2A      -64.2920  -66.0030   33.8270 C.3   1377  NAD1377     0.5254
     21  N3A      -64.2000  -65.6850   35.1550 N.2   1377  NAD1377    -0.0055
     22  C4A      -63.6090  -66.5290   36.0260 C.2   1377  NAD1377     0.3518
     23  O3       -59.6050  -62.7860   42.7300 O.3   1377  NAD1377    -0.2703
     24  PN       -58.9340  -61.2240   42.9110 P.3   1377  NAD1377     0.2189
     25  O1N      -58.5850  -61.0360   44.2820 O.3   1377  NAD1377    -0.4371
     26  O2N      -59.7520  -60.1720   42.2110 O.2   1377  NAD1377    -0.5170
     27  O5D      -57.6070  -61.4320   42.1380 O.3   1377  NAD1377    -0.3112
     28  C5D      -57.6590  -61.7040   40.7300 C.3   1377  NAD1377     0.1813
     29  C4D      -56.3040  -62.1240   40.1310 C.3   1377  NAD1377     0.1799
     30  O4D      -55.3750  -61.0290   40.2390 O.3   1377  NAD1377    -0.3327
     31  C3D      -55.6840  -63.2370   40.9440 C.3   1377  NAD1377     0.2158
     32  O3D      -54.9650  -64.1800   40.1070 O.3   1377  NAD1377    -0.2175
     33  C2D      -54.6960  -62.5500   41.8360 C.3   1377  NAD1377     0.2309
     34  O2D      -53.6000  -63.3150   42.2730 O.3   1377  NAD1377    -0.2158
     35  C1D      -54.2080  -61.4080   40.8850 C.3   1377  NAD1377     0.2263
     36  N1N      -53.4820  -60.2360   41.4320 N.pl3 1377  NAD1377    -0.2787
     37  C2N      -52.4720  -59.8050   40.7050 C.3   1377  NAD1377     0.1244
     38  C3N      -51.8500  -58.6390   41.1650 C.2   1377  NAD1377     0.0544
     39  C7N      -50.7740  -58.0560   40.3730 C.2   1377  NAD1377     0.2818
     40  O7N      -50.0180  -57.1020   40.9510 O.2   1377  NAD1377    -0.2670
     41  N7N      -50.4860  -58.3930   39.1390 N.am  1377  NAD1377    -0.0839
     42  C4N      -52.2040  -58.0960   42.4080 C.2   1377  NAD1377     0.0033
     43  C5N      -53.3080  -58.5520   43.0700 C.2   1377  NAD1377     0.0157
     44  C6N      -53.9670  -59.7290   42.6010 C.2   1377  NAD1377     0.0633
@<TRIPOS>BOND
     1    19    20    1
     2    19    17    2
     3    18    17    1
     4    20    21    1
     5    17    16    1
     6    21    22    2
     7    16    22    1
     8    16    15    2
     9    22    13    1
    10    15    14    1
    11    13    14    1
    12    13    12    1
    13    12     7    1
    14    12    10    1
    15     7     6    1
    16    41    39   am
    17    11    10    1
    18    10     8    1
    19     6     8    1
    20     6     5    1
    21    32    31    1
    22    29    30    1
    23    29    28    1
    24    29    31    1
    25    30    35    1
    26     9     8    1
    27     5     4    1
    28    39    40    2
    29    39    38    1
    30    37    38    1
    31    37    36    1
    32    28    27    1
    33    35    36    1
    34    35    33    1
    35    31    33    1
    36    38    42    2
    37    36    44    1
    38     4     1    1
    39    33    34    1
    40    27    24    1
    41    26    24    2
    42    42    43    1
    43    44    43    2
    44    23     1    1
    45    23    24    1
    46     1     2    2
    47     1     3    1
    48    24    25    1
