@<TRIPOS>MOLECULE
1u40_CDM_A_1.pdb
 33 34 0 0 0
SMALL
GASTEIGER

@<TRIPOS>ATOM
      1  N1         8.5120   30.5210   12.6410 N.am  669  CDM669     -0.1778
      2  C2         7.4040   30.6100   13.3950 C.1   669  CDM669      0.2756
      3  N3         6.7240   29.4770   13.6780 N.2   669  CDM669     -0.3024
      4  C4         7.1170   28.2840   13.2370 C.2   669  CDM669      0.2346
      5  C5         8.3310   28.1940   12.4190 C.2   669  CDM669      0.0687
      6  C6         8.9700   29.3340   12.1610 C.2   669  CDM669      0.0836
      7  O2         7.0120   31.6820   13.8210 O.2   669  CDM669     -0.1925
      8  N4         6.3890   27.2170   13.5620 N.pl3 669  CDM669     -0.0921
      9  C1'        9.2700   31.7360   12.3140 C.3   669  CDM669      0.2400
     10  C2'       10.5120   32.0230   13.1520 C.3   669  CDM669      0.2319
     11  O2'       10.3050   33.1510   14.0180 O.3   669  CDM669     -0.2157
     12  C3'       11.6510   32.2400   12.1490 C.3   669  CDM669      0.2158
     13  C4'       10.9870   32.2440   10.7540 C.3   669  CDM669      0.1799
     14  O4'        9.6780   31.6930   10.9260 O.3   669  CDM669     -0.3320
     15  O3'       12.2530   33.5100   12.3420 O.3   669  CDM669     -0.2175
     16  C5'       11.8690   31.4420    9.7140 C.3   669  CDM669      0.1813
     17  O5'       11.4400   30.0760    9.4710 O.3   669  CDM669     -0.3112
     18  PA        12.1550   28.9980    8.4770 P.3   669  CDM669      0.2189
     19  O1A       11.8810   27.5250    9.0340 O.3   669  CDM669     -0.4371
     20  O2A       11.5410   29.1330    7.0020 O.2   669  CDM669     -0.5170
     21  O3A       13.7580   29.2170    8.5570 O.3   669  CDM669     -0.2703
     22  PB        14.6990   29.2690    7.2210 P.3   669  CDM669      0.2189
     23  O1B       16.1730   28.7840    7.6520 O.3   669  CDM669     -0.4371
     24  O2B       14.1910   28.3350    6.0190 O.2   669  CDM669     -0.5170
     25  O3B       14.7880   30.7750    6.6960 O.3   669  CDM669     -0.3111
     26  C1M       15.2160   31.8210    7.5680 C.3   669  CDM669      0.1845
     27  C2M       15.1580   33.1360    6.7410 C.3   669  CDM669      0.2120
     28  O2M       15.5600   34.2350    7.5700 O.3   669  CDM669     -0.2177
     29  C3M       16.0610   33.2110    5.4570 C.3   669  CDM669      0.1873
     30  C4M       15.5970   34.4760    4.6430 C.3   669  CDM669      0.2148
     31  C5M       17.5630   33.3610    5.8280 C.3   669  CDM669      0.0384
     32  O3M       15.8950   32.0700    4.5620 O.3   669  CDM669     -0.2202
     33  O4M       16.3700   34.6420    3.4390 O.3   669  CDM669     -0.2176
@<TRIPOS>BOND
     1    33    30    1
     2    32    29    1
     3    30    29    1
     4    29    31    1
     5    29    27    1
     6    24    22    2
     7    25    22    1
     8    25    26    1
     9    27    26    1
    10    27    28    1
    11    20    18    2
    12    22    23    1
    13    22    21    1
    14    18    21    1
    15    18    19    1
    16    18    17    1
    17    17    16    1
    18    16    13    1
    19    13    14    1
    20    13    12    1
    21    14     9    1
    22    12    15    1
    23    12    10    1
    24     6     5    2
    25     6     1    1
    26     9     1    1
    27     9    10    1
    28     5     4    1
    29     1     2   am
    30    10    11    1
    31     4     8    1
    32     4     3    2
    33     2     3    2
    34     2     7    2
