@<TRIPOS>MOLECULE
1u43_SUD_A_1.pdb
 37 38 0 0 0
SMALL
GASTEIGER

@<TRIPOS>ATOM
      1  C1        15.3400   31.8910    7.3910 C.3   669  SUD669      0.1844
      2  N1         8.3040   30.6770   12.8720 N.am  669  SUD669     -0.1778
      3  C3         7.1280   30.6590   13.5180 C.1   669  SUD669      0.2756
      4  N3         6.5390   29.4630   13.7420 N.2   669  SUD669     -0.3024
      5  C4         7.0890   28.3080   13.3460 C.2   669  SUD669      0.2346
      6  C5         8.3730   28.3340   12.6490 C.2   669  SUD669      0.0687
      7  C6         8.9150   29.5360   12.4480 C.2   669  SUD669      0.0836
      8  O8         6.5880   31.6830   13.8970 O.2   669  SUD669     -0.1925
      9  N4         6.4430   27.1840   13.6020 N.pl3 669  SUD669     -0.0921
     10  C1'        8.9730   31.9380   12.5810 C.3   669  SUD669      0.2400
     11  C2'       10.3910   32.0590   13.1190 C.3   669  SUD669      0.2319
     12  O2'       10.4430   33.2100   13.9600 O.3   669  SUD669     -0.2157
     13  C3'       11.2890   32.2250   11.9150 C.3   669  SUD669      0.2158
     14  C4'       10.3270   32.3950   10.7260 C.3   669  SUD669      0.1799
     15  O4'        9.0310   32.0270   11.1750 O.3   669  SUD669     -0.3320
     16  O3'       12.0940   33.3920   12.0140 O.3   669  SUD669     -0.2175
     17  C5'       10.7760   31.5280    9.5220 C.3   669  SUD669      0.1813
     18  O5'       11.2610   30.1920    9.8330 O.3   669  SUD669     -0.3112
     19  PA        11.7980   29.1710    8.6820 P.3   669  SUD669      0.2189
     20  O1A       10.9530   27.8120    8.6190 O.3   669  SUD669     -0.4371
     21  O2A       11.6920   29.8750    7.2340 O.2   669  SUD669     -0.5170
     22  O3A       13.3500   28.8180    8.9210 O.3   669  SUD669     -0.2703
     23  PB        14.3020   30.1240    9.0810 P.3   669  SUD669      0.2189
     24  O1B       13.8780   30.9450   10.4050 O.3   669  SUD669     -0.4371
     25  O2B       14.2130   31.1390    7.8450 O.3   669  SUD669     -0.3111
     26  O3B       15.8180   29.6160    9.2810 O.2   669  SUD669     -0.5170
     27  C27       14.9040   32.7850    6.2180 C.3   669  SUD669      0.2094
     28  C28       16.0440   33.0870    5.2030 C.3   669  SUD669      0.1640
     29  C29       15.4660   34.0050    4.0750 C.3   669  SUD669      0.2122
     30  O30       16.4940   34.3370    3.1230 O.3   669  SUD669     -0.2177
     31  O31       16.5560   31.8190    4.6420 O.3   669  SUD669     -0.2699
     32  C32       17.2600   33.7990    5.8520 C.3   669  SUD669      0.0357
     33  O33       14.4210   34.0310    6.7480 O.3   669  SUD669     -0.2178
     34  P34       15.8610   30.5480    3.8470 P.3   669  SUD669      0.5326
     35  O35       15.2230   30.9770    2.5820 O.2   669  SUD669     -0.2224
     36  O36       16.9230   29.5470    3.5050 O.3   669  SUD669     -0.1145
     37  O37       14.8310   29.8540    4.7130 O.3   669  SUD669     -0.1145
@<TRIPOS>BOND
     1    35    34    2
     2    30    29    1
     3    36    34    1
     4    34    31    1
     5    34    37    1
     6    29    28    1
     7    31    28    1
     8    28    32    1
     9    28    27    1
    10    27    33    1
    11    27     1    1
    12    21    19    2
    13     1    25    1
    14    25    23    1
    15    20    19    1
    16    19    22    1
    17    19    18    1
    18    22    23    1
    19    23    26    2
    20    23    24    1
    21    17    18    1
    22    17    14    1
    23    14    15    1
    24    14    13    1
    25    15    10    1
    26    13    16    1
    27    13    11    1
    28     7     6    2
    29     7     2    1
    30    10     2    1
    31    10    11    1
    32     6     5    1
    33     2     3   am
    34    11    12    1
    35     5     9    1
    36     5     4    2
    37     3     4    2
    38     3     8    2
