@<TRIPOS>MOLECULE
1u4h_HEM_A_1.pdb
 43 50 0 0 0
SMALL
GASTEIGER

@<TRIPOS>ATOM
      1  CHA       23.6670   19.9740   -2.3010 C.2   500  HEM500      0.0000
      2  CHB       23.3570   23.7850   -5.3320 C.2   500  HEM500      0.0000
      3  CHC       22.8310   20.6680   -9.0170 C.2   500  HEM500      0.0000
      4  CHD       24.7420   17.2380   -6.1360 C.2   500  HEM500      0.0000
      5  C1A       23.6600   21.2980   -2.7970 C.2   500  HEM500      0.0000
      6  C2A       23.8870   22.4800   -1.9940 C.2   500  HEM500      0.0000
      7  C3A       23.8690   23.5200   -2.8690 C.2   500  HEM500      0.0000
      8  C4A       23.5710   23.0040   -4.1930 C.2   500  HEM500      0.0000
      9  CMA       24.0740   24.9870   -2.4950 C.3   500  HEM500      0.0000
     10  CAA       24.0270   22.5910   -0.4640 C.3   500  HEM500      0.0000
     11  CBA       25.4420   22.2280   -0.0200 C.3   500  HEM500      0.0000
     12  CGA       25.6450   22.3180    1.4860 C.2   500  HEM500      0.0000
     13  O1A       26.7280   21.9050    1.9490 O.co2 500  HEM500      0.0000
     14  O2A       24.7400   22.7980    2.2090 O.co2 500  HEM500      0.0000
     15  C1B       23.1150   23.2670   -6.6020 C.ar  500  HEM500      0.0000
     16  C2B       22.6820   24.0560   -7.7470 C.ar  500  HEM500      0.0000
     17  C3B       22.4730   23.1730   -8.7770 C.ar  500  HEM500      0.0000
     18  C4B       22.8460   21.8500   -8.2680 C.ar  500  HEM500      0.0000
     19  CMB       22.4560   25.5610   -7.7510 C.3   500  HEM500      0.0000
     20  CAB       21.9070   23.4280  -10.0320 C.3   500  HEM500      0.0000
     21  CBB       22.4690   24.3970  -10.9530 C.3   500  HEM500      0.0000
     22  C1C       23.4580   19.4890   -8.5980 C.2   500  HEM500      0.0000
     23  C2C       23.8680   18.3900   -9.4710 C.2   500  HEM500      0.0000
     24  C3C       24.4820   17.4730   -8.6520 C.2   500  HEM500      0.0000
     25  C4C       24.4370   17.9850   -7.2960 C.2   500  HEM500      0.0000
     26  CMC       23.5860   18.2360  -10.9750 C.3   500  HEM500      0.0000
     27  CAC       24.9360   16.2010   -9.0030 C.3   500  HEM500      0.0000
     28  CBC       25.8060   15.8970  -10.0900 C.3   500  HEM500      0.0000
     29  C1D       24.3140   17.6000   -4.8550 C.ar  500  HEM500      0.0000
     30  C2D       24.1670   16.7040   -3.7200 C.ar  500  HEM500      0.0000
     31  C3D       23.8670   17.4680   -2.6470 C.ar  500  HEM500      0.0000
     32  C4D       23.8610   18.8460   -3.1100 C.ar  500  HEM500      0.0000
     33  CMD       24.3550   15.1780   -3.7180 C.3   500  HEM500      0.0000
     34  CAD       23.4060   17.0100   -1.2600 C.3   500  HEM500      0.0000
     35  CBD       24.3460   17.2680   -0.0910 C.3   500  HEM500      0.0000
     36  CGD       25.4790   16.2710   -0.0070 C.2   500  HEM500      0.0000
     37  O1D       25.3590   15.1810   -0.6010 O.co2 500  HEM500      0.0000
     38  O2D       26.4820   16.5710    0.6730 O.co2 500  HEM500      0.0000
     39  NA        23.4820   21.6180   -4.1710 N.2   500  HEM500      0.0000
     40  NB        23.2290   21.9080   -6.9230 N.ar  500  HEM500      0.0000
     41  NC        23.8160   19.2270   -7.2720 N.2   500  HEM500      0.0000
     42  ND        24.0770   18.9060   -4.4870 N.ar  500  HEM500      0.0000
     43 FE         23.5820   20.4220   -5.7090 Fe    500  HEM500      0.0000
@<TRIPOS>BOND
     1    26    23    1
     2    21    20    1
     3    28    27    1
     4    20    17    1
     5    23    24    2
     6    23    22    1
     7     3    22    2
     8     3    18    1
     9    27    24    1
    10    17    18   ar
    11    17    16   ar
    12    24    25    1
    13    22    41    1
    14    18    40   ar
    15    19    16    1
    16    16    15   ar
    17    25    41    2
    18    25     4    1
    19    41    43    1
    20    40    15   ar
    21    40    43    1
    22    15     2    1
    23     4    29    2
    24    43    42    1
    25    43    39    1
    26     2     8    2
    27    29    42   ar
    28    29    30   ar
    29    42    32   ar
    30     8    39    1
    31     8     7    1
    32    39     5    2
    33    30    33    1
    34    30    31   ar
    35    32    31   ar
    36    32     1    2
    37     7     9    1
    38     7     6    2
    39     5     1    1
    40     5     6    1
    41    31    34    1
    42     6    10    1
    43    34    35    1
    44    37    36   ar
    45    10    11    1
    46    35    36    1
    47    11    12    1
    48    36    38   ar
    49    12    13   ar
    50    12    14   ar
