@<TRIPOS>MOLECULE
1u4j_MAN_B_1.pdb
 12 12 0 0 0
SMALL
GASTEIGER

@<TRIPOS>ATOM
      1  C1        17.7400   32.1350   -8.2160 C.3   1008  MAN1008     0.3024
      2  C2        17.8710   33.5730   -7.8160 C.3   1008  MAN1008     0.2434
      3  C3        19.2590   33.7450   -7.2110 C.3   1008  MAN1008     0.2199
      4  C4        19.3920   32.8070   -5.9720 C.3   1008  MAN1008     0.2144
      5  C5        18.9220   31.3310   -6.2080 C.3   1008  MAN1008     0.1836
      6  C6        18.2820   30.7570   -4.8390 C.3   1008  MAN1008     0.2142
      7  O1        16.5570   31.9430   -8.9300 O.3   1008  MAN1008    -0.1869
      8  O2        16.9010   33.8180   -6.8100 O.3   1008  MAN1008    -0.2148
      9  O3        19.4090   35.1050   -6.7960 O.3   1008  MAN1008    -0.2174
     10  O4        20.7280   32.8050   -5.5220 O.3   1008  MAN1008    -0.2176
     11  O5        17.7040   31.3570   -7.0160 O.3   1008  MAN1008    -0.3236
     12  O6        19.1850   29.9980   -3.9390 O.3   1008  MAN1008    -0.2176
@<TRIPOS>BOND
     1     7     1    1
     2     1     2    1
     3     1    11    1
     4     2     3    1
     5     2     8    1
     6     3     9    1
     7     3     4    1
     8    11     5    1
     9     5     4    1
    10     5     6    1
    11     4    10    1
    12     6    12    1
