@<TRIPOS>MOLECULE
1u4l_H1S_A_1.pdb
 35 36 0 0 0
SMALL
GASTEIGER

@<TRIPOS>ATOM
      1  C1        18.6040    7.7440   35.0470 C.3   301  H1S301      0.1803
      2  C2        18.5620    8.9230   34.0090 C.3   301  H1S301      0.1795
      3  O3        18.4090    8.2450   36.3980 O.3   301  H1S301     -0.3158
      4  C4        17.5780    6.6810   34.5810 C.3   301  H1S301      0.2042
      5  O5        18.7830    8.4780   32.6390 O.3   301  H1S301     -0.3246
      6  C6        19.5970   10.0060   34.3920 C.3   301  H1S301      0.2045
      7  C7        17.0810    8.8400   36.5810 C.3   301  H1S301      0.3214
      8  C8        17.9020    6.2340   33.1530 C.3   301  H1S301      0.1857
      9  O9        17.6250    5.5710   35.4850 O.3   301  H1S301     -0.2187
     10  C10       17.8260    7.4650   32.2300 C.3   301  H1S301      0.2895
     11  O11       20.8940    9.7150   33.8510 O.3   301  H1S301     -0.2384
     12  C12       16.5330    8.5720   38.0150 C.3   301  H1S301      0.2471
     13  O13       17.1560   10.2960   36.4020 O.2   301  H1S301     -0.4439
     14  N14       16.9310    5.2330   32.7260 N.3   301  H1S301     -0.1129
     15  O15       16.4950    8.0160   32.2570 O.3   301  H1S301     -0.1882
     16  S16       21.9520   10.2980   34.8060 S.3   301  H1S301     -0.0001
     17  C17       17.4990    9.2280   39.0570 C.3   301  H1S301      0.2129
     18  O18       15.2330    9.1990   38.1340 O.3   301  H1S301     -0.2341
     19  C19       17.7810   11.0650   37.3470 C.2   301  H1S301      0.2189
     20  S20       17.3860    3.6490   32.6360 S.3   301  H1S301     -0.1288
     21  O21       21.8500    9.6820   36.0910 O.3   301  H1S301     -0.2682
     22  O22       23.2410   10.0410   34.2840 O.2   301  H1S301     -0.3452
     23  O23       21.7440   11.9390   34.9610 O.2   301  H1S301     -0.3452
     24  C24       17.9700   10.6110   38.6090 C.2   301  H1S301      0.0528
     25  O25       18.6410    8.3830   39.2520 O.3   301  H1S301     -0.2152
     26  S26       14.0950    8.1670   38.0260 S.3   301  H1S301      0.0001
     27  C27       18.2320   12.4090   36.9610 C.2   301  H1S301      0.4209
     28  O28       17.6590    3.1540   33.9410 O.3   301  H1S301     -0.2918
     29  O29       16.3330    2.8890   32.0580 O.3   301  H1S301     -0.2918
     30  O30       18.7440    3.5250   31.6920 O.3   301  H1S301     -0.2918
     31  O31       12.8690    8.8300   38.3060 O.2   301  H1S301     -0.3452
     32  O32       14.0380    7.6260   36.7050 O.2   301  H1S301     -0.3452
     33  O33       14.3150    6.9430   39.1280 O.3   301  H1S301     -0.2682
     34  O34       17.7020   12.9700   36.0250 O.co2 301  H1S301     -0.2371
     35  O35       19.2550   13.0540   37.6670 O.co2 301  H1S301     -0.2371
@<TRIPOS>BOND
     1    30    20    1
     2    29    20    1
     3    10    15    1
     4    10     5    1
     5    10     8    1
     6    20    14    1
     7    20    28    1
     8     5     2    1
     9    14     8    1
    10     8     4    1
    11    11     6    1
    12    11    16    1
    13     2     6    1
    14     2     1    1
    15    22    16    2
    16     4     1    1
    17     4     9    1
    18    16    23    2
    19    16    21    1
    20     1     3    1
    21    34    27   ar
    22     3     7    1
    23    13     7    1
    24    13    19    1
    25     7    12    1
    26    32    26    2
    27    27    19    1
    28    27    35   ar
    29    19    24    2
    30    12    18    1
    31    12    17    1
    32    26    18    1
    33    26    31    2
    34    26    33    1
    35    24    17    1
    36    17    25    1
