@<TRIPOS>MOLECULE
1u4m_H3S_A_1.pdb
 31 32 0 0 0
SMALL
GASTEIGER

@<TRIPOS>ATOM
      1  C1        18.8050    7.8000   34.8080 C.3   301  H3S301      0.1804
      2  C2        18.8260    8.9980   33.7520 C.3   301  H3S301      0.1804
      3  O3        18.5970    8.2890   36.1470 O.3   301  H3S301     -0.3158
      4  C4        17.7620    6.7800   34.3140 C.3   301  H3S301      0.2042
      5  O5        19.0570    8.5470   32.3760 O.3   301  H3S301     -0.3245
      6  C6        19.8890   10.0590   34.1420 C.3   301  H3S301      0.2141
      7  C7        17.2640    8.9090   36.4020 C.3   301  H3S301      0.3214
      8  C8        18.0960    6.3150   32.8800 C.3   301  H3S301      0.1857
      9  O9        17.7480    5.6750   35.2300 O.3   301  H3S301     -0.2187
     10  C10       18.0880    7.5390   31.9290 C.3   301  H3S301      0.2895
     11  O11       21.2260    9.5670   33.9410 O.3   301  H3S301     -0.2176
     12  C12       16.7330    8.5840   37.8510 C.3   301  H3S301      0.2471
     13  O13       17.3660   10.3870   36.2870 O.2   301  H3S301     -0.4439
     14  N14       17.1130    5.3440   32.4210 N.3   301  H3S301     -0.1129
     15  O15       16.7570    8.1190   31.8810 O.3   301  H3S301     -0.1882
     16  C17       17.7160    9.2280   38.9190 C.3   301  H3S301      0.2129
     17  O18       15.4310    9.2100   38.0180 O.3   301  H3S301     -0.2341
     18  C19       18.0630   11.1170   37.2340 C.2   301  H3S301      0.2189
     19  S20       17.4970    3.7450   32.4610 S.3   301  H3S301     -0.1288
     20  C24       18.2590   10.6140   38.4970 C.2   301  H3S301      0.0528
     21  O25       18.8230    8.3420   39.1370 O.3   301  H3S301     -0.2152
     22  S26       14.2380    8.2240   37.8670 S.3   301  H3S301      0.0001
     23  C27       18.5750   12.4450   36.8440 C.2   301  H3S301      0.4209
     24  O28       17.7570    3.3420   33.8040 O.3   301  H3S301     -0.2918
     25  O29       16.4020    2.9920   31.9560 O.3   301  H3S301     -0.2918
     26  O30       18.8500    3.4900   31.5340 O.3   301  H3S301     -0.2918
     27  O31       13.0360    8.9670   38.0590 O.2   301  H3S301     -0.3452
     28  O32       14.2090    7.6480   36.5480 O.2   301  H3S301     -0.3452
     29  O33       14.3150    7.0260   39.0130 O.3   301  H3S301     -0.2682
     30  O34       18.2210   12.9310   35.7930 O.co2 301  H3S301     -0.2371
     31  O35       19.4520   13.1590   37.6610 O.co2 301  H3S301     -0.2371
@<TRIPOS>BOND
     1    26    19    1
     2    15    10    1
     3    10     5    1
     4    10     8    1
     5    25    19    1
     6     5     2    1
     7    14    19    1
     8    14     8    1
     9    19    24    1
    10     8     4    1
    11     2     6    1
    12     2     1    1
    13    11     6    1
    14     4     1    1
    15     4     9    1
    16     1     3    1
    17    30    23   ar
    18     3     7    1
    19    13     7    1
    20    13    18    1
    21     7    12    1
    22    28    22    2
    23    23    18    1
    24    23    31   ar
    25    18    20    2
    26    12    17    1
    27    12    16    1
    28    22    17    1
    29    22    27    2
    30    22    29    1
    31    20    16    1
    32    16    21    1
