@<TRIPOS>MOLECULE
1u4o_NDD_A_1.pdb
 16 17 0 0 0
SMALL
GASTEIGER

@<TRIPOS>ATOM
      1  C1        31.5090   18.5130    5.9700 C.ar  401  NDD401      0.0066
      2  C2        32.0390   17.6000    5.0310 C.ar  401  NDD401      0.0798
      3  C3        31.3080   17.2020    3.9080 C.ar  401  NDD401      0.0066
      4  C4        30.0170   17.6880    3.7200 C.ar  401  NDD401      0.0002
      5  C4A       29.4580   18.5830    4.6320 C.ar  401  NDD401      0.0002
      6  C5        28.1690   19.0820    4.4510 C.ar  401  NDD401      0.0066
      7  C6        27.6170   19.9450    5.3670 C.ar  401  NDD401      0.0798
      8  C7        28.3500   20.3670    6.4850 C.ar  401  NDD401      0.0066
      9  C8        29.6450   19.9160    6.6930 C.ar  401  NDD401      0.0002
     10  C8A       30.2350   19.0150    5.7990 C.ar  401  NDD401      0.0002
     11  C2'       33.4300   17.0800    5.2120 C.2   401  NDD401      0.3878
     12  O1'       33.8060   16.0420    4.6550 O.co2 401  NDD401     -0.2406
     13  O2'       34.2300   17.7420    6.0010 O.co2 401  NDD401     -0.2406
     14  C6'       26.2280   20.4170    5.1670 C.2   401  NDD401      0.3878
     15  O3'       25.6310   20.3060    4.0990 O.co2 401  NDD401     -0.2406
     16  O4'       25.6370   20.9190    6.2440 O.co2 401  NDD401     -0.2406
@<TRIPOS>BOND
     1     4     3   ar
     2     4     5   ar
     3     3     2   ar
     4    15    14   ar
     5     6     5   ar
     6     6     7   ar
     7     5    10   ar
     8    12    11   ar
     9     2    11    1
    10     2     1   ar
    11    14     7    1
    12    14    16   ar
    13    11    13   ar
    14     7     8   ar
    15    10     1   ar
    16    10     9   ar
    17     8     9   ar
