@<TRIPOS>MOLECULE
1u4s_BIH_A_1.pdb
 18 19 0 0 0
SMALL
GASTEIGER

@<TRIPOS>ATOM
      1  O31       26.3910   21.2260    3.3220 O.3   336  BIH336     -0.0650
      2  S3        25.0510   20.9240    2.8480 S.3   336  BIH336      0.0421
      3  O32       24.1020   21.9790    3.1990 O.3   336  BIH336     -0.0650
      4  O3        25.0300   20.5770    1.4220 O.3   336  BIH336     -0.0650
      5  C2        24.5900   19.5870    3.7150 C.ar  336  BIH336      0.1123
      6  C1        25.4210   18.4580    3.7840 C.ar  336  BIH336      0.0189
      7  C         25.0860   17.2990    4.5270 C.ar  336  BIH336      0.0014
      8  C8A       23.8790   17.2360    5.2250 C.ar  336  BIH336      0.0014
      9  C5        23.4750   16.1080    5.9730 C.ar  336  BIH336      0.0189
     10  C4A       23.0110   18.4210    5.1700 C.ar  336  BIH336      0.0014
     11  C4        23.3700   19.5460    4.4070 C.ar  336  BIH336      0.0189
     12  C9        21.8170   18.3640    5.8780 C.ar  336  BIH336      0.0014
     13  C8        21.4510   17.2210    6.5980 C.ar  336  BIH336      0.0189
     14  C7        22.2730   16.0850    6.6790 C.ar  336  BIH336      0.1123
     15  S6        21.7990   14.7730    7.5890 S.3   336  BIH336      0.0421
     16  O6        20.7830   14.0070    6.8600 O.3   336  BIH336     -0.0650
     17  O61       22.9570   13.8990    7.7260 O.3   336  BIH336     -0.0650
     18  O1        21.2920   15.2190    8.8940 O.3   336  BIH336     -0.0650
@<TRIPOS>BOND
     1     4     2    1
     2     2     3    1
     3     2     1    1
     4     2     5    1
     5     5     6   ar
     6     5    11   ar
     7     6     7   ar
     8    11    10   ar
     9     7     8   ar
    10    10     8   ar
    11    10    12   ar
    12     8     9   ar
    13    12    13   ar
    14     9    14   ar
    15    13    14   ar
    16    14    15    1
    17    16    15    1
    18    15    17    1
    19    15    18    1
