@<TRIPOS>MOLECULE
1u55_HEM_A_1.pdb
 43 50 0 0 0
SMALL
GASTEIGER

@<TRIPOS>ATOM
      1 FE         20.4190    3.3830    9.5740 Fe    500  HEM500      0.0000
      2  CHA       18.8040    2.5490   12.4330 C.2   500  HEM500      0.0000
      3  CHB       19.7780    6.6990   10.1130 C.2   500  HEM500      0.0000
      4  CHC       21.4840    4.0970    6.4150 C.2   500  HEM500      0.0000
      5  CHD       21.8600    0.3160    9.4270 C.2   500  HEM500      0.0000
      6  NA        19.4440    4.4100   10.9580 N.2   500  HEM500      0.0000
      7  C1A       18.9650    3.9130   12.1580 C.2   500  HEM500      0.0000
      8  C2A       18.7240    4.9990   13.1070 C.2   500  HEM500      0.0000
      9  C3A       19.1630    6.1310   12.4750 C.2   500  HEM500      0.0000
     10  C4A       19.5190    5.7820   11.1380 C.2   500  HEM500      0.0000
     11  CMA       19.2930    7.5050   13.1210 C.3   500  HEM500      0.0000
     12  CAA       18.0800    4.9710   14.5180 C.3   500  HEM500      0.0000
     13  CBA       19.0520    4.3920   15.5460 C.3   500  HEM500      0.0000
     14  CGA       18.5990    4.5440   16.9950 C.2   500  HEM500      0.0000
     15  O1A       19.2710    3.9570   17.8650 O.co2 500  HEM500      0.0000
     16  O2A       17.5940    5.2430   17.2720 O.co2 500  HEM500      0.0000
     17  NB        20.4990    5.0220    8.4590 N.ar  500  HEM500      0.0000
     18  C1B       20.2110    6.3150    8.8390 C.ar  500  HEM500      0.0000
     19  C2B       20.3280    7.2170    7.7150 C.ar  500  HEM500      0.0000
     20  C3B       20.6590    6.4600    6.6300 C.ar  500  HEM500      0.0000
     21  C4B       20.8260    5.1120    7.1240 C.ar  500  HEM500      0.0000
     22  CMB       19.9490    8.6850    7.7460 C.3   500  HEM500      0.0000
     23  CAB       20.7580    6.8070    5.2580 C.3   500  HEM500      0.0000
     24  CBB       21.1030    8.1020    4.7090 C.3   500  HEM500      0.0000
     25  NC        21.5320    2.4440    8.2330 N.2   500  HEM500      0.0000
     26  C1C       21.8320    2.8480    6.9540 C.2   500  HEM500      0.0000
     27  C2C       22.6460    1.8450    6.2900 C.2   500  HEM500      0.0000
     28  C3C       22.8390    0.8180    7.1520 C.2   500  HEM500      0.0000
     29  C4C       22.1110    1.2000    8.3570 C.2   500  HEM500      0.0000
     30  CMC       23.1870    1.9310    4.8660 C.3   500  HEM500      0.0000
     31  CAC       23.5540   -0.3940    7.0220 C.3   500  HEM500      0.0000
     32  CBC       24.5550   -0.7340    6.0200 C.3   500  HEM500      0.0000
     33  ND        20.3760    1.7710   10.7120 N.ar  500  HEM500      0.0000
     34  C1D       20.9200    0.5410   10.4160 C.ar  500  HEM500      0.0000
     35  C2D       20.3650   -0.4770   11.2770 C.ar  500  HEM500      0.0000
     36  C3D       19.4950    0.1410   12.1310 C.ar  500  HEM500      0.0000
     37  C4D       19.5170    1.5440   11.7740 C.ar  500  HEM500      0.0000
     38  CMD       20.6500   -1.9670   11.1920 C.3   500  HEM500      0.0000
     39  CAD       18.5390   -0.5010   13.1260 C.3   500  HEM500      0.0000
     40  CBD       18.7630   -0.3080   14.6340 C.3   500  HEM500      0.0000
     41  CGD       19.7830   -1.2780   15.2120 C.2   500  HEM500      0.0000
     42  O1D       20.1460   -2.2540   14.5250 O.co2 500  HEM500      0.0000
     43  O2D       20.2130   -1.0720   16.3670 O.co2 500  HEM500      0.0000
@<TRIPOS>BOND
     1    24    23    1
     2    30    27    1
     3    23    20    1
     4    32    31    1
     5    27    26    1
     6    27    28    2
     7     4    26    2
     8     4    21    1
     9    20    21   ar
    10    20    19   ar
    11    26    25    1
    12    31    28    1
    13    21    17   ar
    14    28    29    1
    15    19    22    1
    16    19    18   ar
    17    25    29    2
    18    25     1    1
    19    29     5    1
    20    17    18   ar
    21    17     1    1
    22    18     3    1
    23     5    34    2
    24     1    33    1
    25     1     6    1
    26     3    10    2
    27    34    33   ar
    28    34    35   ar
    29    33    37   ar
    30     6    10    1
    31     6     7    2
    32    10     9    1
    33    38    35    1
    34    35    36   ar
    35    37    36   ar
    36    37     2    2
    37    36    39    1
    38     7     2    1
    39     7     8    1
    40     9     8    2
    41     9    11    1
    42     8    12    1
    43    39    40    1
    44    12    13    1
    45    42    41   ar
    46    40    41    1
    47    41    43   ar
    48    13    14    1
    49    14    16   ar
    50    14    15   ar
