@<TRIPOS>MOLECULE
1u56_HEM_A_1.pdb
 43 50 0 0 0
SMALL
GASTEIGER

@<TRIPOS>ATOM
      1 FE         20.3740    3.5440    9.7040 Fe    500  HEM500      0.0000
      2  CHA       18.7130    2.6420   12.5030 C.2   500  HEM500      0.0000
      3  CHB       19.7270    6.8370   10.2880 C.2   500  HEM500      0.0000
      4  CHC       21.3570    4.2820    6.5260 C.2   500  HEM500      0.0000
      5  CHD       21.8440    0.4620    9.5260 C.2   500  HEM500      0.0000
      6  NA        19.4330    4.5250   11.0990 N.2   500  HEM500      0.0000
      7  C1A       18.9040    4.0130   12.2630 C.2   500  HEM500      0.0000
      8  C2A       18.6320    5.0710   13.2200 C.2   500  HEM500      0.0000
      9  C3A       19.0500    6.2180   12.6130 C.2   500  HEM500      0.0000
     10  C4A       19.4490    5.8950   11.2950 C.2   500  HEM500      0.0000
     11  CMA       19.1620    7.6100   13.2280 C.3   500  HEM500      0.0000
     12  CAA       17.9790    4.9510   14.6030 C.3   500  HEM500      0.0000
     13  CBA       19.0460    4.6170   15.6540 C.3   500  HEM500      0.0000
     14  CGA       18.5470    4.7500   17.0850 C.2   500  HEM500      0.0000
     15  O1A       19.2500    4.2560   17.9950 O.co2 500  HEM500      0.0000
     16  O2A       17.4700    5.3570   17.3040 O.co2 500  HEM500      0.0000
     17  NB        20.3640    5.1840    8.6040 N.ar  500  HEM500      0.0000
     18  C1B       20.0680    6.4850    8.9880 C.ar  500  HEM500      0.0000
     19  C2B       20.1490    7.3830    7.8630 C.ar  500  HEM500      0.0000
     20  C3B       20.5090    6.6370    6.7820 C.ar  500  HEM500      0.0000
     21  C4B       20.7290    5.3020    7.2760 C.ar  500  HEM500      0.0000
     22  CMB       19.7790    8.8650    7.8590 C.3   500  HEM500      0.0000
     23  CAB       20.6030    6.9690    5.4020 C.3   500  HEM500      0.0000
     24  CBB       20.8710    8.2810    4.8180 C.3   500  HEM500      0.0000
     25  NC        21.4770    2.6130    8.3740 N.2   500  HEM500      0.0000
     26  C1C       21.8150    3.0620    7.1000 C.2   500  HEM500      0.0000
     27  C2C       22.6630    2.1000    6.4140 C.2   500  HEM500      0.0000
     28  C3C       22.8740    1.0370    7.2850 C.2   500  HEM500      0.0000
     29  C4C       22.0690    1.3480    8.4760 C.2   500  HEM500      0.0000
     30  CMC       23.0330    2.1770    4.9300 C.3   500  HEM500      0.0000
     31  CAC       23.6040   -0.1530    7.1260 C.3   500  HEM500      0.0000
     32  CBC       24.6110   -0.4100    6.0980 C.3   500  HEM500      0.0000
     33  ND        20.2810    1.8960   10.7740 N.ar  500  HEM500      0.0000
     34  C1D       20.8910    0.6870   10.5300 C.ar  500  HEM500      0.0000
     35  C2D       20.4270   -0.3080   11.4620 C.ar  500  HEM500      0.0000
     36  C3D       19.5060    0.2670   12.2820 C.ar  500  HEM500      0.0000
     37  C4D       19.4530    1.6470   11.8760 C.ar  500  HEM500      0.0000
     38  CMD       20.7970   -1.7810   11.4170 C.3   500  HEM500      0.0000
     39  CAD       18.5250   -0.4300   13.2230 C.3   500  HEM500      0.0000
     40  CBD       18.7380   -0.2060   14.7380 C.3   500  HEM500      0.0000
     41  CGD       19.7920   -1.1380   15.3450 C.2   500  HEM500      0.0000
     42  O1D       20.1620   -2.1360   14.6980 O.co2 500  HEM500      0.0000
     43  O2D       20.2400   -0.8870   16.4840 O.co2 500  HEM500      0.0000
@<TRIPOS>BOND
     1    24    23    1
     2    30    27    1
     3    23    20    1
     4    32    31    1
     5    27    26    1
     6    27    28    2
     7     4    26    2
     8     4    21    1
     9    20    21   ar
    10    20    19   ar
    11    26    25    1
    12    31    28    1
    13    21    17   ar
    14    28    29    1
    15    22    19    1
    16    19    18   ar
    17    25    29    2
    18    25     1    1
    19    29     5    1
    20    17    18   ar
    21    17     1    1
    22    18     3    1
    23     5    34    2
    24     1    33    1
    25     1     6    1
    26     3    10    2
    27    34    33   ar
    28    34    35   ar
    29    33    37   ar
    30     6    10    1
    31     6     7    2
    32    10     9    1
    33    38    35    1
    34    35    36   ar
    35    37    36   ar
    36    37     2    2
    37     7     2    1
    38     7     8    1
    39    36    39    1
    40     9     8    2
    41     9    11    1
    42     8    12    1
    43    39    40    1
    44    12    13    1
    45    42    41   ar
    46    40    41    1
    47    41    43   ar
    48    13    14    1
    49    14    16   ar
    50    14    15   ar
