@<TRIPOS>MOLECULE
1u59_STU_A_1.pdb
 35 42 0 0 0
SMALL
GASTEIGER

@<TRIPOS>ATOM
      1  O4         9.3440    4.4400   52.6750 O.3   100  STU100     -0.3186
      2  C25        9.1070    5.7860   53.1290 C.3   100  STU100      0.2078
      3  C24        9.1140    6.8570   51.9850 C.3   100  STU100      0.0739
      4  C23        9.5820    6.4060   50.5740 C.3   100  STU100      0.1086
      5  C22       10.8130    5.4580   50.7940 C.3   100  STU100      0.1761
      6  C21       10.4830    4.1680   51.7400 C.3   100  STU100      0.1915
      7  C26        9.8400    3.0430   50.8720 C.3   100  STU100      0.0566
      8  N2        11.7100    3.8090   52.5710 N.ar  100  STU100     -0.3054
      9  C18       11.9810    4.3510   53.8330 C.ar  100  STU100      0.0774
     10  C19       11.1950    5.3250   54.6270 C.ar  100  STU100      0.0783
     11  C6        11.6520    5.7800   55.9050 C.ar  100  STU100      0.0293
     12  C7        12.9240    5.2440   56.4070 C.ar  100  STU100      0.0822
     13  C10       13.6730    4.2960   55.6400 C.ar  100  STU100      0.0154
     14  C11       13.2150    3.8430   54.3560 C.ar  100  STU100      0.0173
     15  C12       13.7300    2.9310   53.3740 C.ar  100  STU100      0.0171
     16  C17       12.7910    2.9110   52.2610 C.ar  100  STU100      0.0617
     17  C16       13.0810    2.0490   51.0900 C.ar  100  STU100      0.0172
     18  C15       14.2640    1.2580   51.0790 C.ar  100  STU100      0.0015
     19  C14       15.1960    1.2830   52.1980 C.ar  100  STU100      0.0001
     20  C13       14.9460    2.1030   53.3350 C.ar  100  STU100      0.0015
     21  C9        14.9220    3.9410   56.4180 C.3   100  STU100      0.1650
     22  N1        14.7940    4.7350   57.6030 N.2   100  STU100     -0.1976
     23  C8        13.6680    5.5040   57.6540 C.1   100  STU100      0.1501
     24  O5        13.3300    6.2860   58.5780 O.2   100  STU100     -0.2222
     25  C5        10.6790    6.7130   56.3930 C.ar  100  STU100      0.0180
     26  C20        9.6460    6.7910   55.3940 C.ar  100  STU100      0.0618
     27  C1         8.4340    7.6600   55.5150 C.ar  100  STU100      0.0172
     28  C2         8.3910    8.4240   56.7300 C.ar  100  STU100      0.0015
     29  C3         9.4080    8.3620   57.7380 C.ar  100  STU100      0.0001
     30  C4        10.5770    7.5170   57.6210 C.ar  100  STU100      0.0015
     31  N3         9.9760    5.9330   54.3140 N.ar  100  STU100     -0.3039
     32  O6        11.8280    6.2980   51.4740 O.3   100  STU100     -0.3478
     33  C27       13.1780    6.2910   50.9420 C.3   100  STU100      0.1743
     34  N4        10.0190    7.5100   49.6830 N.3   100  STU100     -0.2152
     35  C28        9.8970    7.1980   48.2210 C.3   100  STU100      0.1075
@<TRIPOS>BOND
     1    35    34    1
     2    34     4    1
     3     4     5    1
     4     4     3    1
     5     5    32    1
     6     5     6    1
     7     7     6    1
     8    33    32    1
     9    18    17   ar
    10    18    19   ar
    11    17    16   ar
    12     6     8    1
    13     6     1    1
    14     3     2    1
    15    19    20   ar
    16    16     8   ar
    17    16    15   ar
    18     8     9   ar
    19     1     2    1
    20     2    31    1
    21    20    15   ar
    22    15    14   ar
    23     9    14   ar
    24     9    10   ar
    25    31    10   ar
    26    31    26   ar
    27    14    13   ar
    28    10    11   ar
    29    26    27   ar
    30    26    25   ar
    31    27    28   ar
    32    13    12   ar
    33    13    21    1
    34    11    25   ar
    35    11    12   ar
    36    25    30   ar
    37    12    23    1
    38    21    22    1
    39    28    29   ar
    40    22    23    2
    41    30    29   ar
    42    23    24    2
