@<TRIPOS>MOLECULE
1u5a_BIK_A_1.pdb
 15 16 0 0 0
SMALL
GASTEIGER

@<TRIPOS>ATOM
      1  O6        20.8230   15.9260    7.5870 O.3   1001  BIK1001    -0.2866
      2  C6        21.8680   16.2480    6.8590 C.ar  1001  BIK1001     0.1957
      3  C7        22.9920   15.4180    6.8600 C.ar  1001  BIK1001     0.0420
      4  C8        24.1360   15.7130    6.1060 C.ar  1001  BIK1001     0.0034
      5  C8A       24.2000   16.8600    5.3140 C.ar  1001  BIK1001     0.0034
      6  C4A       23.0980   17.7150    5.2910 C.ar  1001  BIK1001     0.0036
      7  C5        21.9430   17.4100    6.0570 C.ar  1001  BIK1001     0.0420
      8  C4        23.1890   18.8710    4.4890 C.ar  1001  BIK1001     0.0099
      9  C1        25.3670   17.1500    4.5760 C.ar  1001  BIK1001     0.0423
     10  C2        25.4590   18.2980    3.7710 C.ar  1001  BIK1001     0.2020
     11  O2        26.5210   18.5090    3.0820 O.3   1001  BIK1001    -0.2863
     12  C3        24.3460   19.1600    3.7220 C.ar  1001  BIK1001     0.1186
     13  C31       24.3940   20.4120    2.8620 C.2   1001  BIK1001     0.3909
     14  O32       23.4070   21.2010    2.8010 O.co2 1001  BIK1001    -0.2404
     15  O31       25.4260   20.6360    2.2040 O.co2 1001  BIK1001    -0.2404
@<TRIPOS>BOND
     1    15    13   ar
     2    14    13   ar
     3    13    12    1
     4    11    10    1
     5    12    10   ar
     6    12     8   ar
     7    10     9   ar
     8     8     6   ar
     9     9     5   ar
    10     6     5   ar
    11     6     7   ar
    12     5     4   ar
    13     7     2   ar
    14     4     3   ar
    15     2     3   ar
    16     2     1    1
