@<TRIPOS>MOLECULE
1u5b_TDP_A_1.pdb
 26 27 0 0 0
SMALL
GASTEIGER

@<TRIPOS>ATOM
      1  N1'       76.7790    0.0830   11.5740 N.2   601  TDP601     -0.1861
      2  C2'       77.0020    1.3070   12.0890 C.1   601  TDP601      0.0663
      3  C2A       77.0870    1.5440   13.6200 C.3   601  TDP601      0.1291
      4  N3'       77.1360    2.3940   11.2590 N.2   601  TDP601     -0.3368
      5  C4'       77.1290    2.2270    9.8630 C.2   601  TDP601      0.2292
      6  N4'       77.2730    3.3270    9.1550 N.pl3 601  TDP601     -0.0925
      7  C5'       76.8270    0.9560    9.3240 C.2   601  TDP601      0.0654
      8  C6'       76.6820   -0.1050   10.2360 C.2   601  TDP601      0.1115
      9  C35       76.7690    0.6070    7.7840 C.3   601  TDP601      0.1237
     10  N3        75.5470    1.1980    7.2810 N.pl3 601  TDP601     -0.2970
     11  C2        75.7560    2.5500    6.6870 C.3   601  TDP601      0.1543
     12  S1        74.0250    2.9380    6.2470 S.3   601  TDP601     -0.0951
     13  C5        73.3280    1.4060    6.7280 C.2   601  TDP601      0.0164
     14  C4        74.3230    0.6050    7.2690 C.2   601  TDP601      0.0279
     15  C4A       74.0360   -0.8120    7.7850 C.3   601  TDP601      0.0473
     16  C5A       71.8190    1.1780    6.5710 C.3   601  TDP601      0.0661
     17  C5B       71.0720    2.2470    7.3870 C.3   601  TDP601      0.1544
     18  O5G       69.6690    2.0130    7.1260 O.3   601  TDP601     -0.3134
     19  P1        68.5430    3.0190    7.5810 P.3   601  TDP601      0.2230
     20  O11       68.6960    4.3120    6.6510 O.3   601  TDP601     -0.2261
     21  O12       68.8570    3.5330    8.9290 O.3   601  TDP601     -0.4370
     22  O13       67.2820    2.2820    7.4160 O.2   601  TDP601     -0.5169
     23  P2        68.4980    4.4780    5.0410 P.3   601  TDP601      0.5373
     24  O21       69.8480    4.2620    4.3410 O.2   601  TDP601     -0.2221
     25  O22       67.5370    3.3550    4.5930 O.3   601  TDP601     -0.1143
     26  O23       67.9480    5.8710    4.8540 O.3   601  TDP601     -0.1143
@<TRIPOS>BOND
     1    24    23    2
     2    25    23    1
     3    26    23    1
     4    23    20    1
     5    12    11    1
     6    12    13    1
     7    16    13    1
     8    16    17    1
     9    20    19    1
    10    11    10    1
    11    13    14    2
    12    18    17    1
    13    18    19    1
    14    14    10    1
    15    14    15    1
    16    10     9    1
    17    22    19    2
    18    19    21    1
    19     9     7    1
    20     6     5    1
    21     7     5    1
    22     7     8    2
    23     5     4    2
    24     8     1    1
    25     4     2    2
    26     1     2    2
    27     2     3    1
