@<TRIPOS>MOLECULE
1u5c_NAD_A_1.pdb
 44 48 0 0 0
SMALL
GASTEIGER

@<TRIPOS>ATOM
      1  PA        34.9360   15.4930    7.6010 P.3   336  NAD336      0.2189
      2  O1A       34.6400   14.0460    7.8470 O.3   336  NAD336     -0.4371
      3  O2A       35.9210   15.6980    6.4190 O.2   336  NAD336     -0.5170
      4  O5B       35.4130   16.1080    9.0220 O.3   336  NAD336     -0.3112
      5  C5B       34.9500   15.6610   10.2910 C.3   336  NAD336      0.1813
      6  C4B       36.2040   15.5480   11.1540 C.3   336  NAD336      0.1821
      7  O4B       35.9040   15.3770   12.5320 O.3   336  NAD336     -0.3135
      8  C3B       37.0880   14.3670   10.7100 C.3   336  NAD336      0.2184
      9  O3B       38.3870   14.8490   10.4060 O.3   336  NAD336     -0.2174
     10  C2B       37.0470   13.4000   11.9020 C.3   336  NAD336      0.2570
     11  O2B       38.2290   12.6200   12.0340 O.3   336  NAD336     -0.2130
     12  C1B       36.8010   14.4150   13.0380 C.3   336  NAD336      0.3186
     13  N9A       36.3040   13.9780   14.3590 N.pl3 336  NAD336     -0.1439
     14  C8A       35.5640   12.8840   14.8270 C.3   336  NAD336      0.3377
     15  N7A       35.4600   13.0200   16.1920 N.2   336  NAD336     -0.2095
     16  C5A       36.1150   14.1840   16.5640 C.2   336  NAD336      0.2526
     17  C6A       36.3490   14.8830   17.7650 C.2   336  NAD336      0.4393
     18  N6A       35.8850   14.4500   18.9280 N.pl3 336  NAD336      0.2180
     19  N1A       37.0740   16.0620   17.7900 N.2   336  NAD336      0.0021
     20  C2A       37.5790   16.5760   16.6180 C.3   336  NAD336      0.5254
     21  N3A       37.3540   15.9000   15.4460 N.2   336  NAD336     -0.0055
     22  C4A       36.6380   14.7590   15.4190 C.2   336  NAD336      0.3518
     23  O3        33.5280   16.2560    7.3630 O.3   336  NAD336     -0.2703
     24  PN        33.2580   17.7350    6.7600 P.3   336  NAD336      0.2189
     25  O1N       32.9450   17.6570    5.2930 O.2   336  NAD336     -0.5170
     26  O2N       34.3070   18.6500    7.3010 O.3   336  NAD336     -0.4371
     27  O5D       31.8130   18.0420    7.4730 O.3   336  NAD336     -0.3112
     28  C5D       31.6280   17.6610    8.8460 C.3   336  NAD336      0.1813
     29  C4D       30.2210   17.7900    9.4800 C.3   336  NAD336      0.1799
     30  O4D       29.5740   18.9770    9.0360 O.3   336  NAD336     -0.3327
     31  C3D       29.2790   16.5830    9.2200 C.3   336  NAD336      0.2158
     32  O3D       28.5950   16.1340   10.3790 O.3   336  NAD336     -0.2175
     33  C2D       28.3210   17.1190    8.1720 C.3   336  NAD336      0.2309
     34  O2D       27.0830   16.4470    8.1760 O.3   336  NAD336     -0.2158
     35  C1D       28.2720   18.6120    8.5690 C.3   336  NAD336      0.2263
     36  N1N       27.8110   19.5650    7.5170 N.pl3 336  NAD336     -0.2787
     37  C2N       26.9570   20.5210    7.9590 C.3   336  NAD336      0.1244
     38  C3N       26.4390   21.4770    7.1130 C.2   336  NAD336      0.0544
     39  C7N       25.4990   22.4860    7.6960 C.2   336  NAD336      0.2818
     40  O7N       24.9880   23.4400    6.8140 O.2   336  NAD336     -0.2670
     41  N7N       25.1490   22.5160    8.9930 N.am  336  NAD336     -0.0839
     42  C4N       26.8160   21.4640    5.7580 C.2   336  NAD336      0.0033
     43  C5N       27.7090   20.4880    5.2870 C.2   336  NAD336      0.0157
     44  C6N       28.2020   19.5330    6.1870 C.2   336  NAD336      0.0633
@<TRIPOS>BOND
     1    43    42    1
     2    43    44    2
     3    25    24    2
     4    42    38    2
     5    44    36    1
     6     3     1    2
     7    24    26    1
     8    24    23    1
     9    24    27    1
    10    40    39    2
    11    38    39    1
    12    38    37    1
    13    23     1    1
    14    27    28    1
    15    36    37    1
    16    36    35    1
    17     1     2    1
    18     1     4    1
    19    39    41   am
    20    33    34    1
    21    33    35    1
    22    33    31    1
    23    35    30    1
    24    28    29    1
    25     4     5    1
    26    30    29    1
    27    31    29    1
    28    31    32    1
    29     5     6    1
    30     9     8    1
    31     8     6    1
    32     8    10    1
    33     6     7    1
    34    10    11    1
    35    10    12    1
    36     7    12    1
    37    12    13    1
    38    13    14    1
    39    13    22    1
    40    14    15    1
    41    22    21    2
    42    22    16    1
    43    21    20    1
    44    15    16    2
    45    16    17    1
    46    20    19    1
    47    17    19    2
    48    17    18    1
