@<TRIPOS>MOLECULE
1u5c_BIK_A_1.pdb
 15 16 0 0 0
SMALL
GASTEIGER

@<TRIPOS>ATOM
      1  O6        20.6950   16.1180    7.9220 O.2   401  BIK401     -0.2910
      2  C6        21.7150   16.3300    7.2260 C.2   401  BIK401      0.1775
      3  C7        22.7970   15.4340    7.2940 C.2   401  BIK401      0.0378
      4  C8        23.9570   15.6230    6.5380 C.2   401  BIK401      0.0027
      5  C8A       24.0480   16.7200    5.6900 C.2   401  BIK401     -0.0009
      6  C4A       22.9060   17.6910    5.6150 C.2   401  BIK401     -0.0177
      7  C5        21.7670   17.4480    6.3910 C.3   401  BIK401      0.0951
      8  C4        23.0090   18.7920    4.7800 C.2   401  BIK401     -0.0113
      9  C1        25.2010   16.9070    4.9310 C.2   401  BIK401      0.0380
     10  C2        25.3040   18.0080    4.0910 C.2   401  BIK401      0.1876
     11  O2        26.3520   18.1720    3.4050 O.2   401  BIK401     -0.2904
     12  C3        24.1690   18.9810    4.0230 C.3   401  BIK401      0.1864
     13  C31       24.3120   20.1590    3.0910 C.2   401  BIK401      0.3757
     14  O32       23.4200   20.9940    2.9610 O.co2 401  BIK401     -0.2448
     15  O31       25.3420   20.2940    2.4420 O.co2 401  BIK401     -0.2448
@<TRIPOS>BOND
     1    15    13   ar
     2    14    13   ar
     3    13    12    1
     4    11    10    2
     5    12    10    1
     6    12     8    1
     7    10     9    1
     8     8     6    2
     9     9     5    2
    10     6     5    1
    11     6     7    1
    12     5     4    1
    13     7     2    1
    14     4     3    2
    15     2     3    1
    16     2     1    2
