@<TRIPOS>MOLECULE
1u5r_ATP_A_1.pdb
 31 33 0 0 0
SMALL
GASTEIGER

@<TRIPOS>ATOM
      1  PG        46.1120   63.7060    0.3890 P.3   411  ATP411      0.5373
      2  O1G       45.4810   63.7170   -0.9480 O.2   411  ATP411     -0.2221
      3  O2G       46.4420   65.0230    0.9410 O.3   411  ATP411     -0.1143
      4  O3G       45.3070   62.9180    1.3320 O.3   411  ATP411     -0.1143
      5  PB        48.6120   62.7670    1.4090 P.3   411  ATP411      0.2277
      6  O1B       49.9130   62.3770    1.0210 O.2   411  ATP411     -0.5168
      7  O2B       48.2680   63.1020    2.7820 O.3   411  ATP411     -0.4368
      8  O3B       47.5530   63.0500    0.3080 O.3   411  ATP411     -0.2258
      9  PA        47.8930   60.2160    2.5340 P.3   411  ATP411      0.2189
     10  O1A       48.9470   59.3200    2.8660 O.2   411  ATP411     -0.5170
     11  O2A       46.6480   60.3730    3.2880 O.3   411  ATP411     -0.4371
     12  O3A       48.1040   61.1870    1.3600 O.3   411  ATP411     -0.2700
     13  O5'       47.4210   59.1050    1.7680 O.3   411  ATP411     -0.3112
     14  C5'       46.5400   58.6000    1.0470 C.3   411  ATP411      0.1813
     15  C4'       45.7700   58.0050   -0.0530 C.3   411  ATP411      0.1821
     16  O4'       46.4540   56.7270   -0.1950 O.3   411  ATP411     -0.3135
     17  C3'       44.6450   57.9590    0.8970 C.3   411  ATP411      0.2184
     18  O3'       43.4940   58.7210    0.5950 O.3   411  ATP411     -0.2174
     19  C2'       44.4300   56.4340    1.1150 C.3   411  ATP411      0.2570
     20  O2'       43.2650   56.0680    0.4250 O.3   411  ATP411     -0.2130
     21  C1'       45.6770   55.7010    0.5190 C.3   411  ATP411      0.3186
     22  N9        46.5940   55.1050    1.5400 N.pl3 411  ATP411     -0.1439
     23  C8        47.6030   55.7000    2.3200 C.3   411  ATP411      0.3377
     24  N7        48.2220   54.8940    3.1070 N.2   411  ATP411     -0.2095
     25  C5        47.6000   53.6880    2.8470 C.2   411  ATP411      0.2526
     26  C6        47.7960   52.3570    3.3710 C.2   411  ATP411      0.4393
     27  N6        48.7150   52.1120    4.2850 N.pl3 411  ATP411      0.2180
     28  N1        46.9920   51.3220    2.8970 N.2   411  ATP411      0.0021
     29  C2        46.0520   51.5790    1.9640 C.3   411  ATP411      0.5254
     30  N3        45.7790   52.7770    1.4000 N.2   411  ATP411     -0.0055
     31  C4        46.6130   53.8030    1.9030 C.2   411  ATP411      0.3518
@<TRIPOS>BOND
     1     2     1    2
     2    16    15    1
     3    16    21    1
     4    15    17    1
     5    15    14    1
     6     8     1    1
     7     8     5    1
     8     1     3    1
     9     1     4    1
    10    20    19    1
    11    21    19    1
    12    21    22    1
    13    18    17    1
    14    17    19    1
    15     6     5    2
    16    14    13    1
    17    12     5    1
    18    12     9    1
    19    30    31    2
    20    30    29    1
    21     5     7    1
    22    22    31    1
    23    22    23    1
    24    13     9    1
    25    31    25    1
    26    29    28    1
    27    23    24    1
    28     9    10    2
    29     9    11    1
    30    25    24    2
    31    25    26    1
    32    28    26    2
    33    26    27    1
