@<TRIPOS>MOLECULE
1u5v_ATP_A_1.pdb
 12 11 0 0 0
SMALL
GASTEIGER

@<TRIPOS>ATOM
      1  PG        45.5620   26.0850    4.4910 P.3   274  ATP274      0.5373
      2  O1G       45.1640   27.4400    4.9000 O.2   274  ATP274     -0.2221
      3  O2G       46.9890   25.8000    4.9570 O.3   274  ATP274     -0.1143
      4  O3G       44.5870   25.0390    5.0470 O.3   274  ATP274     -0.1143
      5  PB        46.4150   26.5310    1.6740 P.3   274  ATP274      0.2291
      6  O1B       47.2560   25.3520    1.3980 O.3   274  ATP274     -0.4368
      7  O2B       45.6160   27.0130    0.4460 O.2   274  ATP274     -0.5168
      8  O3B       45.3980   26.0600    2.8630 O.3   274  ATP274     -0.2258
      9  PA        46.9220   29.3330    1.7240 P.3   274  ATP274      0.3991
     10  O1A       45.6950   29.4160    0.9070 O.3   274  ATP274     -0.1422
     11  O2A       48.1200   30.0020    1.0310 O.3   274  ATP274     -0.1422
     12  O3A       47.2890   27.8050    2.1260 O.3   274  ATP274     -0.2509
@<TRIPOS>BOND
     1     7     5    2
     2    10     9    1
     3    11     9    1
     4     6     5    1
     5     5    12    1
     6     5     8    1
     7     9    12    1
     8     8     1    1
     9     1     2    2
    10     1     3    1
    11     1     4    1
