@<TRIPOS>MOLECULE
1u65_CP0_A_1.pdb
 43 49 0 0 0
SMALL
GASTEIGER

@<TRIPOS>ATOM
      1  N1       -17.1880  113.1980   39.6920 N.2   1000  CP01000    -0.4044
      2  N4       -14.7920  114.6650   41.9130 N.ar  1000  CP01000    -0.2891
      3  O1       -22.3930  109.6920   38.4690 O.2   1000  CP01000    -0.2258
      4  O2       -22.3400  110.7420   40.4830 O.3   1000  CP01000    -0.4104
      5  O18      -13.1470  115.6670   43.3350 O.2   1000  CP01000    -0.2672
      6  O19      -10.6340  116.6170   39.7580 O.3   1000  CP01000    -0.4414
      7  O22      -10.2530  116.5940   37.5360 O.2   1000  CP01000    -0.2470
      8  O23      -12.0750  114.3160   37.6060 O.3   1000  CP01000    -0.2097
      9  C13      -18.4570  112.5880   39.9820 C.2   1000  CP01000     0.1166
     10  C10      -21.0510  111.3550   40.4030 C.2   1000  CP01000     0.1466
     11  C14      -14.5250  114.5560   39.4770 C.ar  1000  CP01000     0.0184
     12  C6       -16.8580  113.6310   42.1470 C.2   1000  CP01000     0.0243
     13  C8       -19.0140  112.4670   41.4010 C.3   1000  CP01000     0.0954
     14  C7       -18.1540  113.0190   42.4880 C.2   1000  CP01000    -0.0335
     15  C37      -22.9990  109.9900   39.4260 C.2   1000  CP01000     0.4094
     16  C3       -15.2680  114.2870   40.5960 C.ar  1000  CP01000     0.0918
     17  C9       -20.3510  111.8210   41.5400 C.2   1000  CP01000     0.0223
     18  C12      -19.1750  112.0970   38.7460 C.2   1000  CP01000     0.0313
     19  C11      -20.4190  111.5130   39.0130 C.2   1000  CP01000     0.0396
     20  C2       -16.5110  113.6550   40.7390 C.2   1000  CP01000     0.1440
     21  C16      -12.7150  115.6460   40.8750 C.ar  1000  CP01000     0.0763
     22  C15      -13.2220  115.2500   39.6060 C.ar  1000  CP01000     0.0209
     23  C23      -13.4830  115.3720   42.1550 C.ar  1000  CP01000     0.2604
     24  C17      -11.3470  116.3710   41.0370 C.3   1000  CP01000     0.2396
     25  C5       -15.7620  114.2810   42.9830 C.3   1000  CP01000     0.1378
     26  C21      -11.0060  116.2960   38.4640 C.2   1000  CP01000     0.3490
     27  C28      -13.3480  116.1900   37.2330 C.3   1000  CP01000     0.0458
     28  C20      -12.4080  115.5560   38.2690 C.3   1000  CP01000     0.2334
     29  C31      -18.6660  112.9340   43.9550 C.3   1000  CP01000     0.0226
     30  C32      -19.4490  114.1850   44.5460 C.3   1000  CP01000     0.0047
     31  C33      -13.8850  117.4950   37.5520 C.3   1000  CP01000     0.0036
     32  N2       -24.3080  109.6750   39.6580 N.am  1000  CP01000    -0.2456
     33  N3       -25.9180  105.8270   38.9850 N.3   1000  CP01000    -0.2738
     34  C25      -24.4430  107.3940   40.2980 C.3   1000  CP01000     0.0376
     35  C22      -25.7120  109.8060   39.1260 C.3   1000  CP01000     0.0981
     36  C24      -25.7680  107.2530   39.5760 C.3   1000  CP01000     0.0609
     37  C26      -24.2460  108.8320   40.8410 C.3   1000  CP01000     0.0981
     38  C29      -27.0820  105.7300   37.9090 C.3   1000  CP01000     0.0720
     39  C34      -26.8590  104.4570   37.1480 C.3   1000  CP01000     0.0174
     40  C35      -26.2050  104.8090   40.0480 C.3   1000  CP01000     0.0720
     41  C27      -26.3350  103.3520   39.5280 C.3   1000  CP01000     0.0174
     42  C30      -27.0490  103.2300   38.0940 C.3   1000  CP01000     0.0029
     43  C36      -25.9180  108.3650   38.4450 C.3   1000  CP01000     0.0376
@<TRIPOS>BOND
     1    39    38    1
     2    39    42    1
     3    27    31    1
     4    27    28    1
     5     7    26    2
     6     8    28    1
     7    38    33    1
     8    42    41    1
     9    28    26    1
    10    28    22    1
    11    43    35    1
    12    43    36    1
    13    26     6    1
    14     3    15    2
    15    18    19    2
    16    18     9    1
    17    33    36    1
    18    33    40    1
    19    19    10    1
    20    35    32    1
    21    15    32   am
    22    15     4    1
    23    11    22   ar
    24    11    16   ar
    25    41    40    1
    26    36    34    1
    27    22    21   ar
    28    32    37    1
    29     1     9    2
    30     1    20    2
    31     6    24    1
    32     9    13    1
    33    34    37    1
    34    10     4    1
    35    10    17    2
    36    16    20    1
    37    16     2   ar
    38    20    12    1
    39    21    24    1
    40    21    23   ar
    41    13    17    1
    42    13    14    1
    43     2    23   ar
    44     2    25    1
    45    12    14    2
    46    12    25    1
    47    23     5    2
    48    14    29    1
    49    29    30    1
