@<TRIPOS>MOLECULE
1u65_MAN_A_1.pdb
 11 11 0 0 0
SMALL
GASTEIGER

@<TRIPOS>ATOM
      1  C1       -42.2460  105.4040   44.9730 C.3   992  MAN992      0.1777
      2  C2       -41.0770  106.3760   45.0250 C.3   992  MAN992      0.2141
      3  C3       -39.8060  105.6150   45.3910 C.3   992  MAN992      0.2173
      4  C4       -39.7610  104.2670   44.6790 C.3   992  MAN992      0.2142
      5  C5       -40.7200  104.2330   43.4900 C.3   992  MAN992      0.1810
      6  C6       -40.6830  102.8850   42.8140 C.3   992  MAN992      0.2141
      7  O2       -41.3390  107.3740   46.0020 O.3   992  MAN992     -0.2176
      8  O3       -39.7700  105.4030   46.7970 O.3   992  MAN992     -0.2175
      9  O4       -38.4430  104.0380   44.2090 O.3   992  MAN992     -0.2176
     10  O5       -42.0920  104.4490   43.9080 O.3   992  MAN992     -0.3481
     11  O6       -39.4900  102.1850   43.1370 O.3   992  MAN992     -0.2176
@<TRIPOS>BOND
     1     6    11    1
     2     6     5    1
     3     5    10    1
     4     5     4    1
     5    10     1    1
     6     9     4    1
     7     4     3    1
     8     1     2    1
     9     2     3    1
    10     2     7    1
    11     3     8    1
