@<TRIPOS>MOLECULE
1u67_ACD_A_1.pdb
 15 14 0 0 0
SMALL
GASTEIGER

@<TRIPOS>ATOM
      1  C1       252.7840  111.3570  -37.8900 C.2   700  ACD700      0.3649
      2  C2       253.0750  109.8830  -38.0340 C.3   700  ACD700      0.1144
      3  C3       254.0400  109.3780  -36.9870 C.3   700  ACD700      0.0165
      4  C4       253.8140  107.9040  -36.7410 C.3   700  ACD700      0.0263
      5  C5       254.1590  106.8890  -37.7900 C.2   700  ACD700     -0.0304
      6  C6       253.1830  106.1970  -38.4990 C.2   700  ACD700     -0.0260
      7  C7       251.7080  106.4280  -38.2630 C.3   700  ACD700      0.0513
      8  C8       250.8390  106.8400  -39.4620 C.2   700  ACD700     -0.0257
      9  C9       249.6800  106.1500  -39.7820 C.2   700  ACD700     -0.0257
     10  C10      249.2380  104.9820  -38.9700 C.3   700  ACD700      0.0513
     11  C11      248.4590  103.8800  -39.6560 C.2   700  ACD700     -0.0260
     12  C12      248.3770  102.6220  -39.0910 C.2   700  ACD700     -0.0300
     13  C13      249.0760  102.3200  -37.7580 C.3   700  ACD700      0.0304
     14  O1       252.9590  112.0920  -38.8770 O.co2 700  ACD700     -0.2457
     15  O2       252.3800  111.7820  -36.7880 O.co2 700  ACD700     -0.2457
@<TRIPOS>BOND
     1     9     8    2
     2     9    10    1
     3    11    12    2
     4    11    10    1
     5     8     7    1
     6    12    13    1
     7    14     1   ar
     8     6     7    1
     9     6     5    2
    10     2     1    1
    11     2     3    1
    12     1    15   ar
    13     5     4    1
    14     3     4    1
