@<TRIPOS>MOLECULE
1u67_COH_A_1.pdb
 43 50 0 0 0
SMALL
GASTEIGER

@<TRIPOS>ATOM
      1 CO        242.1060   90.7210  -42.6260 Co.oh 601  COH601      0.0000
      2  CHA      239.1210   90.8590  -41.1320 C.2   601  COH601      0.0000
      3  CHB      241.0890   87.9710  -44.4140 C.2   601  COH601      0.0000
      4  CHC      245.1090   90.5270  -44.0820 C.2   601  COH601      0.0000
      5  CHD      243.2150   93.4400  -40.7870 C.2   601  COH601      0.0000
      6  NA       240.4540   89.6020  -42.7950 N.ar  601  COH601      0.0000
      7  C1A      239.2550   89.8190  -42.0690 C.ar  601  COH601      0.0000
      8  C2A      238.1900   88.7800  -42.4310 C.ar  601  COH601      0.0000
      9  C3A      238.7890   87.9270  -43.4080 C.ar  601  COH601      0.0000
     10  C4A      240.2000   88.5110  -43.5720 C.ar  601  COH601      0.0000
     11  CMA      238.2030   86.7110  -44.1300 C.3   601  COH601      0.0000
     12  CAA      236.6950   88.5980  -41.8760 C.3   601  COH601      0.0000
     13  CBA      235.5790   89.3350  -42.6620 C.3   601  COH601      0.0000
     14  CGA      235.6930   90.8600  -42.7280 C.2   601  COH601      0.0000
     15  O1A      235.6980   91.5330  -41.6530 O.co2 601  COH601      0.0000
     16  O2A      235.7260   91.3980  -43.8550 O.co2 601  COH601      0.0000
     17  NB       242.8940   89.5120  -43.9520 N.2   601  COH601      0.0000
     18  C1B      242.3640   88.3990  -44.6210 C.2   601  COH601      0.0000
     19  C2B      243.2960   87.7540  -45.5550 C.2   601  COH601      0.0000
     20  C3B      244.4420   88.4780  -45.4650 C.2   601  COH601      0.0000
     21  C4B      244.1890   89.5520  -44.4750 C.2   601  COH601      0.0000
     22  CMB      243.0110   86.5460  -46.4140 C.3   601  COH601      0.0000
     23  CAB      245.6890   88.2280  -46.2130 C.3   601  COH601      0.0000
     24  CBB      246.4360   87.0620  -46.1500 C.3   601  COH601      0.0000
     25  NC       243.8050   91.8290  -42.4340 N.ar  601  COH601      0.0000
     26  C1C      244.9540   91.5660  -43.1550 C.ar  601  COH601      0.0000
     27  C2C      245.9950   92.5290  -42.8140 C.ar  601  COH601      0.0000
     28  C3C      245.4340   93.3700  -41.8530 C.ar  601  COH601      0.0000
     29  C4C      244.1170   92.8880  -41.6670 C.ar  601  COH601      0.0000
     30  CMC      247.4200   92.5990  -43.4540 C.3   601  COH601      0.0000
     31  CAC      245.9780   94.4930  -41.1420 C.3   601  COH601      0.0000
     32  CBC      246.6090   95.6580  -41.6910 C.3   601  COH601      0.0000
     33  ND       241.3700   91.9200  -41.2490 N.2   601  COH601      0.0000
     34  C1D      241.8840   92.9700  -40.5770 C.2   601  COH601      0.0000
     35  C2D      240.8650   93.5810  -39.5810 C.2   601  COH601      0.0000
     36  C3D      239.7520   92.8170  -39.7410 C.2   601  COH601      0.0000
     37  C4D      240.0300   91.8140  -40.7290 C.2   601  COH601      0.0000
     38  CMD      241.1980   94.7810  -38.6890 C.3   601  COH601      0.0000
     39  CAD      238.3550   92.9900  -39.0820 C.3   601  COH601      0.0000
     40  CBD      238.0990   92.1050  -37.8470 C.3   601  COH601      0.0000
     41  CGD      238.7970   92.5420  -36.5790 C.2   601  COH601      0.0000
     42  O1D      239.9470   92.0910  -36.3270 O.co2 601  COH601      0.0000
     43  O2D      238.1930   93.3300  -35.8300 O.co2 601  COH601      0.0000
@<TRIPOS>BOND
     1    22    19    1
     2    23    24    1
     3    23    20    1
     4    19    20    2
     5    19    18    1
     6    20    21    1
     7    18     3    1
     8    18    17    2
     9    21     4    2
    10    21    17    1
    11     3    10    2
    12    11     9    1
    13     4    26    1
    14    17     1    1
    15    16    14   ar
    16    10     9   ar
    17    10     6   ar
    18    30    27    1
    19     9     8   ar
    20    26    27   ar
    21    26    25   ar
    22    27    28   ar
    23     6     1    1
    24     6     7   ar
    25    14    13    1
    26    14    15   ar
    27    13    12    1
    28     1    25    1
    29     1    33    1
    30    25    29   ar
    31     8     7   ar
    32     8    12    1
    33     7     2    2
    34    28    29   ar
    35    28    31    1
    36    32    31    1
    37    29     5    1
    38    33    37    2
    39    33    34    1
    40     2    37    1
    41     5    34    2
    42    37    36    1
    43    34    35    1
    44    36    35    2
    45    36    39    1
    46    35    38    1
    47    39    40    1
    48    40    41    1
    49    41    42   ar
    50    41    43   ar
