@<TRIPOS>MOLECULE
1u68_NPR_A_1.pdb
 18 19 0 0 0
SMALL
GASTEIGER

@<TRIPOS>ATOM
      1  N1        47.6350   44.5240   78.4390 N.pl3 1001  NPR1001    -0.0220
      2  C2        47.8200   45.3630   77.4510 C.1   1001  NPR1001     0.2609
      3  N3        46.9240   46.3230   77.0630 N.2   1001  NPR1001    -0.2466
      4  C4        47.1260   47.1920   76.0230 C.1   1001  NPR1001     0.2569
      5  O5        46.3160   48.0510   75.7050 O.2   1001  NPR1001    -0.2052
      6  C6        48.3950   47.1030   75.2280 C.2   1001  NPR1001     0.2989
      7  N7        48.7420   47.9680   74.0420 N.2   1001  NPR1001    -0.3830
      8  C8        49.9470   47.7920   73.4060 C.2   1001  NPR1001     0.1467
      9  C9        50.9400   46.7380   73.8790 C.3   1001  NPR1001     0.1940
     10  N10       50.5470   45.9600   75.0220 N.2   1001  NPR1001    -0.1992
     11  C11       49.2630   46.1620   75.6450 C.1   1001  NPR1001     0.1401
     12  N12       48.9740   45.2740   76.7680 N.2   1001  NPR1001    -0.2672
     13  C13       50.5840   48.5870   72.2400 C.3   1001  NPR1001     0.2340
     14  O14       50.7460   49.9380   72.5570 O.3   1001  NPR1001    -0.2129
     15  C15       50.2960   48.1590   70.7800 C.3   1001  NPR1001     0.2214
     16  O16       49.6590   46.9020   70.7530 O.3   1001  NPR1001    -0.2171
     17  C17       51.6430   47.9750   70.0340 C.3   1001  NPR1001     0.2178
     18  O18       51.5370   47.6950   68.6640 O.3   1001  NPR1001    -0.2175
@<TRIPOS>BOND
     1    18    17    1
     2    17    15    1
     3    16    15    1
     4    15    13    1
     5    13    14    1
     6    13     8    1
     7     8     9    1
     8     8     7    2
     9     9    10    1
    10     7     6    2
    11    10    11    2
    12     6    11    1
    13     6     4    1
    14    11    12    2
    15     5     4    2
    16     4     3    2
    17    12     2    2
    18     3     2    2
    19     2     1    1
