@<TRIPOS>MOLECULE
1u6q_745_A_1.pdb
 22 25 0 0 0
SMALL
GASTEIGER

@<TRIPOS>ATOM
      1  C1        23.0250   15.7430   33.2780 C.ar  245  745245     -0.0222
      2  C2        21.7010   15.7210   32.7100 C.ar  245  745245     -0.0043
      3  C3        20.7990   16.7990   32.9850 C.ar  245  745245     -0.0003
      4  C4        21.2670   17.9470   33.7650 C.ar  245  745245      0.0002
      5  C5        22.6430   17.9910   34.2100 C.ar  245  745245     -0.0003
      6  C6        23.5350   16.9180   33.9280 C.ar  245  745245     -0.0043
      7  C10       19.4440   16.7860   32.5130 C.ar  245  745245      0.0002
      8  C11       18.5540   17.8310   32.8520 C.ar  245  745245      0.0080
      9  C12       18.9810   18.9290   33.6570 C.ar  245  745245      0.0975
     10  C13       20.3580   18.9930   34.0530 C.ar  245  745245      0.0080
     11  C17       18.0710   20.0100   34.0050 C.2   245  745245      0.4766
     12  N18       16.7930   19.7920   33.9730 N.pl3 245  745245      0.2047
     13  N19       18.4780   21.2580   34.2300 N.pl3 245  745245      0.2047
     14  C23       23.9560   14.6350   33.4210 C.3   245  745245      0.0267
     15  C24       24.8640   14.8000   32.0590 C.3   245  745245      0.0267
     16  C25       25.9450   14.1780   31.1900 C.ar  245  745245     -0.0222
     17  C26       26.7970   14.7920   30.2100 C.ar  245  745245     -0.0043
     18  C27       27.5160   13.9460   29.3030 C.ar  245  745245     -0.0003
     19  C28       27.4080   12.5500   29.4060 C.ar  245  745245     -0.0000
     20  C29       26.8100   11.9720   30.5180 C.ar  245  745245     -0.0003
     21  C30       26.0970   12.7820   31.3880 C.ar  245  745245     -0.0043
     22  C7        25.4190   14.3480   33.3900 C.3   245  745245      0.0094
@<TRIPOS>BOND
     1    18    19   ar
     2    18    17   ar
     3    19    20   ar
     4    17    16   ar
     5    20    21   ar
     6    16    21   ar
     7    16    15    1
     8    15    22    1
     9    15    14    1
    10     7     8   ar
    11     7     3   ar
    12     2     3   ar
    13     2     1   ar
    14     8     9   ar
    15     3     4   ar
    16     1    14    1
    17     1     6   ar
    18    22    14    1
    19     9    11    1
    20     9    10   ar
    21     4    10   ar
    22     4     5   ar
    23     6     5   ar
    24    12    11    2
    25    11    13    1
