@<TRIPOS>MOLECULE
1u6r_ADP_A_1.pdb
 27 29 0 0 0
SMALL
GASTEIGER

@<TRIPOS>ATOM
      1  PB        25.7800   53.5120   80.1330 P.3   1801  ADP1801     0.5373
      2  O1B       27.1090   53.0560   80.5240 O.3   1801  ADP1801    -0.1143
      3  O2B       25.4990   53.1360   78.7440 O.2   1801  ADP1801    -0.2221
      4  O3B       24.7320   52.9800   81.0450 O.3   1801  ADP1801    -0.1143
      5  PA        25.6620   56.1730   81.3960 P.3   1801  ADP1801     0.2231
      6  O1A       25.7850   55.3750   82.6460 O.3   1801  ADP1801    -0.4370
      7  O2A       24.3750   56.8770   81.2320 O.2   1801  ADP1801    -0.5169
      8  O3A       25.8180   55.1860   80.3660 O.3   1801  ADP1801    -0.2261
      9  O5'       26.8380   56.9480   80.8980 O.3   1801  ADP1801    -0.3111
     10  C5'       28.1440   56.5250   81.3230 C.3   1801  ADP1801     0.1813
     11  C4'       29.2190   57.5110   80.8540 C.3   1801  ADP1801     0.1821
     12  O4'       29.4310   57.4150   79.4330 O.3   1801  ADP1801    -0.3135
     13  C3'       28.9290   58.9730   81.1590 C.3   1801  ADP1801     0.2184
     14  O3'       29.9620   59.4390   82.0450 O.3   1801  ADP1801    -0.2174
     15  C2'       28.9440   59.7510   79.8550 C.3   1801  ADP1801     0.2570
     16  O2'       29.7690   60.9110   79.9380 O.3   1801  ADP1801    -0.2130
     17  C1'       29.3310   58.7150   78.7960 C.3   1801  ADP1801     0.3186
     18  N9        28.4490   58.7060   77.5790 N.pl3 1801  ADP1801    -0.1439
     19  C8        27.2460   58.1290   77.3750 C.3   1801  ADP1801     0.3377
     20  N7        26.8460   58.3810   76.1160 N.2   1801  ADP1801    -0.2095
     21  C5        27.7950   59.1030   75.5380 C.2   1801  ADP1801     0.2526
     22  C6        27.8460   59.6180   74.2090 C.2   1801  ADP1801     0.4393
     23  N6        26.9090   59.4560   73.2740 N.pl3 1801  ADP1801     0.2180
     24  N1        28.9700   60.3330   73.9050 N.2   1801  ADP1801     0.0021
     25  C2        29.9640   60.5350   74.7940 C.3   1801  ADP1801     0.5254
     26  N3        29.9000   60.0410   76.0510 N.2   1801  ADP1801    -0.0055
     27  C4        28.8190   59.3120   76.4530 C.2   1801  ADP1801     0.3518
@<TRIPOS>BOND
     1    23    22    1
     2    24    22    2
     3    24    25    1
     4    22    21    1
     5    25    26    1
     6    21    20    2
     7    21    27    1
     8    26    27    2
     9    20    19    1
    10    27    18    1
    11    19    18    1
    12    18    17    1
    13     3     1    2
    14    17    12    1
    15    17    15    1
    16    12    11    1
    17    15    16    1
    18    15    13    1
    19     1     8    1
    20     1     2    1
    21     1     4    1
    22     8     5    1
    23    11    13    1
    24    11    10    1
    25     9    10    1
    26     9     5    1
    27    13    14    1
    28     7     5    2
    29     5     6    1
