@<TRIPOS>MOLECULE
1u70_NDP_A_1.pdb
 48 52 0 0 0
SMALL
GASTEIGER

@<TRIPOS>ATOM
      1  PA        -1.9860   -8.5380   16.9130 P.3   188  NDP188      0.2189
      2  O1A       -3.3070   -8.5370   16.2660 O.2   188  NDP188     -0.5170
      3  O2A       -1.0050   -7.7280   16.2660 O.3   188  NDP188     -0.4371
      4  O5B       -1.4610  -10.0630   17.0380 O.3   188  NDP188     -0.3112
      5  C5B       -2.3190  -11.0340   17.6600 C.3   188  NDP188      0.1813
      6  C4B       -2.8130  -12.0360   16.6740 C.3   188  NDP188      0.1820
      7  O4B       -2.2120  -11.6750   15.3960 O.3   188  NDP188     -0.3136
      8  C3B       -2.4190  -13.4710   16.9450 C.3   188  NDP188      0.2157
      9  O3B       -3.2400  -14.1780   17.9200 O.3   188  NDP188     -0.2175
     10  C2B       -2.4740  -13.9800   15.4910 C.3   188  NDP188      0.2314
     11  O2B       -3.4090  -14.9820   14.9860 O.3   188  NDP188     -0.2630
     12  C1B       -1.9150  -12.8840   14.6410 C.3   188  NDP188      0.3158
     13  N9A       -0.4450  -12.9360   14.3620 N.pl3 188  NDP188     -0.1439
     14  C8A        0.5150  -12.1070   14.8670 C.3   188  NDP188      0.3377
     15  N7A        1.7440  -12.4130   14.4020 N.2   188  NDP188     -0.2095
     16  C5A        1.5150  -13.4440   13.6040 C.2   188  NDP188      0.2526
     17  C6A        2.4820  -14.1190   12.8700 C.2   188  NDP188      0.4393
     18  N6A        3.7620  -13.7410   12.9410 N.pl3 188  NDP188      0.2180
     19  N1A        2.0680  -15.1740   12.0850 N.2   188  NDP188      0.0021
     20  C2A        0.7630  -15.5230   12.0370 C.3   188  NDP188      0.5254
     21  N3A       -0.1740  -14.8570   12.7520 N.2   188  NDP188     -0.0055
     22  C4A        0.1600  -13.8040   13.5500 C.2   188  NDP188      0.3518
     23  O3        -2.1390   -8.1900   18.4840 O.3   188  NDP188     -0.2703
     24  PN        -1.2120   -7.7170   19.7070 P.3   188  NDP188      0.2189
     25  O1N        0.2070   -7.6590   19.2810 O.2   188  NDP188     -0.5170
     26  O2N       -1.5370   -8.4950   20.9250 O.3   188  NDP188     -0.4371
     27  O5D       -1.6730   -6.2070   19.9860 O.3   188  NDP188     -0.3112
     28  C5D       -2.9200   -5.6900   19.5480 C.3   188  NDP188      0.1813
     29  C4D       -3.1920   -4.4890   20.4240 C.3   188  NDP188      0.1799
     30  O4D       -2.2570   -3.4350   20.1010 O.3   188  NDP188     -0.3327
     31  C3D       -4.6080   -3.8950   20.2070 C.3   188  NDP188      0.2158
     32  O3D       -5.2410   -3.5460   21.4670 O.3   188  NDP188     -0.2175
     33  C2D       -4.4080   -2.6830   19.3090 C.3   188  NDP188      0.2309
     34  O2D       -5.4200   -1.6800   19.4330 O.3   188  NDP188     -0.2158
     35  C1D       -2.9830   -2.2350   19.6920 C.3   188  NDP188      0.2263
     36  N1N       -2.1840   -1.5970   18.5920 N.pl3 188  NDP188     -0.2787
     37  C2N       -1.7020   -0.2480   18.7080 C.3   188  NDP188      0.1244
     38  C3N       -0.9410    0.3150   17.6420 C.2   188  NDP188      0.0544
     39  C7N       -0.3800    1.7640   17.6780 C.2   188  NDP188      0.2818
     40  O7N        0.7610    1.9940   17.2660 O.2   188  NDP188     -0.2670
     41  N7N       -1.1700    2.7330   18.1560 N.am  188  NDP188     -0.0839
     42  C4N       -0.6820   -0.4790   16.4910 C.2   188  NDP188      0.0033
     43  C5N       -1.1620   -1.8060   16.3850 C.2   188  NDP188      0.0157
     44  C6N       -1.9100   -2.3730   17.4220 C.2   188  NDP188      0.0633
     45  P2B       -4.3020  -15.9520   15.8820 P.3   188  NDP188      0.5328
     46  O1X       -3.3750  -16.7780   16.6840 O.3   188  NDP188     -0.1145
     47  O2X       -5.1130  -16.8150   15.0080 O.2   188  NDP188     -0.2224
     48  O3X       -5.2170  -15.2100   16.7620 O.3   188  NDP188     -0.1145
@<TRIPOS>BOND
     1    20    19    1
     2    20    21    1
     3    19    17    2
     4    21    22    2
     5    17    18    1
     6    17    16    1
     7    22    16    1
     8    22    13    1
     9    16    15    2
    10    13    12    1
    11    13    14    1
    12    15    14    1
    13    12     7    1
    14    12    10    1
    15    11    10    1
    16    11    45    1
    17    47    45    2
    18     7     6    1
    19    10     8    1
    20    45    46    1
    21    45    48    1
    22     2     1    2
    23     3     1    1
    24    43    42    1
    25    43    44    2
    26    42    38    2
    27     6     8    1
    28     6     5    1
    29     1     4    1
    30     1    23    1
    31     8     9    1
    32     4     5    1
    33    40    39    2
    34    44    36    1
    35    38    39    1
    36    38    37    1
    37    39    41   am
    38    23    24    1
    39    36    37    1
    40    36    35    1
    41    25    24    2
    42    33    34    1
    43    33    35    1
    44    33    31    1
    45    28    27    1
    46    28    29    1
    47    35    30    1
    48    24    27    1
    49    24    26    1
    50    30    29    1
    51    31    29    1
    52    31    32    1
