@<TRIPOS>MOLECULE
1u70_MTX_A_1.pdb
 33 35 0 0 0
SMALL
GASTEIGER

@<TRIPOS>ATOM
      1  N1        -1.0650    4.8430   14.3810 N.2   187  MTX187     -0.2684
      2  C2         0.1010    4.6920   13.7700 C.1   187  MTX187      0.2519
      3  NA2        0.9200    5.6260   13.5530 N.pl3 187  MTX187     -0.0226
      4  N3         0.4710    3.3940   13.3200 N.2   187  MTX187     -0.3033
      5  C4        -0.2970    2.2580   13.4620 C.2   187  MTX187      0.2728
      6  NA4        0.1150    1.1360   13.0270 N.pl3 187  MTX187     -0.0887
      7  C4A       -1.6120    2.4290   14.1370 C.2   187  MTX187      0.2518
      8  N5        -2.4860    1.3160   14.2440 N.2   187  MTX187     -0.3917
      9  C6        -3.7280    1.5210   14.8210 C.2   187  MTX187      0.1330
     10  C7        -4.0300    2.8500   15.2770 C.3   187  MTX187      0.1930
     11  N8        -3.2210    3.9290   15.1830 N.2   187  MTX187     -0.1998
     12  C8A       -1.9510    3.6940   14.5740 C.1   187  MTX187      0.1314
     13  C9        -4.6930    0.3070   14.9160 C.3   187  MTX187      0.1481
     14  N10       -6.1090    0.6880   15.0860 N.pl3 187  MTX187     -0.2999
     15  CM        -6.7440    0.0770   16.0140 C.3   187  MTX187      0.1125
     16  C11       -8.4520    2.7210   12.0590 C.ar  187  MTX187      0.0551
     17  C12       -8.9660    2.3980   13.3070 C.ar  187  MTX187      0.0058
     18  C13       -8.2000    1.7370   14.2540 C.ar  187  MTX187      0.0147
     19  C14       -6.8040    1.3450   13.9810 C.ar  187  MTX187      0.0482
     20  C15       -6.2600    1.6440   12.7390 C.ar  187  MTX187      0.0147
     21  C16       -7.0840    2.3290   11.7790 C.ar  187  MTX187      0.0058
     22  C         -9.2440    3.4030   11.1200 C.2   187  MTX187      0.2652
     23  O        -10.4490    3.3400   11.0550 O.2   187  MTX187     -0.2684
     24  N         -8.6390    4.1070   10.2680 N.am  187  MTX187     -0.1918
     25  CA        -9.2150    4.8690    9.1560 C.3   187  MTX187      0.1986
     26  CT        -8.3480    4.7340    7.8960 C.2   187  MTX187      0.3842
     27  O1        -7.1040    4.5640    7.9630 O.co2 187  MTX187     -0.2437
     28  O2        -8.9350    4.8070    6.7890 O.co2 187  MTX187     -0.2437
     29  CB        -9.0190    6.3070    9.6350 C.3   187  MTX187      0.0451
     30  CG       -10.3480    7.0480   10.0410 C.3   187  MTX187      0.1164
     31  CD        -9.7170    8.3750   10.4200 C.2   187  MTX187      0.3649
     32  OE1       -9.3890    8.2210   11.7160 O.co2 187  MTX187     -0.2457
     33  OE2       -9.6000    9.3710    9.5110 O.co2 187  MTX187     -0.2457
@<TRIPOS>BOND
     1    28    26   ar
     2    26    27   ar
     3    26    25    1
     4    25    29    1
     5    25    24    1
     6    33    31   ar
     7    29    30    1
     8    30    31    1
     9    24    22   am
    10    31    32   ar
    11    23    22    2
    12    22    16    1
    13    21    16   ar
    14    21    20   ar
    15    16    17   ar
    16    20    19   ar
    17     6     5    1
    18    17    18   ar
    19     4     5    2
    20     4     2    2
    21     5     7    1
    22     3     2    1
    23     2     1    2
    24    19    18   ar
    25    19    14    1
    26     7     8    2
    27     7    12    1
    28     8     9    2
    29     1    12    2
    30    12    11    2
    31     9    13    1
    32     9    10    1
    33    13    14    1
    34    14    15    1
    35    11    10    1
