@<TRIPOS>MOLECULE
1u71_MXA_A_1.pdb
 24 26 0 0 0
SMALL
GASTEIGER

@<TRIPOS>ATOM
      1  N1        28.7960   13.1390   -4.3190 N.2   187  MXA187     -0.2706
      2  C2        27.5960   12.6440   -4.4550 C.1   187  MXA187      0.2517
      3  N2        27.1960   12.3270   -5.7000 N.pl3 187  MXA187     -0.0226
      4  N3        26.7520   12.3650   -3.4240 N.2   187  MXA187     -0.3061
      5  C4        27.1020   12.6130   -2.2120 C.2   187  MXA187      0.2427
      6  N4        26.1370   12.3020   -1.3320 N.pl3 187  MXA187     -0.0914
      7  C4A       28.3750   13.2270   -1.9150 C.2   187  MXA187      0.1185
      8  C5        28.9030   13.6070   -0.6740 C.2   187  MXA187     -0.0097
      9  C5M       28.1790   13.4400    0.6520 C.3   187  MXA187      0.0316
     10  C6        30.1710   14.1720   -0.6450 C.2   187  MXA187     -0.0009
     11  C7        30.8480   14.3570   -1.8610 C.2   187  MXA187      0.1063
     12  N8        30.4070   14.0210   -3.0420 N.2   187  MXA187     -0.1818
     13  C8A       29.1880   13.4550   -3.0760 C.1   187  MXA187      0.1046
     14  C9        30.8230   14.6760    0.6050 C.3   187  MXA187      0.0571
     15  C1'       32.2470   14.3200    0.9540 C.ar  187  MXA187      0.0192
     16  C2'       33.2770   15.2500    0.8970 C.ar  187  MXA187      0.1352
     17  O2'       32.8830   16.5130    0.4990 O.3   187  MXA187     -0.4717
     18  C21       33.9050   17.4780    0.2510 C.3   187  MXA187      0.2525
     19  C3'       34.5470   14.8740    1.2670 C.ar  187  MXA187      0.0397
     20  C4'       34.8080   13.5700    1.7060 C.ar  187  MXA187      0.0400
     21  C5'       33.8190   12.6740    1.7400 C.ar  187  MXA187      0.1386
     22  O5'       33.8000   11.3260    2.0990 O.3   187  MXA187     -0.4714
     23  C51       32.4620   10.8250    2.0700 C.3   187  MXA187      0.2525
     24  C6'       32.5330   13.0600    1.3960 C.ar  187  MXA187      0.0360
@<TRIPOS>BOND
     1     3     2    1
     2     2     1    2
     3     2     4    2
     4     1    13    2
     5     4     5    2
     6    13    12    2
     7    13     7    1
     8    12    11    1
     9     5     7    1
    10     5     6    1
    11     7     8    2
    12    11    10    2
    13     8    10    1
    14     8     9    1
    15    10    14    1
    16    18    17    1
    17    17    16    1
    18    14    15    1
    19    16    15   ar
    20    16    19   ar
    21    15    24   ar
    22    19    20   ar
    23    24    21   ar
    24    20    21   ar
    25    21    22    1
    26    23    22    1
