@<TRIPOS>MOLECULE
1u72_MTX_A_1.pdb
 33 35 0 0 0
SMALL
GASTEIGER

@<TRIPOS>ATOM
      1  N1        28.7630   12.9690   -4.2600 N.2   188  MTX188     -0.2684
      2  C2        27.4470   12.7490   -4.4770 C.1   188  MTX188      0.2519
      3  NA2       27.0080   12.5890   -5.6950 N.pl3 188  MTX188     -0.0226
      4  N3        26.5500   12.6420   -3.5030 N.2   188  MTX188     -0.3033
      5  C4        26.9350   12.7650   -2.2560 C.2   188  MTX188      0.2728
      6  NA4       25.9920   12.6900   -1.3830 N.pl3 188  MTX188     -0.0887
      7  C4A       28.3250   13.0470   -1.9270 C.2   188  MTX188      0.2518
      8  N5        28.7520   13.2140   -0.6730 N.2   188  MTX188     -0.3917
      9  C6        30.0250   13.4360   -0.4740 C.2   188  MTX188      0.1330
     10  C7        30.9330   13.5080   -1.5180 C.3   188  MTX188      0.1930
     11  N8        30.5500   13.3390   -2.7870 N.2   188  MTX188     -0.1998
     12  C8A       29.2410   13.1190   -2.9870 C.1   188  MTX188      0.1314
     13  C9        30.4210   13.5990    0.9930 C.3   188  MTX188      0.1481
     14  N10       31.7050   14.2510    1.1010 N.pl3 188  MTX188     -0.2999
     15  CM        32.7240   13.6150    1.9250 C.3   188  MTX188      0.1125
     16  C11       32.1390   18.3040    0.0490 C.ar  188  MTX188      0.0551
     17  C12       30.9100   17.6820   -0.0120 C.ar  188  MTX188      0.0058
     18  C13       30.7670   16.3730    0.3060 C.ar  188  MTX188      0.0147
     19  C14       31.8420   15.5990    0.7500 C.ar  188  MTX188      0.0482
     20  C15       33.0880   16.2370    0.7950 C.ar  188  MTX188      0.0147
     21  C16       33.2360   17.5590    0.4680 C.ar  188  MTX188      0.0058
     22  C         32.2790   19.7460   -0.3000 C.2   188  MTX188      0.2652
     23  O         33.2540   20.2960    0.2540 O.2   188  MTX188     -0.2684
     24  N         31.3400   20.2890   -1.0690 N.am  188  MTX188     -0.1918
     25  CA        31.2370   21.6120   -1.6760 C.3   188  MTX188      0.1986
     26  CT        29.9170   22.3420   -1.5180 C.2   188  MTX188      0.3842
     27  O1        30.0190   23.6170   -1.5170 O.co2 188  MTX188     -0.2437
     28  O2        28.9410   21.5740   -1.4230 O.co2 188  MTX188     -0.2437
     29  CB        31.6130   21.4920   -3.1550 C.3   188  MTX188      0.0451
     30  CG        33.0050   22.0870   -3.1610 C.3   188  MTX188      0.1164
     31  CD        33.6830   21.6570   -4.3770 C.2   188  MTX188      0.3649
     32  OE1       34.7260   20.8850   -4.5630 O.co2 188  MTX188     -0.2457
     33  OE2       33.1150   22.0400   -5.5070 O.co2 188  MTX188     -0.2457
@<TRIPOS>BOND
     1     3     2    1
     2    33    31   ar
     3    32    31   ar
     4     2     1    2
     5     2     4    2
     6    31    30    1
     7     1    12    2
     8     4     5    2
     9    30    29    1
    10    29    25    1
    11    12    11    2
    12    12     7    1
    13    11    10    1
    14     5     7    1
    15     5     6    1
    16     7     8    2
    17    25    26    1
    18    25    24    1
    19    10     9    1
    20    26    27   ar
    21    26    28   ar
    22    24    22   am
    23     8     9    2
    24     9    13    1
    25    22    16    1
    26    22    23    2
    27    17    16   ar
    28    17    18   ar
    29    16    21   ar
    30    18    19   ar
    31    21    20   ar
    32    19    20   ar
    33    19    14    1
    34    13    14    1
    35    14    15    1
