@<TRIPOS>MOLECULE
1u72_NDP_A_1.pdb
 48 52 0 0 0
SMALL
GASTEIGER

@<TRIPOS>ATOM
      1  PA        26.9180    8.7020    8.6090 P.3   187  NDP187      0.2189
      2  O1A       27.5110    9.9250    7.9860 O.2   187  NDP187     -0.5170
      3  O2A       25.5610    8.2080    8.3050 O.3   187  NDP187     -0.4371
      4  O5B       27.1630    8.7770   10.2500 O.3   187  NDP187     -0.3112
      5  C5B       26.3690    7.8500   11.0620 C.3   187  NDP187      0.1813
      6  C4B       26.0920    8.6420   12.3850 C.3   187  NDP187      0.1820
      7  O4B       25.1240    9.3630   12.1540 O.3   187  NDP187     -0.3136
      8  C3B       25.5370    7.4630   13.3760 C.3   187  NDP187      0.2157
      9  O3B       26.7870    7.1840   14.1830 O.3   187  NDP187     -0.2175
     10  C2B       24.5130    8.3200   14.0980 C.3   187  NDP187      0.2314
     11  O2B       25.0360    9.2650   14.9740 O.3   187  NDP187     -0.2630
     12  C1B       23.9390    9.2030   12.9730 C.3   187  NDP187      0.3158
     13  N9A       22.7820    8.7350   12.2450 N.pl3 187  NDP187     -0.1439
     14  C8A       22.9030    8.2070   11.0180 C.3   187  NDP187      0.3377
     15  N7A       21.7550    7.8910   10.5350 N.2   187  NDP187     -0.2095
     16  C5A       20.8420    8.3060   11.5480 C.2   187  NDP187      0.2526
     17  C6A       19.2900    8.2660   11.6910 C.2   187  NDP187      0.4393
     18  N6A       18.5220    7.7640   10.7080 N.pl3 187  NDP187      0.2180
     19  N1A       18.7570    8.7300   12.8750 N.2   187  NDP187      0.0021
     20  C2A       19.6450    9.1790   13.7550 C.3   187  NDP187      0.5254
     21  N3A       20.9660    9.2670   13.7080 N.2   187  NDP187     -0.0055
     22  C4A       21.5100    8.7780   12.5520 C.2   187  NDP187      0.3518
     23  O3        28.0480    7.6920    8.2620 O.3   187  NDP187     -0.2703
     24  PN        28.4090    6.4290    7.3970 P.3   187  NDP187      0.2189
     25  O1N       27.2710    5.7770    6.8860 O.2   187  NDP187     -0.5170
     26  O2N       29.0980    5.5300    8.3410 O.3   187  NDP187     -0.4371
     27  O5D       29.5030    6.9810    6.3880 O.3   187  NDP187     -0.3112
     28  C5D       29.9020    8.1760    5.7650 C.3   187  NDP187      0.1813
     29  C4D       31.2050    7.7150    5.1260 C.3   187  NDP187      0.1799
     30  O4D       31.0960    7.6140    3.6500 O.3   187  NDP187     -0.3327
     31  C3D       32.5080    8.5750    5.1570 C.3   187  NDP187      0.2158
     32  O3D       33.4870    7.6090    4.6490 O.3   187  NDP187     -0.2175
     33  C2D       32.0880    9.6930    4.1410 C.3   187  NDP187      0.2309
     34  O2D       33.2120   10.3690    3.6730 O.3   187  NDP187     -0.2158
     35  C1D       31.5170    8.8740    3.0020 C.3   187  NDP187      0.2263
     36  N1N       30.3120    9.3560    2.1780 N.pl3 187  NDP187     -0.2787
     37  C2N       30.2550    9.1630    0.7660 C.3   187  NDP187      0.1244
     38  C3N       29.2050    9.6130    0.0500 C.2   187  NDP187      0.0544
     39  C7N       29.2250    9.3840   -1.4180 C.2   187  NDP187      0.2818
     40  O7N       28.2170    9.7660   -1.9600 O.2   187  NDP187     -0.2670
     41  N7N       30.2190    8.7730   -2.0800 N.am  187  NDP187     -0.0839
     42  C4N       27.9600   10.2510    0.6840 C.2   187  NDP187      0.0033
     43  C5N       28.1650   10.3580    2.1740 C.2   187  NDP187      0.0157
     44  C6N       29.2290    9.9370    2.8490 C.2   187  NDP187      0.0633
     45  P2B       25.1610    8.9940   16.6560 P.3   187  NDP187      0.5328
     46  O1X       23.7750    8.6440   17.0730 O.3   187  NDP187     -0.1145
     47  O2X       25.4230   10.3920   17.0470 O.3   187  NDP187     -0.1145
     48  O3X       26.1200    7.9020   16.6280 O.2   187  NDP187     -0.2224
@<TRIPOS>BOND
     1    41    39   am
     2    40    39    2
     3    39    38    1
     4    38    42    2
     5    38    37    1
     6    42    43    1
     7    37    36    1
     8    43    44    2
     9    36    44    1
    10    36    35    1
    11    35    30    1
    12    35    33    1
    13    30    29    1
    14    34    33    1
    15    33    31    1
    16    32    31    1
    17    29    31    1
    18    29    28    1
    19    28    27    1
    20    27    24    1
    21    25    24    2
    22    24    23    1
    23    24    26    1
    24     2     1    2
    25    23     1    1
    26     3     1    1
    27     1     4    1
    28     4     5    1
    29    15    14    1
    30    15    16    2
    31    18    17    1
    32    14    13    1
    33     5     6    1
    34    16    17    1
    35    16    22    1
    36    17    19    2
    37     7     6    1
    38     7    12    1
    39    13    22    1
    40    13    12    1
    41     6     8    1
    42    22    21    2
    43    19    20    1
    44    12    10    1
    45     8    10    1
    46     8     9    1
    47    21    20    1
    48    10    11    1
    49    11    45    1
    50    48    45    2
    51    45    47    1
    52    45    46    1
