@<TRIPOS>MOLECULE
1u74_ZNH_A_1.pdb
 43 50 0 0 0
SMALL
GASTEIGER

@<TRIPOS>ATOM
      1 ZN         20.8820   -3.0180   -0.2620 Zn    1001  ZNH1001     0.0000
      2  CHA       23.6750   -3.3200    1.6380 C.2   1001  ZNH1001     0.0000
      3  CHB       22.7850   -3.4880   -3.0050 C.2   1001  ZNH1001     0.0000
      4  CHC       18.1100   -2.7000   -2.2020 C.2   1001  ZNH1001     0.0000
      5  CHD       19.0270   -2.6970    2.5420 C.2   1001  ZNH1001     0.0000
      6  NA        22.8910   -3.3760   -0.6420 N.ar  1001  ZNH1001     0.0000
      7  C1A       23.8790   -3.4680    0.2700 C.ar  1001  ZNH1001     0.0000
      8  C2A       25.1270   -3.6990   -0.3730 C.ar  1001  ZNH1001     0.0000
      9  C3A       24.9030   -3.7000   -1.7190 C.ar  1001  ZNH1001     0.0000
     10  C4A       23.4890   -3.5140   -1.8390 C.ar  1001  ZNH1001     0.0000
     11  CMA       25.9280   -3.7660   -2.8800 C.3   1001  ZNH1001     0.0000
     12  CAA       26.4260   -3.9510    0.3860 C.3   1001  ZNH1001     0.0000
     13  CBA       26.7830   -5.3530    0.8310 C.3   1001  ZNH1001     0.0000
     14  CGA       28.0290   -5.3840    1.6800 C.2   1001  ZNH1001     0.0000
     15  O1A       29.0710   -4.8900    1.2020 O.co2 1001  ZNH1001     0.0000
     16  O2A       27.9640   -5.8960    2.8200 O.co2 1001  ZNH1001     0.0000
     17  NB        20.4760   -3.1130   -2.2620 N.2   1001  ZNH1001     0.0000
     18  C1B       21.3950   -3.3120   -3.2220 C.2   1001  ZNH1001     0.0000
     19  C2B       20.7900   -3.2520   -4.4760 C.2   1001  ZNH1001     0.0000
     20  C3B       19.4620   -2.9270   -4.3450 C.2   1001  ZNH1001     0.0000
     21  C4B       19.2950   -2.8910   -2.8960 C.2   1001  ZNH1001     0.0000
     22  CMB       21.6630   -3.8150   -5.5870 C.3   1001  ZNH1001     0.0000
     23  CAB       18.4200   -2.7120   -5.2870 C.2   1001  ZNH1001     0.0000
     24  CBB       18.1810   -1.8670   -6.3410 C.2   1001  ZNH1001     0.0000
     25  NC        18.8900   -2.6160    0.1150 N.ar  1001  ZNH1001     0.0000
     26  C1C       17.8790   -2.6240   -0.8090 C.ar  1001  ZNH1001     0.0000
     27  C2C       16.5620   -2.6980   -0.1500 C.ar  1001  ZNH1001     0.0000
     28  C3C       16.8350   -2.7400    1.2430 C.ar  1001  ZNH1001     0.0000
     29  C4C       18.2940   -2.6520    1.3460 C.ar  1001  ZNH1001     0.0000
     30  CMC       15.2090   -2.8290   -0.9070 C.3   1001  ZNH1001     0.0000
     31  CAC       16.0600   -3.0910    2.3860 C.2   1001  ZNH1001     0.0000
     32  CBC       14.7710   -2.7840    2.6580 C.2   1001  ZNH1001     0.0000
     33  ND        21.2780   -3.0230    1.7450 N.2   1001  ZNH1001     0.0000
     34  C1D       20.3970   -2.8240    2.7600 C.2   1001  ZNH1001     0.0000
     35  C2D       21.0980   -2.7320    4.0310 C.2   1001  ZNH1001     0.0000
     36  C3D       22.4190   -2.9020    3.7770 C.2   1001  ZNH1001     0.0000
     37  C4D       22.5070   -3.0950    2.3470 C.2   1001  ZNH1001     0.0000
     38  CMD       20.4700   -2.3630    5.3740 C.3   1001  ZNH1001     0.0000
     39  CAD       23.5900   -2.7590    4.7620 C.3   1001  ZNH1001     0.0000
     40  CBD       24.0450   -4.0860    5.3380 C.3   1001  ZNH1001     0.0000
     41  CGD       25.3250   -4.0150    6.1610 C.2   1001  ZNH1001     0.0000
     42  O1D       25.8300   -5.1020    6.5160 O.co2 1001  ZNH1001     0.0000
     43  O2D       25.8260   -2.9040    6.4480 O.co2 1001  ZNH1001     0.0000
@<TRIPOS>BOND
     1    24    23    2
     2    22    19    1
     3    23    20    1
     4    19    20    2
     5    19    18    1
     6    20    21    1
     7    18     3    1
     8    18    17    2
     9     3    10    2
    10    21    17    1
    11    21     4    2
    12    11     9    1
    13    17     1    1
    14     4    26    1
    15    10     9   ar
    16    10     6   ar
    17     9     8   ar
    18    30    27    1
    19    26    27   ar
    20    26    25   ar
    21     6     1    1
    22     6     7   ar
    23     8     7   ar
    24     8    12    1
    25     1    25    1
    26     1    33    1
    27    27    28   ar
    28    25    29   ar
    29     7     2    2
    30    12    13    1
    31    13    14    1
    32    15    14   ar
    33    28    29   ar
    34    28    31    1
    35    29     5    1
    36     2    37    1
    37    14    16   ar
    38    33    37    2
    39    33    34    1
    40    37    36    1
    41    31    32    2
    42     5    34    2
    43    34    35    1
    44    36    35    2
    45    36    39    1
    46    35    38    1
    47    39    40    1
    48    40    41    1
    49    41    43   ar
    50    41    42   ar
