@<TRIPOS>MOLECULE
1u74_HEM_B_1.pdb
 43 50 0 0 0
SMALL
GASTEIGER

@<TRIPOS>ATOM
      1  CHA       25.2720   17.5680   19.3920 C.2   1101  HEM1101     0.0000
      2  CHB       28.1810   14.5160   21.6150 C.2   1101  HEM1101     0.0000
      3  CHC       27.5730   11.3400   18.0320 C.2   1101  HEM1101     0.0000
      4  CHD       25.2810   14.7410   15.5450 C.2   1101  HEM1101     0.0000
      5  C1A       26.0140   17.0000   20.3920 C.2   1101  HEM1101     0.0000
      6  C2A       26.3290   17.6400   21.6500 C.2   1101  HEM1101     0.0000
      7  C3A       27.1510   16.7590   22.2570 C.2   1101  HEM1101     0.0000
      8  C4A       27.3570   15.6230   21.3850 C.2   1101  HEM1101     0.0000
      9  CMA       27.6570   16.8960   23.6770 C.3   1101  HEM1101     0.0000
     10  CAA       25.9130   19.0220   22.1780 C.3   1101  HEM1101     0.0000
     11  CBA       26.7910   20.1650   21.6520 C.3   1101  HEM1101     0.0000
     12  CGA       26.4890   21.5090   22.2910 C.2   1101  HEM1101     0.0000
     13  O1A       27.2530   22.4640   22.0420 O.co2 1101  HEM1101     0.0000
     14  O2A       25.4860   21.6220   23.0250 O.co2 1101  HEM1101     0.0000
     15  C1B       28.3990   13.3810   20.8190 C.ar  1101  HEM1101     0.0000
     16  C2B       29.1880   12.2370   21.1860 C.ar  1101  HEM1101     0.0000
     17  C3B       28.9500   11.2360   20.2330 C.ar  1101  HEM1101     0.0000
     18  C4B       28.0430   11.8810   19.2390 C.ar  1101  HEM1101     0.0000
     19  CMB       30.2210   12.3330   22.3140 C.3   1101  HEM1101     0.0000
     20  CAB       29.4150    9.8890   20.1410 C.3   1101  HEM1101     0.0000
     21  CBB       29.6020    8.9140   21.1100 C.3   1101  HEM1101     0.0000
     22  C1C       26.8130   11.9350   17.0300 C.2   1101  HEM1101     0.0000
     23  C2C       26.4960   11.3250   15.7250 C.2   1101  HEM1101     0.0000
     24  C3C       25.9180   12.3400   14.9390 C.2   1101  HEM1101     0.0000
     25  C4C       25.8480   13.5100   15.8480 C.2   1101  HEM1101     0.0000
     26  CMC       26.7660    9.8500   15.3560 C.3   1101  HEM1101     0.0000
     27  CAC       25.6950   12.4380   13.5370 C.3   1101  HEM1101     0.0000
     28  CBC       24.8800   11.7090   12.6900 C.3   1101  HEM1101     0.0000
     29  C1D       25.1240   15.8710   16.3520 C.ar  1101  HEM1101     0.0000
     30  C2D       24.3430   16.9930   16.0310 C.ar  1101  HEM1101     0.0000
     31  C3D       24.2270   17.8000   17.1180 C.ar  1101  HEM1101     0.0000
     32  C4D       25.0220   17.1210   18.1110 C.ar  1101  HEM1101     0.0000
     33  CMD       23.8160   17.1300   14.6200 C.3   1101  HEM1101     0.0000
     34  CAD       23.4000   19.0610   17.2560 C.3   1101  HEM1101     0.0000
     35  CBD       22.0950   18.6610   17.9170 C.3   1101  HEM1101     0.0000
     36  CGD       21.0300   19.7190   17.8250 C.2   1101  HEM1101     0.0000
     37  O1D       21.3010   20.8360   17.3400 O.co2 1101  HEM1101     0.0000
     38  O2D       19.8970   19.4200   18.2350 O.co2 1101  HEM1101     0.0000
     39  NA        26.6320   15.7790   20.2460 N.2   1101  HEM1101     0.0000
     40  NB        27.7440   13.1770   19.6260 N.ar  1101  HEM1101     0.0000
     41  NC        26.3900   13.2420   17.0840 N.2   1101  HEM1101     0.0000
     42  ND        25.5440   15.9570   17.6100 N.ar  1101  HEM1101     0.0000
     43 FE         26.8630   14.6660   18.4790 Fe    1101  HEM1101     0.0000
@<TRIPOS>BOND
     1    28    27    1
     2    27    24    1
     3    33    30    1
     4    24    23    2
     5    24    25    1
     6    26    23    1
     7     4    25    1
     8     4    29    2
     9    23    22    1
    10    25    41    2
    11    30    29   ar
    12    30    31   ar
    13    29    42   ar
    14    22    41    1
    15    22     3    2
    16    41    43    1
    17    31    34    1
    18    31    32   ar
    19    34    35    1
    20    37    36   ar
    21    42    32   ar
    22    42    43    1
    23    36    35    1
    24    36    38   ar
    25     3    18    1
    26    32     1    2
    27    43    40    1
    28    43    39    1
    29    18    40   ar
    30    18    17   ar
    31     1     5    1
    32    40    15   ar
    33    20    17    1
    34    20    21    1
    35    17    16   ar
    36    39     5    2
    37    39     8    1
    38     5     6    1
    39    15    16   ar
    40    15     2    1
    41    16    19    1
    42     8     2    2
    43     8     7    1
    44     6    10    1
    45     6     7    2
    46    11    10    1
    47    11    12    1
    48    13    12   ar
    49     7     9    1
    50    12    14   ar
