@<TRIPOS>MOLECULE
1u75_HEM_B_1.pdb
 43 50 0 0 0
SMALL
GASTEIGER

@<TRIPOS>ATOM
      1  CHA       40.7270   49.9790   63.3770 C.2   1101  HEM1101     0.0000
      2  CHB       37.5790   51.1140   60.0820 C.2   1101  HEM1101     0.0000
      3  CHC       38.3260   46.7290   58.1880 C.2   1101  HEM1101     0.0000
      4  CHD       41.1240   45.6230   62.0300 C.2   1101  HEM1101     0.0000
      5  C1A       39.8980   50.7250   62.6060 C.ar  1101  HEM1101     0.0000
      6  C2A       39.6690   52.1100   62.7940 C.ar  1101  HEM1101     0.0000
      7  C3A       38.7260   52.4520   61.8810 C.ar  1101  HEM1101     0.0000
      8  C4A       38.4290   51.2400   61.1560 C.ar  1101  HEM1101     0.0000
      9  CMA       38.1990   53.8180   61.4910 C.3   1101  HEM1101     0.0000
     10  CAA       40.4830   53.0300   63.7210 C.3   1101  HEM1101     0.0000
     11  CBA       40.4080   52.7420   65.2320 C.3   1101  HEM1101     0.0000
     12  CGA       40.5660   53.9680   66.0870 C.2   1101  HEM1101     0.0000
     13  O1A       39.7080   54.1810   66.9720 O.co2 1101  HEM1101     0.0000
     14  O2A       41.4880   54.7770   65.8340 O.co2 1101  HEM1101     0.0000
     15  C1B       37.3940   50.0040   59.2770 C.2   1101  HEM1101     0.0000
     16  C2B       36.5650   49.9710   58.1370 C.2   1101  HEM1101     0.0000
     17  C3B       36.7720   48.7580   57.5380 C.2   1101  HEM1101     0.0000
     18  C4B       37.7560   48.0210   58.3480 C.2   1101  HEM1101     0.0000
     19  CMB       35.5970   51.0940   57.7130 C.3   1101  HEM1101     0.0000
     20  CAB       36.0220   48.3220   56.4520 C.2   1101  HEM1101     0.0000
     21  CBB       36.4510   48.0910   55.1710 C.2   1101  HEM1101     0.0000
     22  C1C       39.2210   45.9970   59.0260 C.ar  1101  HEM1101     0.0000
     23  C2C       39.7430   44.6590   58.7770 C.ar  1101  HEM1101     0.0000
     24  C3C       40.5340   44.3210   59.8760 C.ar  1101  HEM1101     0.0000
     25  C4C       40.4680   45.4870   60.7870 C.ar  1101  HEM1101     0.0000
     26  CMC       39.4190   43.7620   57.5710 C.3   1101  HEM1101     0.0000
     27  CAC       41.3110   43.1220   60.0390 C.3   1101  HEM1101     0.0000
     28  CBC       41.4010   42.2230   61.1390 C.3   1101  HEM1101     0.0000
     29  C1D       41.1790   46.6800   62.8750 C.2   1101  HEM1101     0.0000
     30  C2D       42.1520   46.8370   63.9980 C.2   1101  HEM1101     0.0000
     31  C3D       42.0470   48.1570   64.3170 C.2   1101  HEM1101     0.0000
     32  C4D       41.0460   48.6990   63.4210 C.2   1101  HEM1101     0.0000
     33  CMD       43.1680   45.8570   64.6260 C.3   1101  HEM1101     0.0000
     34  CAD       42.8700   48.9000   65.3870 C.3   1101  HEM1101     0.0000
     35  CBD       44.0920   49.6270   64.8420 C.3   1101  HEM1101     0.0000
     36  CGD       45.1420   49.8720   65.8970 C.2   1101  HEM1101     0.0000
     37  O1D       44.7890   50.2910   67.0190 O.co2 1101  HEM1101     0.0000
     38  O2D       46.3320   49.6570   65.6000 O.co2 1101  HEM1101     0.0000
     39  NA        39.1710   50.2080   61.6190 N.ar  1101  HEM1101     0.0000
     40  NB        38.0940   48.8170   59.4180 N.2   1101  HEM1101     0.0000
     41  NC        39.6850   46.4650   60.2340 N.ar  1101  HEM1101     0.0000
     42  ND        40.5160   47.8220   62.5790 N.2   1101  HEM1101     0.0000
     43 FE         39.2120   48.2570   61.0480 Fe    1101  HEM1101     0.0000
@<TRIPOS>BOND
     1    21    20    2
     2    20    17    1
     3    17    16    2
     4    17    18    1
     5    26    23    1
     6    19    16    1
     7    16    15    1
     8     3    18    2
     9     3    22    1
    10    18    40    1
    11    23    22   ar
    12    23    24   ar
    13    22    41   ar
    14    15    40    2
    15    15     2    1
    16    40    43    1
    17    24    27    1
    18    24    25   ar
    19    27    28    1
    20     2     8    2
    21    41    25   ar
    22    41    43    1
    23    25     4    1
    24    43    39    1
    25    43    42    1
    26     8    39   ar
    27     8     7   ar
    28     9     7    1
    29    39     5   ar
    30     7     6   ar
    31     4    29    2
    32    42    29    1
    33    42    32    2
    34     5     6   ar
    35     5     1    2
    36     6    10    1
    37    29    30    1
    38     1    32    1
    39    32    31    1
    40    10    11    1
    41    30    31    2
    42    30    33    1
    43    31    34    1
    44    35    34    1
    45    35    36    1
    46    11    12    1
    47    38    36   ar
    48    14    12   ar
    49    36    37   ar
    50    12    13   ar
