@<TRIPOS>MOLECULE
1u75_ZNH_A_1.pdb
 43 50 0 0 0
SMALL
GASTEIGER

@<TRIPOS>ATOM
      1 ZN         37.3640   24.4010   43.7800 Zn    1001  ZNH1001     0.0000
      2  CHA       35.1210   26.8010   43.3330 C.2   1001  ZNH1001     0.0000
      3  CHB       35.0150   22.0720   43.2250 C.2   1001  ZNH1001     0.0000
      4  CHC       39.7410   22.0910   43.5610 C.2   1001  ZNH1001     0.0000
      5  CHD       39.8260   26.8400   43.3880 C.2   1001  ZNH1001     0.0000
      6  NA        35.4240   24.4380   43.1410 N.ar  1001  ZNH1001     0.0000
      7  C1A       34.6240   25.5340   43.1660 C.ar  1001  ZNH1001     0.0000
      8  C2A       33.2200   25.2100   43.0870 C.ar  1001  ZNH1001     0.0000
      9  C3A       33.1580   23.8370   43.0640 C.ar  1001  ZNH1001     0.0000
     10  C4A       34.5570   23.3850   43.0980 C.ar  1001  ZNH1001     0.0000
     11  CMA       31.9400   22.9290   43.0830 C.3   1001  ZNH1001     0.0000
     12  CAA       32.1580   26.3160   42.9610 C.3   1001  ZNH1001     0.0000
     13  CBA       31.4100   26.4780   41.6710 C.3   1001  ZNH1001     0.0000
     14  CGA       30.5800   27.7310   41.6260 C.2   1001  ZNH1001     0.0000
     15  O1A       29.4040   27.6840   42.0030 O.co2 1001  ZNH1001     0.0000
     16  O2A       31.0970   28.7610   41.1470 O.co2 1001  ZNH1001     0.0000
     17  NB        37.3930   22.4290   43.4030 N.2   1001  ZNH1001     0.0000
     18  C1B       36.3090   21.6030   43.3950 C.2   1001  ZNH1001     0.0000
     19  C2B       36.6790   20.2130   43.6070 C.2   1001  ZNH1001     0.0000
     20  C3B       38.0670   20.2210   43.7380 C.2   1001  ZNH1001     0.0000
     21  C4B       38.4580   21.6170   43.5890 C.2   1001  ZNH1001     0.0000
     22  CMB       35.6740   19.0310   43.5480 C.3   1001  ZNH1001     0.0000
     23  CAB       38.9830   19.1700   43.9140 C.3   1001  ZNH1001     0.0000
     24  CBB       38.8520   17.9660   44.5810 C.3   1001  ZNH1001     0.0000
     25  NC        39.4120   24.4380   43.2960 N.ar  1001  ZNH1001     0.0000
     26  C1C       40.2340   23.3600   43.3970 C.ar  1001  ZNH1001     0.0000
     27  C2C       41.6300   23.6970   43.3550 C.ar  1001  ZNH1001     0.0000
     28  C3C       41.7390   25.0470   43.2490 C.ar  1001  ZNH1001     0.0000
     29  C4C       40.2890   25.5150   43.2690 C.ar  1001  ZNH1001     0.0000
     30  CMC       42.7100   22.6190   43.2690 C.3   1001  ZNH1001     0.0000
     31  CAC       42.7960   25.8460   42.8100 C.2   1001  ZNH1001     0.0000
     32  CBC       44.1240   25.9300   43.0570 C.2   1001  ZNH1001     0.0000
     33  ND        37.4580   26.4620   43.2840 N.2   1001  ZNH1001     0.0000
     34  C1D       38.5170   27.3020   43.4610 C.2   1001  ZNH1001     0.0000
     35  C2D       38.1010   28.6810   43.7810 C.2   1001  ZNH1001     0.0000
     36  C3D       36.7360   28.6790   43.7350 C.2   1001  ZNH1001     0.0000
     37  C4D       36.3890   27.2790   43.4320 C.2   1001  ZNH1001     0.0000
     38  CMD       38.9860   29.8580   44.1900 C.3   1001  ZNH1001     0.0000
     39  CAD       35.7510   29.8700   43.9100 C.3   1001  ZNH1001     0.0000
     40  CBD       35.2800   30.4350   42.5710 C.3   1001  ZNH1001     0.0000
     41  CGD       34.2530   31.5640   42.6550 C.2   1001  ZNH1001     0.0000
     42  O1D       33.5610   31.7980   41.6390 O.co2 1001  ZNH1001     0.0000
     43  O2D       34.1500   32.2390   43.6970 O.co2 1001  ZNH1001     0.0000
@<TRIPOS>BOND
     1    16    14   ar
     2    14    13    1
     3    14    15   ar
     4    42    41   ar
     5    13    12    1
     6    40    41    1
     7    40    39    1
     8    41    43   ar
     9    31    32    2
    10    31    28    1
    11    12     8    1
    12     9    11    1
    13     9     8   ar
    14     9    10   ar
    15     8     7   ar
    16    10     6   ar
    17    10     3    2
    18     6     7   ar
    19     6     1    1
    20     7     2    2
    21     3    18    1
    22    28    29   ar
    23    28    27   ar
    24    30    27    1
    25    29    25   ar
    26    29     5    1
    27    33    37    2
    28    33    34    1
    29    33     1    1
    30    25    26   ar
    31    25     1    1
    32     2    37    1
    33    27    26   ar
    34     5    34    2
    35    18    17    2
    36    18    19    1
    37    26     4    1
    38    17    21    1
    39    17     1    1
    40    37    36    1
    41    34    35    1
    42    22    19    1
    43     4    21    2
    44    21    20    1
    45    19    20    2
    46    36    35    2
    47    36    39    1
    48    20    23    1
    49    35    38    1
    50    23    24    1
