@<TRIPOS>MOLECULE
1u7h_NAD_A_1.pdb
 44 48 0 0 0
SMALL
GASTEIGER

@<TRIPOS>ATOM
      1  PA        40.7910   42.8870   16.4040 P.3   802  NAD802      0.2189
      2  O1A       40.5390   44.0750   15.5550 O.2   802  NAD802     -0.5170
      3  O2A       40.9300   41.5400   15.7680 O.3   802  NAD802     -0.4371
      4  O5B       42.0680   43.2270   17.2760 O.3   802  NAD802     -0.3112
      5  C5B       42.6730   42.2720   18.2150 C.3   802  NAD802      0.1813
      6  C4B       44.1710   42.5270   18.2350 C.3   802  NAD802      0.1821
      7  O4B       44.7150   41.6150   19.1670 O.3   802  NAD802     -0.3135
      8  C3B       44.8510   42.2110   16.8990 C.3   802  NAD802      0.2184
      9  O3B       45.4850   43.4000   16.3420 O.3   802  NAD802     -0.2174
     10  C2B       45.8230   41.0780   17.1940 C.3   802  NAD802      0.2570
     11  O2B       46.9990   40.9980   16.4530 O.3   802  NAD802     -0.2130
     12  C1B       46.0000   41.2870   18.7000 C.3   802  NAD802      0.3186
     13  N9A       46.4090   40.0680   19.3790 N.pl3 802  NAD802     -0.1439
     14  C8A       45.9990   38.7380   19.2900 C.3   802  NAD802      0.3377
     15  N7A       46.6520   37.9310   20.1100 N.2   802  NAD802     -0.2095
     16  C5A       47.5290   38.6840   20.7880 C.2   802  NAD802      0.2526
     17  C6A       48.5270   38.3800   21.8250 C.2   802  NAD802      0.4393
     18  N6A       48.7220   37.1600   22.2920 N.pl3 802  NAD802      0.2180
     19  N1A       49.2480   39.4780   22.2730 N.2   802  NAD802      0.0021
     20  C2A       49.1030   40.7430   21.8450 C.3   802  NAD802      0.5254
     21  N3A       48.1710   41.0880   20.8600 N.2   802  NAD802     -0.0055
     22  C4A       47.4010   40.0270   20.3600 C.2   802  NAD802      0.3518
     23  O3        39.6190   42.7700   17.4640 O.3   802  NAD802     -0.2703
     24  PN        38.8100   43.8950   18.3260 P.3   802  NAD802      0.2189
     25  O1N       37.6090   44.3180   17.5560 O.2   802  NAD802     -0.5170
     26  O2N       39.7970   44.9200   18.7330 O.3   802  NAD802     -0.4371
     27  O5D       38.3360   42.9880   19.5890 O.3   802  NAD802     -0.3112
     28  C5D       39.3290   42.4690   20.5060 C.3   802  NAD802      0.1813
     29  C4D       38.6730   41.5200   21.4180 C.3   802  NAD802      0.1799
     30  O4D       37.5500   42.2080   22.1180 O.3   802  NAD802     -0.3327
     31  C3D       38.0110   40.2830   20.7160 C.3   802  NAD802      0.2158
     32  O3D       38.4130   39.0580   21.3160 O.3   802  NAD802     -0.2175
     33  C2D       36.4950   40.5340   20.8550 C.3   802  NAD802      0.2309
     34  O2D       35.6910   39.4010   20.8040 O.3   802  NAD802     -0.2158
     35  C1D       36.4350   41.3020   22.2120 C.3   802  NAD802      0.2261
     36  N1N       35.1260   42.0300   22.3570 N.pl3 802  NAD802     -0.2831
     37  C2N       34.6560   42.1950   23.7240 C.2   802  NAD802      0.0633
     38  C3N       33.7940   43.1560   24.0820 C.2   802  NAD802      0.0490
     39  C7N       33.3040   43.2980   25.5060 C.2   802  NAD802      0.2814
     40  O7N       32.2460   43.9280   25.7140 O.2   802  NAD802     -0.2670
     41  N7N       34.0100   42.7430   26.5040 N.am  802  NAD802     -0.0839
     42  C4N       33.2760   44.1480   23.0480 C.3   802  NAD802      0.0341
     43  C5N       34.3470   44.3730   22.0190 C.3   802  NAD802      0.0264
     44  C6N       34.9560   43.2080   21.5120 C.3   802  NAD802      0.0934
@<TRIPOS>BOND
     1     2     1    2
     2     3     1    1
     3     9     8    1
     4     1     4    1
     5     1    23    1
     6    11    10    1
     7     8    10    1
     8     8     6    1
     9    10    12    1
    10     4     5    1
    11    23    24    1
    12    25    24    2
    13     5     6    1
    14     6     7    1
    15    24    26    1
    16    24    27    1
    17    12     7    1
    18    12    13    1
    19    14    13    1
    20    14    15    1
    21    13    22    1
    22    27    28    1
    23    15    16    2
    24    22    16    1
    25    22    21    2
    26    28    29    1
    27    31    33    1
    28    31    32    1
    29    31    29    1
    30    16    17    1
    31    34    33    1
    32    33    35    1
    33    21    20    1
    34    29    30    1
    35    44    43    1
    36    44    36    1
    37    17    19    2
    38    17    18    1
    39    20    19    1
    40    43    42    1
    41    30    35    1
    42    35    36    1
    43    36    37    1
    44    42    38    1
    45    37    38    2
    46    38    39    1
    47    39    40    2
    48    39    41   am
