@<TRIPOS>MOLECULE
1u7r_HEM_A_1.pdb
 43 50 0 0 0
SMALL
GASTEIGER

@<TRIPOS>ATOM
      1  CHA       -6.4620   33.0930   29.9710 C.2   154  HEM154      0.0000
      2  CHB       -4.9130   30.8320   33.9720 C.2   154  HEM154      0.0000
      3  CHC       -4.9820   26.5840   31.6240 C.2   154  HEM154      0.0000
      4  CHD       -6.5240   28.8540   27.6420 C.2   154  HEM154      0.0000
      5  C1A       -6.0570   32.8290   31.2750 C.2   154  HEM154      0.0000
      6  C2A       -5.8830   33.8320   32.3040 C.2   154  HEM154      0.0000
      7  C3A       -5.4140   33.2170   33.4120 C.2   154  HEM154      0.0000
      8  C4A       -5.2960   31.8100   33.0740 C.2   154  HEM154      0.0000
      9  CMA       -5.1610   33.7590   34.7920 C.3   154  HEM154      0.0000
     10  CAA       -6.2760   35.3120   32.1470 C.3   154  HEM154      0.0000
     11  CBA       -7.6370   35.6390   32.8930 C.3   154  HEM154      0.0000
     12  CGA       -8.7290   34.7210   32.3900 C.2   154  HEM154      0.0000
     13  O1A       -9.1650   33.8610   33.1620 O.co2 154  HEM154      0.0000
     14  O2A       -9.1120   34.8500   31.1940 O.co2 154  HEM154      0.0000
     15  C1B       -4.7960   29.4770   33.6640 C.ar  154  HEM154      0.0000
     16  C2B       -4.3980   28.4810   34.6400 C.ar  154  HEM154      0.0000
     17  C3B       -4.4200   27.2780   33.9620 C.ar  154  HEM154      0.0000
     18  C4B       -4.8640   27.5500   32.6180 C.ar  154  HEM154      0.0000
     19  CMB       -4.0860   28.7690   36.0910 C.3   154  HEM154      0.0000
     20  CAB       -4.0790   25.9860   34.4100 C.3   154  HEM154      0.0000
     21  CBB       -3.1150   25.6770   35.3890 C.3   154  HEM154      0.0000
     22  C1C       -5.3810   26.8510   30.3210 C.2   154  HEM154      0.0000
     23  C2C       -5.3400   25.8760   29.2510 C.2   154  HEM154      0.0000
     24  C3C       -5.6900   26.5320   28.0980 C.2   154  HEM154      0.0000
     25  C4C       -6.0450   27.8730   28.4970 C.2   154  HEM154      0.0000
     26  CMC       -4.8910   24.4590   29.4360 C.3   154  HEM154      0.0000
     27  CAC       -5.7340   26.1200   26.7160 C.3   154  HEM154      0.0000
     28  CBC       -5.4060   24.8520   26.2250 C.3   154  HEM154      0.0000
     29  C1D       -6.6720   30.2020   27.9310 C.ar  154  HEM154      0.0000
     30  C2D       -7.0630   31.2080   26.9700 C.ar  154  HEM154      0.0000
     31  C3D       -7.0340   32.4040   27.6280 C.ar  154  HEM154      0.0000
     32  C4D       -6.6850   32.1310   28.9960 C.ar  154  HEM154      0.0000
     33  CMD       -7.2790   30.9360   25.4800 C.3   154  HEM154      0.0000
     34  CAD       -7.1680   33.8170   27.0200 C.3   154  HEM154      0.0000
     35  CBD       -5.8440   34.3660   26.4670 C.3   154  HEM154      0.0000
     36  CGD       -5.8990   35.8530   26.0770 C.2   154  HEM154      0.0000
     37  O1D       -6.9890   36.2440   25.6090 O.co2 154  HEM154      0.0000
     38  O2D       -4.8640   36.4920   26.2680 O.co2 154  HEM154      0.0000
     39  NA        -5.6750   31.6000   31.7590 N.2   154  HEM154      0.0000
     40  NB        -5.1060   28.8980   32.4480 N.ar  154  HEM154      0.0000
     41  NC        -5.8320   28.0780   29.8420 N.2   154  HEM154      0.0000
     42  ND        -6.4520   30.7700   29.1820 N.ar  154  HEM154      0.0000
     43 FE         -5.8030   29.8280   30.8240 Fe    154  HEM154      0.0000
@<TRIPOS>BOND
     1    33    30    1
     2    37    36   ar
     3    36    38   ar
     4    36    35    1
     5    28    27    1
     6    35    34    1
     7    27    24    1
     8    30    31   ar
     9    30    29   ar
    10    34    31    1
    11    31    32   ar
    12     4    29    2
    13     4    25    1
    14    29    42   ar
    15    24    25    1
    16    24    23    2
    17    25    41    2
    18    32    42   ar
    19    32     1    2
    20    42    43    1
    21    23    26    1
    22    23    22    1
    23    41    22    1
    24    41    43    1
    25     1     5    1
    26    22     3    2
    27    43    39    1
    28    43    40    1
    29    14    12   ar
    30     5    39    2
    31     5     6    1
    32     3    18    1
    33    39     8    1
    34    10     6    1
    35    10    11    1
    36     6     7    2
    37    12    11    1
    38    12    13   ar
    39    40    18   ar
    40    40    15   ar
    41    18    17   ar
    42     8     7    1
    43     8     2    2
    44     7     9    1
    45    15     2    1
    46    15    16   ar
    47    17    20    1
    48    17    16   ar
    49    20    21    1
    50    16    19    1
