@<TRIPOS>MOLECULE
1u7s_HEM_A_1.pdb
 43 50 0 0 0
SMALL
GASTEIGER

@<TRIPOS>ATOM
      1  CHA       27.0380  -20.7210  -81.7060 C.2   154  HEM154      0.0000
      2  CHB       22.9160  -18.1900  -81.9290 C.2   154  HEM154      0.0000
      3  CHC       24.9130  -14.7320  -79.1860 C.2   154  HEM154      0.0000
      4  CHD       29.0370  -17.2640  -78.9640 C.2   154  HEM154      0.0000
      5  C1A       25.7640  -20.3110  -82.0510 C.ar  154  HEM154      0.0000
      6  C2A       24.8290  -21.0880  -82.8370 C.ar  154  HEM154      0.0000
      7  C3A       23.6610  -20.3950  -82.8690 C.ar  154  HEM154      0.0000
      8  C4A       23.8730  -19.1820  -82.1210 C.ar  154  HEM154      0.0000
      9  CMA       22.3460  -20.8020  -83.5390 C.3   154  HEM154      0.0000
     10  CAA       25.1310  -22.4950  -83.3600 C.3   154  HEM154      0.0000
     11  CBA       24.3940  -23.5970  -82.5080 C.3   154  HEM154      0.0000
     12  CGA       24.7880  -23.4910  -81.0290 C.2   154  HEM154      0.0000
     13  O1A       23.8890  -23.1420  -80.2330 O.co2 154  HEM154      0.0000
     14  O2A       25.9620  -23.8030  -80.7340 O.co2 154  HEM154      0.0000
     15  C1B       23.1030  -17.0150  -81.2050 C.2   154  HEM154      0.0000
     16  C2B       22.0860  -16.0190  -81.0030 C.2   154  HEM154      0.0000
     17  C3B       22.6430  -15.0340  -80.2110 C.2   154  HEM154      0.0000
     18  C4B       23.9830  -15.4650  -79.9110 C.2   154  HEM154      0.0000
     19  CMB       20.6690  -16.1020  -81.5430 C.3   154  HEM154      0.0000
     20  CAB       22.1600  -13.7900  -79.7480 C.3   154  HEM154      0.0000
     21  CBB       21.2600  -12.9960  -80.5110 C.3   154  HEM154      0.0000
     22  C1C       26.2260  -15.0890  -78.9250 C.ar  154  HEM154      0.0000
     23  C2C       27.2150  -14.2230  -78.3280 C.ar  154  HEM154      0.0000
     24  C3C       28.3910  -14.9350  -78.2670 C.ar  154  HEM154      0.0000
     25  C4C       28.1040  -16.2390  -78.8140 C.ar  154  HEM154      0.0000
     26  CMC       26.9690  -12.7770  -77.8740 C.3   154  HEM154      0.0000
     27  CAC       29.7060  -14.6130  -77.8540 C.3   154  HEM154      0.0000
     28  CBC       30.1530  -13.3860  -77.2980 C.3   154  HEM154      0.0000
     29  C1D       28.8590  -18.4510  -79.6660 C.2   154  HEM154      0.0000
     30  C2D       29.8810  -19.4360  -79.8980 C.2   154  HEM154      0.0000
     31  C3D       29.3310  -20.3730  -80.7350 C.2   154  HEM154      0.0000
     32  C4D       27.9560  -20.0250  -80.9280 C.2   154  HEM154      0.0000
     33  CMD       31.2990  -19.4160  -79.3500 C.3   154  HEM154      0.0000
     34  CAD       30.0710  -21.5240  -81.3920 C.3   154  HEM154      0.0000
     35  CBD       30.7380  -21.0660  -82.7410 C.3   154  HEM154      0.0000
     36  CGD       31.5170  -22.2250  -83.3560 C.2   154  HEM154      0.0000
     37  O1D       32.6470  -22.4260  -82.8660 O.co2 154  HEM154      0.0000
     38  O2D       30.9850  -22.8280  -84.3100 O.co2 154  HEM154      0.0000
     39  NA        25.1800  -19.1140  -81.6610 N.ar  154  HEM154      0.0000
     40  NB        24.2610  -16.6770  -80.5310 N.2   154  HEM154      0.0000
     41  NC        26.7760  -16.3310  -79.2110 N.ar  154  HEM154      0.0000
     42  ND        27.6770  -18.8240  -80.2850 N.2   154  HEM154      0.0000
     43 FE         25.9600  -17.7700  -80.3640 Fe    154  HEM154      0.0000
@<TRIPOS>BOND
     1    38    36   ar
     2     9     7    1
     3    10     6    1
     4    10    11    1
     5    36    37   ar
     6    36    35    1
     7     7     6   ar
     8     7     8   ar
     9     6     5   ar
    10    35    34    1
    11    11    12    1
    12     8     2    2
    13     8    39   ar
    14     5     1    2
    15     5    39   ar
    16     2    15    1
    17     1    32    1
    18    39    43    1
    19    19    16    1
    20    34    31    1
    21    15    16    1
    22    15    40    2
    23    12    14   ar
    24    12    13   ar
    25    16    17    2
    26    32    31    1
    27    32    42    2
    28    31    30    2
    29    40    43    1
    30    40    18    1
    31    21    20    1
    32    43    42    1
    33    43    41    1
    34    42    29    1
    35    17    18    1
    36    17    20    1
    37    18     3    2
    38    30    29    1
    39    30    33    1
    40    29     4    2
    41    41    22   ar
    42    41    25   ar
    43     3    22    1
    44     4    25    1
    45    22    23   ar
    46    25    24   ar
    47    23    24   ar
    48    23    26    1
    49    24    27    1
    50    27    28    1
