@<TRIPOS>MOLECULE
1u7t_NAD_B_1.pdb
 44 48 0 0 0
SMALL
GASTEIGER

@<TRIPOS>ATOM
      1  PA        95.2720   19.7670    4.7010 P.3   502  NAD502      0.2189
      2  O1A       94.5260   18.5620    4.3610 O.3   502  NAD502     -0.4371
      3  O2A       95.7360   20.7900    3.7670 O.2   502  NAD502     -0.5170
      4  O5B       96.4780   19.2760    5.6420 O.3   502  NAD502     -0.3112
      5  C5B       96.1420   18.2190    6.5810 C.3   502  NAD502      0.1813
      6  C4B       97.4920   17.5920    6.8320 C.3   502  NAD502      0.1821
      7  O4B       97.2700   16.5970    7.8260 O.3   502  NAD502     -0.3135
      8  C3B       97.9310   16.8700    5.5430 C.3   502  NAD502      0.2184
      9  O3B       99.3220   17.1640    5.2100 O.3   502  NAD502     -0.2174
     10  C2B       97.7020   15.4370    5.9250 C.3   502  NAD502      0.2570
     11  O2B       98.5530   14.5190    5.2470 O.3   502  NAD502     -0.2130
     12  C1B       97.9890   15.4750    7.4300 C.3   502  NAD502      0.3186
     13  N9A       97.5520   14.2680    8.1210 N.pl3 502  NAD502     -0.1439
     14  C8A       96.3680   13.6560    7.9860 C.3   502  NAD502      0.3377
     15  N7A       96.3120   12.5650    8.7590 N.2   502  NAD502     -0.2095
     16  C5A       97.5080   12.5370    9.3670 C.2   502  NAD502      0.2526
     17  C6A       97.9330   11.5780   10.2840 C.2   502  NAD502      0.4393
     18  N6A       97.1740   10.5640   10.6600 N.pl3 502  NAD502      0.2180
     19  N1A       99.1710   11.7230   10.7810 N.2   502  NAD502      0.0021
     20  C2A       99.9380   12.7400   10.4030 C.3   502  NAD502      0.5254
     21  N3A       99.5240   13.6510    9.5290 N.2   502  NAD502     -0.0055
     22  C4A       98.3030   13.5790    8.9870 C.2   502  NAD502      0.3518
     23  O3        94.3700   20.5670    5.7310 O.3   502  NAD502     -0.2703
     24  PN        94.4760   21.9580    6.4290 P.3   502  NAD502      0.2189
     25  O1N       93.4630   22.9040    5.8650 O.2   502  NAD502     -0.5170
     26  O2N       95.8650   22.4430    6.5680 O.3   502  NAD502     -0.4371
     27  O5D       93.8950   21.5760    7.8860 O.3   502  NAD502     -0.3112
     28  C5D       94.7680   21.7650    9.0370 C.3   502  NAD502      0.1813
     29  C4D       93.9350   21.7570   10.3070 C.3   502  NAD502      0.1799
     30  O4D       92.9770   22.8280   10.1560 O.3   502  NAD502     -0.3327
     31  C3D       93.1320   20.4500   10.4300 C.3   502  NAD502      0.2158
     32  O3D       92.9970   20.0710   11.8090 O.3   502  NAD502     -0.2175
     33  C2D       91.7310   20.8260    9.8850 C.3   502  NAD502      0.2309
     34  O2D       90.7470   19.9180   10.4170 O.3   502  NAD502     -0.2158
     35  C1D       91.6770   22.2400   10.4320 C.3   502  NAD502      0.2263
     36  N1N       90.6160   23.1200    9.8990 N.pl3 502  NAD502     -0.2787
     37  C2N       90.6070   23.5420    8.5520 C.3   502  NAD502      0.1244
     38  C3N       89.6080   24.3630    8.0690 C.2   502  NAD502      0.0544
     39  C7N       89.6130   24.8520    6.6310 C.2   502  NAD502      0.2818
     40  O7N       88.5790   25.2780    6.1260 O.2   502  NAD502     -0.2670
     41  N7N       90.7710   24.7950    5.9810 N.am  502  NAD502     -0.0839
     42  C4N       88.4650   24.8470    8.9420 C.2   502  NAD502      0.0033
     43  C5N       88.5660   24.3650   10.3680 C.2   502  NAD502      0.0157
     44  C6N       89.6240   23.5590   10.7810 C.2   502  NAD502      0.0633
@<TRIPOS>BOND
     1     3     1    2
     2     2     1    1
     3     1     4    1
     4     1    23    1
     5     9     8    1
     6    11    10    1
     7     8    10    1
     8     8     6    1
     9     4     5    1
    10    23    24    1
    11    25    24    2
    12    10    12    1
    13    41    39   am
    14    40    39    2
    15    24    26    1
    16    24    27    1
    17     5     6    1
    18    39    38    1
    19     6     7    1
    20    12     7    1
    21    12    13    1
    22    27    28    1
    23    14    13    1
    24    14    15    1
    25    38    37    1
    26    38    42    2
    27    13    22    1
    28    37    36    1
    29    15    16    2
    30    42    43    1
    31    22    16    1
    32    22    21    2
    33    28    29    1
    34    16    17    1
    35    21    20    1
    36    33    34    1
    37    33    31    1
    38    33    35    1
    39    36    35    1
    40    36    44    1
    41    30    29    1
    42    30    35    1
    43    17    18    1
    44    17    19    2
    45    29    31    1
    46    43    44    2
    47    20    19    1
    48    31    32    1
