@<TRIPOS>MOLECULE
1u81_GDP_A_1.pdb
 28 30 0 0 0
SMALL
GASTEIGER

@<TRIPOS>ATOM
      1  PB        56.7100   15.4930   15.9770 P.3     1  GDP1        0.5373
      2  O1B       57.5910   14.3920   15.6310 O.2     1  GDP1       -0.2221
      3  O2B       55.4380   15.0300   16.6470 O.3     1  GDP1       -0.1143
      4  O3B       57.1180   16.6070   16.8460 O.3     1  GDP1       -0.1143
      5  O3A       56.0410   16.1670   14.7030 O.3     1  GDP1       -0.2261
      6  PA        55.4930   15.7720   13.3530 P.3     1  GDP1        0.2231
      7  O1A       56.5400   15.4460   12.3270 O.2     1  GDP1       -0.5169
      8  O2A       54.6490   14.5020   13.3840 O.3     1  GDP1       -0.4370
      9  O5'       54.7510   17.0030   12.9500 O.3     1  GDP1       -0.3111
     10  C5'       53.3770   17.2130   13.3540 C.3     1  GDP1        0.1813
     11  C4'       52.4090   17.4930   12.1250 C.3     1  GDP1        0.1799
     12  O4'       52.5490   18.8330   11.6400 O.3     1  GDP1       -0.3326
     13  C3'       52.5350   16.4950   10.9300 C.3     1  GDP1        0.2158
     14  O3'       51.1230   16.2900   10.4950 O.3     1  GDP1       -0.2175
     15  C2'       53.3550   17.3610    9.9200 C.3     1  GDP1        0.2310
     16  O2'       53.1900   17.0400    8.4890 O.3     1  GDP1       -0.2158
     17  C1'       52.8120   18.8060   10.2190 C.3     1  GDP1        0.2293
     18  N9        53.8390   19.9000    9.8890 N.pl3   1  GDP1       -0.2354
     19  C8        55.1940   19.7400    9.5670 C.3     1  GDP1        0.2246
     20  N7        55.7640   20.8630    9.0940 N.2     1  GDP1       -0.2322
     21  C5        54.7090   21.8560    9.0110 C.2     1  GDP1        0.2182
     22  C6        54.5650   23.2820    8.3600 C.1     1  GDP1        0.2372
     23  O6        55.3880   24.1880    8.5730 O.2     1  GDP1       -0.2069
     24  N1        53.4020   23.6630    7.7110 N.2     1  GDP1       -0.2485
     25  C2        52.1870   22.9080    7.8060 C.1     1  GDP1        0.2531
     26  N2        51.0230   23.4690    7.4670 N.pl3   1  GDP1       -0.0226
     27  N3        52.2510   21.7280    8.6360 N.2     1  GDP1       -0.3074
     28  C4        53.5280   21.1960    9.2630 C.2     1  GDP1        0.2300
@<TRIPOS>BOND
     1    26    25    1
     2    24    25    2
     3    24    22    2
     4    25    27    2
     5    22    23    2
     6    22    21    1
     7    16    15    1
     8    27    28    2
     9    21    20    2
    10    21    28    1
    11    20    19    1
    12    28    18    1
    13    19    18    1
    14    18    17    1
    15    15    17    1
    16    15    13    1
    17    17    12    1
    18    14    13    1
    19    13    11    1
    20    12    11    1
    21    11    10    1
    22     7     6    2
    23     9     6    1
    24     9    10    1
    25     6     8    1
    26     6     5    1
    27     5     1    1
    28     2     1    2
    29     1     3    1
    30     1     4    1
