@<TRIPOS>MOLECULE
1u87_GSH_A_1.pdb
 20 19 0 0 0
SMALL
GASTEIGER

@<TRIPOS>ATOM
      1  N1        96.6030  -39.4760  -41.6370 N.3   500  GSH500     -0.1208
      2  CA1       95.5560  -38.6360  -42.3390 C.3   500  GSH500      0.1948
      3  C1        95.9900  -37.1710  -42.4570 C.2   500  GSH500      0.3819
      4  O11       95.1660  -36.3500  -43.0420 O.co2 500  GSH500     -0.2441
      5  O12       97.0510  -36.7640  -42.0240 O.co2 500  GSH500     -0.2441
      6  CB1       95.3450  -39.2440  -43.7590 C.3   500  GSH500      0.0402
      7  CG1       93.9670  -39.0890  -44.1480 C.3   500  GSH500      0.0889
      8  CD1       92.8080  -39.9300  -43.9060 C.2   500  GSH500      0.2415
      9  OE1       92.9750  -40.9970  -43.2350 O.2   500  GSH500     -0.2733
     10  N2        91.7100  -39.4270  -44.4720 N.am  500  GSH500     -0.2021
     11  CA2       90.3300  -39.8580  -44.5620 C.3   500  GSH500      0.1541
     12  C2        89.7750  -39.6050  -46.0440 C.3   500  GSH500      0.2469
     13  O2        88.8060  -40.3710  -46.2580 O.3   500  GSH500     -0.2017
     14  CB2       89.4100  -39.2100  -43.5150 C.3   500  GSH500      0.0944
     15  SG2       88.4600  -40.3540  -42.5420 S.3   500  GSH500     -0.0801
     16  N3        90.7340  -39.6520  -46.9730 N.3   500  GSH500     -0.1758
     17  CA3       90.5660  -39.4490  -48.4290 C.3   500  GSH500      0.2050
     18  C3        91.0340  -40.5520  -49.3160 C.2   500  GSH500      0.3823
     19  O31       91.3260  -40.3200  -50.5980 O.co2 500  GSH500     -0.2440
     20  O32       91.1890  -41.7530  -48.9930 O.co2 500  GSH500     -0.2440
@<TRIPOS>BOND
     1    19    18   ar
     2    18    20   ar
     3    18    17    1
     4    17    16    1
     5    16    12    1
     6    13    12    1
     7    12    11    1
     8    11    10    1
     9    11    14    1
    10    10     8   am
    11     7     8    1
    12     7     6    1
    13     8     9    2
    14     6     2    1
    15    14    15    1
    16     4     3   ar
    17     3     2    1
    18     3     5   ar
    19     2     1    1
