@<TRIPOS>MOLECULE
1u88_GTY_A_1.pdb
 28 27 0 0 0
SMALL
GASTEIGER

@<TRIPOS>ATOM
      1  N1        23.8310   39.9860   -8.2190 N.3   220  GTY220     -0.1208
      2  CA1       24.6180   39.2970   -9.2920 C.3   220  GTY220      0.1948
      3  C1        25.1160   38.0080   -8.6460 C.2   220  GTY220      0.3819
      4  O11       25.8140   37.1940   -9.2690 O.co2 220  GTY220     -0.2441
      5  O12       24.7870   37.8240   -7.4910 O.co2 220  GTY220     -0.2441
      6  CB1       25.7400   40.2590   -9.7440 C.3   220  GTY220      0.0402
      7  CG1       26.7130   39.8460  -10.8610 C.3   220  GTY220      0.0889
      8  CD1       28.1800   40.1200  -10.5290 C.2   220  GTY220      0.2418
      9  OE1       28.6430   39.7210   -9.4570 O.2   220  GTY220     -0.2733
     10  N2        28.8930   40.8010  -11.4730 N.am  220  GTY220     -0.1969
     11  CA2       30.3420   41.2140  -11.4350 C.3   220  GTY220      0.1834
     12  C2        30.9070   41.4800  -12.8410 C.2   220  GTY220      0.2626
     13  O2        31.6660   42.4480  -13.0100 O.2   220  GTY220     -0.2714
     14  CB2       31.2550   40.1920  -10.7290 C.3   220  GTY220      0.0886
     15  SG2       32.4200   40.8000   -9.4430 S.3   220  GTY220     -0.1379
     16  C1S       31.4650   40.9160   -7.9070 C.3   220  GTY220      0.0576
     17  C2S       31.0860   42.3130   -7.4150 C.3   220  GTY220      0.0116
     18  C3S       29.7800   42.8560   -7.9830 C.3   220  GTY220      0.0009
     19  C4S       29.5150   44.2530   -7.4230 C.3   220  GTY220      0.0000
     20  C5S       28.2170   44.8930   -7.9140 C.3   220  GTY220      0.0000
     21  C6S       26.9770   44.3150   -7.2320 C.3   220  GTY220      0.0000
     22  C7S       25.7440   45.0110   -7.7920 C.3   220  GTY220      0.0000
     23  C8S       24.6420   44.0310   -8.1510 C.3   220  GTY220      0.0000
     24  N3        30.5440   40.6290  -13.8540 N.am  220  GTY220     -0.1917
     25  CA3       31.0190   40.7710  -15.2620 C.3   220  GTY220      0.2285
     26  C3        30.0100   41.5200  -16.1570 C.2   220  GTY220      0.3865
     27  O31       29.0250   40.8760  -16.6550 O.co2 220  GTY220     -0.2437
     28  O32       30.1940   42.7750  -16.3840 O.co2 220  GTY220     -0.2437
@<TRIPOS>BOND
     1    27    26   ar
     2    28    26   ar
     3    26    25    1
     4    25    24    1
     5    24    12   am
     6    13    12    2
     7    12    11    1
     8    10    11    1
     9    10     8   am
    10    11    14    1
    11     7     8    1
    12     7     6    1
    13    14    15    1
    14     8     9    2
    15     6     2    1
    16    15    16    1
    17     2     3    1
    18     2     1    1
    19     4     3   ar
    20     3     5   ar
    21    23    22    1
    22    18    19    1
    23    18    17    1
    24    20    19    1
    25    20    21    1
    26    16    17    1
    27    22    21    1
