@<TRIPOS>MOLECULE
1u8a_SKM_A_1.pdb
 12 12 0 0 0
SMALL
GASTEIGER

@<TRIPOS>ATOM
      1  O12       36.9500  -35.3550   28.7670 O.3   181  SKM181     -0.2173
      2  C8        36.2290  -36.0200   29.8060 C.3   181  SKM181      0.2167
      3  C6        37.2130  -36.4030   30.9300 C.3   181  SKM181      0.1896
      4  O7        36.5050  -37.0120   32.0130 O.3   181  SKM181     -0.2200
      5  C5        37.9520  -35.1400   31.4130 C.3   181  SKM181      0.0684
      6  C4        37.0020  -33.9490   31.6480 C.2   181  SKM181      0.0584
      7  C1        37.5330  -32.7020   32.3770 C.2   181  SKM181      0.3837
      8  O2        38.8040  -32.5520   32.5580 O.co2 181  SKM181     -0.2409
      9  O3        36.7210  -31.7850   32.7810 O.co2 181  SKM181     -0.2409
     10  C10       35.7420  -33.9330   31.1770 C.2   181  SKM181      0.0111
     11  C9        35.1340  -35.0910   30.3620 C.3   181  SKM181      0.2066
     12  O11       34.3490  -34.5650   29.2880 O.3   181  SKM181     -0.2155
@<TRIPOS>BOND
     1     1     2    1
     2    12    11    1
     3     2    11    1
     4     2     3    1
     5    11    10    1
     6     3     5    1
     7     3     4    1
     8    10     6    2
     9     5     6    1
    10     6     7    1
    11     7     8   ar
    12     7     9   ar
