@<TRIPOS>MOLECULE
1u8a_ADP_A_1.pdb
 27 29 0 0 0
SMALL
GASTEIGER

@<TRIPOS>ATOM
      1  PB        28.8020  -32.3520   28.9200 P.3   180  ADP180      0.5373
      2  O1B       29.1700  -30.9280   28.7470 O.3   180  ADP180     -0.1143
      3  O2B       29.4200  -33.2080   30.0220 O.3   180  ADP180     -0.1143
      4  O3B       28.8070  -33.1480   27.4910 O.2   180  ADP180     -0.2221
      5  PA        26.1180  -33.3600   28.7720 P.3   180  ADP180      0.2231
      6  O1A       25.7730  -32.9850   27.3580 O.2   180  ADP180     -0.5169
      7  O2A       26.4720  -34.7970   29.0710 O.3   180  ADP180     -0.4370
      8  O3A       27.2770  -32.4460   29.2970 O.3   180  ADP180     -0.2261
      9  O5'       24.9120  -32.8510   29.7190 O.3   180  ADP180     -0.3111
     10  C5'       24.8600  -33.3560   31.1170 C.3   180  ADP180      0.1813
     11  C4'       23.3690  -33.5110   31.5390 C.3   180  ADP180      0.1821
     12  O4'       22.6760  -32.2270   31.5500 O.3   180  ADP180     -0.3135
     13  C3'       22.4940  -34.3650   30.6030 C.3   180  ADP180      0.2184
     14  O3'       21.6890  -35.3530   31.3220 O.3   180  ADP180     -0.2174
     15  C2'       21.5760  -33.3990   29.8380 C.3   180  ADP180      0.2570
     16  O2'       20.2990  -33.9630   29.5020 O.3   180  ADP180     -0.2130
     17  C1'       21.4520  -32.2380   30.7520 C.3   180  ADP180      0.3186
     18  N9        21.4020  -30.8530   30.1550 N.pl3 180  ADP180     -0.1439
     19  C8        22.3460  -30.3160   29.2600 C.3   180  ADP180      0.3377
     20  N7        21.9160  -29.1770   28.7440 N.2   180  ADP180     -0.2095
     21  C5        20.7780  -28.8480   29.4540 C.2   180  ADP180      0.2526
     22  C6        19.9110  -27.7030   29.4290 C.2   180  ADP180      0.4393
     23  N6        20.0180  -26.6850   28.5740 N.pl3 180  ADP180      0.2180
     24  N1        18.8560  -27.6690   30.3720 N.2   180  ADP180      0.0021
     25  C2        18.5640  -28.8300   31.0850 C.3   180  ADP180      0.5254
     26  N3        19.3470  -29.9460   31.2270 N.2   180  ADP180     -0.0055
     27  C4        20.4520  -29.8780   30.3350 C.2   180  ADP180      0.3518
@<TRIPOS>BOND
     1     6     5    2
     2     4     1    2
     3    23    22    1
     4    20    19    1
     5    20    21    2
     6     2     1    1
     7     5     7    1
     8     5     8    1
     9     5     9    1
    10     1     8    1
    11     1     3    1
    12    19    18    1
    13    22    21    1
    14    22    24    2
    15    21    27    1
    16    16    15    1
    17     9    10    1
    18    15    13    1
    19    15    17    1
    20    18    27    1
    21    18    17    1
    22    27    26    2
    23    24    25    1
    24    13    14    1
    25    13    11    1
    26    17    12    1
    27    25    26    1
    28    10    11    1
    29    11    12    1
