@<TRIPOS>MOLECULE
1u8e_NAG_A_1.pdb
 14 14 0 0 0
SMALL
GASTEIGER

@<TRIPOS>ATOM
      1  C1        49.3620   48.4240  114.3210 C.3   767  NAG767      0.1665
      2  C2        49.7530   47.2310  113.4430 C.3   767  NAG767      0.1576
      3  C3        48.6480   46.9250  112.4600 C.3   767  NAG767      0.2069
      4  C4        47.3580   46.6110  113.2400 C.3   767  NAG767      0.2134
      5  C5        46.9880   47.7780  114.1720 C.3   767  NAG767      0.1809
      6  C6        45.8940   47.3050  115.1280 C.3   767  NAG767      0.2141
      7  C7        52.1640   47.0860  113.2330 C.2   767  NAG767      0.2420
      8  C8        53.3810   47.6520  112.5240 C.3   767  NAG767      0.0964
      9  N2        50.9940   47.4650  112.7240 N.am  767  NAG767     -0.2019
     10  O3        49.0610   45.8160  111.6750 O.3   767  NAG767     -0.2184
     11  O4        46.2730   46.3710  112.3200 O.3   767  NAG767     -0.2176
     12  O5        48.1120   48.1600  115.0050 O.3   767  NAG767     -0.3489
     13  O6        45.8120   48.1380  116.3140 O.3   767  NAG767     -0.2176
     14  O7        52.2950   46.3460  114.2130 O.2   767  NAG767     -0.2733
@<TRIPOS>BOND
     1    10     3    1
     2    11     4    1
     3     3     4    1
     4     3     2    1
     5     8     7    1
     6     9     7   am
     7     9     2    1
     8     7    14    2
     9     4     5    1
    10     2     1    1
    11     5    12    1
    12     5     6    1
    13     1    12    1
    14     6    13    1
