@<TRIPOS>MOLECULE
1u8f_NAD_P_1.pdb
 44 48 0 0 0
SMALL
GASTEIGER

@<TRIPOS>ATOM
      1  PA        14.4820   25.8670   27.5720 P.3   336  NAD336      0.2189
      2  O1A       13.9750   27.2340   27.2850 O.3   336  NAD336     -0.4371
      3  O2A       15.8530   25.4830   27.1760 O.2   336  NAD336     -0.5170
      4  O5B       13.4830   24.7470   26.9980 O.3   336  NAD336     -0.3112
      5  C5B       12.0760   25.0070   26.8340 C.3   336  NAD336      0.1813
      6  C4B       11.6260   24.3470   25.5380 C.3   336  NAD336      0.1821
      7  O4B       10.1850   24.3520   25.4910 O.3   336  NAD336     -0.3135
      8  C3B       12.1030   25.0850   24.2920 C.3   336  NAD336      0.2184
      9  O3B       12.8080   24.2330   23.3820 O.3   336  NAD336     -0.2174
     10  C2B       10.8330   25.6870   23.6840 C.3   336  NAD336      0.2570
     11  O2B       10.8890   25.8670   22.2560 O.3   336  NAD336     -0.2130
     12  C1B        9.7680   24.7140   24.1630 C.3   336  NAD336      0.3186
     13  N9A        8.3780   25.2240   24.2150 N.pl3 336  NAD336     -0.1439
     14  C8A        7.8920   26.4450   24.5280 C.3   336  NAD336      0.3377
     15  N7A        6.5520   26.4580   24.4860 N.2   336  NAD336     -0.2095
     16  C5A        6.2390   25.2170   24.1420 C.2   336  NAD336      0.2526
     17  C6A        4.9540   24.6970   23.9820 C.2   336  NAD336      0.4393
     18  N6A        3.8610   25.4490   24.1220 N.pl3 336  NAD336      0.2180
     19  N1A        4.8730   23.3810   23.6620 N.2   336  NAD336      0.0021
     20  C2A        5.9460   22.5930   23.4940 C.3   336  NAD336      0.5254
     21  N3A        7.1740   23.1170   23.6430 N.2   336  NAD336     -0.0055
     22  C4A        7.3480   24.4190   23.9670 C.2   336  NAD336      0.3518
     23  O3        14.3350   25.6350   29.1440 O.3   336  NAD336     -0.2703
     24  PN        14.9550   24.5270   30.1130 P.3   336  NAD336      0.2189
     25  O1N       16.1190   25.1570   30.7950 O.3   336  NAD336     -0.4371
     26  O2N       15.0880   23.2610   29.3500 O.2   336  NAD336     -0.5170
     27  O5D       13.8440   24.3820   31.2300 O.3   336  NAD336     -0.3112
     28  C5D       12.5740   23.7350   31.0330 C.3   336  NAD336      0.1813
     29  C4D       11.9120   23.5030   32.3910 C.3   336  NAD336      0.1799
     30  O4D       12.8350   22.7760   33.2400 O.3   336  NAD336     -0.3327
     31  C3D       11.5960   24.7580   33.1950 C.3   336  NAD336      0.2158
     32  O3D       10.3710   24.6190   33.9090 O.3   336  NAD336     -0.2175
     33  C2D       12.7500   24.9660   34.1610 C.3   336  NAD336      0.2309
     34  O2D       12.5020   25.8100   35.2850 O.3   336  NAD336     -0.2158
     35  C1D       13.1070   23.5100   34.4610 C.3   336  NAD336      0.2263
     36  N1N       14.5170   23.2720   34.8630 N.pl3 336  NAD336     -0.2787
     37  C2N       15.6610   23.8590   34.2370 C.3   336  NAD336      0.1244
     38  C3N       16.9370   23.5130   34.7090 C.2   336  NAD336      0.0544
     39  C7N       18.2140   24.0700   34.0490 C.2   336  NAD336      0.2818
     40  O7N       19.2510   24.1900   34.7030 O.2   336  NAD336     -0.2670
     41  N7N       18.1210   24.3990   32.7570 N.am  336  NAD336     -0.0839
     42  C4N       17.0480   22.6080   35.7870 C.2   336  NAD336      0.0033
     43  C5N       15.9340   22.0270   36.4140 C.2   336  NAD336      0.0157
     44  C6N       14.6640   22.3650   35.9420 C.2   336  NAD336      0.0633
@<TRIPOS>BOND
     1    11    10    1
     2     9     8    1
     3    20    21    1
     4    20    19    1
     5    21    22    2
     6    19    17    2
     7    10    12    1
     8    10     8    1
     9    22    16    1
    10    22    13    1
    11    17    18    1
    12    17    16    1
    13    16    15    2
    14    12    13    1
    15    12     7    1
    16    13    14    1
    17     8     6    1
    18    15    14    1
    19     7     6    1
    20     6     5    1
    21     5     4    1
    22     4     1    1
    23     3     1    2
    24     2     1    1
    25     1    23    1
    26    23    24    1
    27    26    24    2
    28    24    25    1
    29    24    27    1
    30    28    27    1
    31    28    29    1
    32    29    31    1
    33    29    30    1
    34    41    39   am
    35    31    32    1
    36    31    33    1
    37    30    35    1
    38    39    40    2
    39    39    38    1
    40    33    35    1
    41    33    34    1
    42    37    38    1
    43    37    36    1
    44    35    36    1
    45    38    42    2
    46    36    44    1
    47    42    43    1
    48    44    43    2
