@<TRIPOS>MOLECULE
1u8u_OCA_A_1.pdb
 10 9 0 0 0
SMALL
GASTEIGER

@<TRIPOS>ATOM
      1  C1         7.0110   35.0830   50.5140 C.2   201  OCA201      0.3649
      2  C2         6.9770   34.3310   51.8350 C.3   201  OCA201      0.1141
      3  C3         5.6430   34.1980   52.5690 C.3   201  OCA201      0.0118
      4  C4         5.9230   34.2360   54.0550 C.3   201  OCA201      0.0006
      5  C5         4.8410   33.5270   54.8360 C.3   201  OCA201      0.0000
      6  C6         5.1820   33.2150   56.2890 C.3   201  OCA201      0.0000
      7  C7         4.0400   33.5720   57.2250 C.3   201  OCA201      0.0000
      8  C8         4.2770   34.6860   58.2590 C.3   201  OCA201      0.0000
      9  O1         7.1190   36.3680   50.6600 O.co2 201  OCA201     -0.2457
     10  O2         6.9680   34.4240   49.4040 O.co2 201  OCA201     -0.2457
@<TRIPOS>BOND
     1    10     1   ar
     2     1     9   ar
     3     1     2    1
     4     2     3    1
     5     3     4    1
     6     4     5    1
     7     5     6    1
     8     6     7    1
     9     7     8    1
