@<TRIPOS>MOLECULE
1u8x_G6P_X_1.pdb
 16 16 0 0 0
SMALL
GASTEIGER

@<TRIPOS>ATOM
      1  C1        24.3680   93.3010   22.3040 C.3   902  G6P902      0.3024
      2  C2        23.3890   93.1720   21.1380 C.3   902  G6P902      0.2434
      3  C3        23.3090   91.7130   20.7090 C.3   902  G6P902      0.2199
      4  C4        24.7120   91.2240   20.3540 C.3   902  G6P902      0.2143
      5  C5        25.6710   91.4850   21.5150 C.3   902  G6P902      0.1808
      6  C6        27.0700   91.0410   21.1280 C.3   902  G6P902      0.1859
      7  O1        24.3800   94.6200   22.8400 O.3   902  G6P902     -0.1869
      8  O2        22.0880   93.6670   21.4760 O.3   902  G6P902     -0.2148
      9  O3        22.4490   91.5860   19.5810 O.3   902  G6P902     -0.2174
     10  O4        24.6770   89.8370   20.0400 O.3   902  G6P902     -0.2176
     11  O5        25.6790   92.9030   21.8270 O.3   902  G6P902     -0.3237
     12  O6        27.9660   91.3370   22.1830 O.3   902  G6P902     -0.2675
     13  P         29.2180   90.3780   22.4520 P.3   902  G6P902      0.5327
     14  O1P       29.7880   90.5160   23.8150 O.3   902  G6P902     -0.1145
     15  O2P       30.2700   90.7610   21.3230 O.2   902  G6P902     -0.2224
     16  O3P       28.7590   88.8620   22.1650 O.3   902  G6P902     -0.1145
@<TRIPOS>BOND
     1     9     3    1
     2    10     4    1
     3     4     3    1
     4     4     5    1
     5     3     2    1
     6     6     5    1
     7     6    12    1
     8     2     8    1
     9     2     1    1
    10    15    13    2
    11     5    11    1
    12    11     1    1
    13    16    13    1
    14    12    13    1
    15     1     7    1
    16    13    14    1
