@<TRIPOS>MOLECULE
1u8x_NAD_X_1.pdb
 44 48 0 0 0
SMALL
GASTEIGER

@<TRIPOS>ATOM
      1  PA        27.0880   80.6660   23.1430 P.3   900  NAD900      0.2189
      2  O1A       27.7940   80.7280   24.4420 O.3   900  NAD900     -0.4371
      3  O2A       27.6810   79.8810   22.0310 O.2   900  NAD900     -0.5170
      4  O5B       25.5990   80.0850   23.3210 O.3   900  NAD900     -0.3112
      5  C5B       25.0300   79.3270   22.2690 C.3   900  NAD900      0.1813
      6  C4B       24.5250   77.9580   22.6950 C.3   900  NAD900      0.1821
      7  O4B       23.5160   77.5530   21.7400 O.3   900  NAD900     -0.3135
      8  C3B       25.6530   76.9260   22.5960 C.3   900  NAD900      0.2184
      9  O3B       25.7440   76.2350   23.8300 O.3   900  NAD900     -0.2174
     10  C2B       25.1710   75.9360   21.5520 C.3   900  NAD900      0.2570
     11  O2B       25.5150   74.5950   21.9310 O.3   900  NAD900     -0.2130
     12  C1B       23.6580   76.1440   21.5610 C.3   900  NAD900      0.3186
     13  N9A       23.1460   75.7590   20.2240 N.pl3 900  NAD900     -0.1439
     14  C8A       23.7150   76.0860   19.0640 C.3   900  NAD900      0.3377
     15  N7A       23.0130   75.5710   18.0590 N.2   900  NAD900     -0.2095
     16  C5A       21.9890   74.9110   18.5810 C.2   900  NAD900      0.2526
     17  C6A       20.9440   74.1900   18.0290 C.2   900  NAD900      0.4393
     18  N6A       20.8570   74.0730   16.7120 N.pl3 900  NAD900      0.2180
     19  N1A       20.0340   73.6180   18.8370 N.2   900  NAD900      0.0021
     20  C2A       20.1360   73.7440   20.1500 C.3   900  NAD900      0.5254
     21  N3A       21.1250   74.4290   20.7080 N.2   900  NAD900     -0.0055
     22  C4A       22.0680   75.0240   19.9550 C.2   900  NAD900      0.3518
     23  O3        26.8240   82.1700   22.6790 O.3   900  NAD900     -0.2703
     24  PN        26.4520   83.4010   23.6530 P.3   900  NAD900      0.2189
     25  O1N       26.0100   82.9340   24.9760 O.3   900  NAD900     -0.4371
     26  O2N       27.5330   84.4040   23.5920 O.2   900  NAD900     -0.5170
     27  O5D       25.1900   84.0000   22.8600 O.3   900  NAD900     -0.3112
     28  C5D       24.0020   83.2410   22.7030 C.3   900  NAD900      0.1813
     29  C4D       23.0280   83.8850   21.6800 C.3   900  NAD900      0.1799
     30  O4D       22.5260   85.0910   22.2750 O.3   900  NAD900     -0.3327
     31  C3D       23.7060   84.2820   20.3620 C.3   900  NAD900      0.2158
     32  O3D       22.7960   84.0720   19.2810 O.3   900  NAD900     -0.2175
     33  C2D       23.9550   85.7620   20.5830 C.3   900  NAD900      0.2309
     34  O2D       24.0630   86.4520   19.3350 O.3   900  NAD900     -0.2158
     35  C1D       22.6400   86.0860   21.2690 C.3   900  NAD900      0.2263
     36  N1N       22.5690   87.4010   21.8930 N.pl3 900  NAD900     -0.2787
     37  C2N       21.5540   88.2150   21.4510 C.3   900  NAD900      0.1244
     38  C3N       21.3980   89.4730   21.9790 C.2   900  NAD900      0.0544
     39  C7N       20.2690   90.3210   21.4440 C.2   900  NAD900      0.2818
     40  O7N       19.9950   91.4900   22.0270 O.2   900  NAD900     -0.2670
     41  N7N       19.5920   89.8520   20.3990 N.am  900  NAD900     -0.0839
     42  C4N       22.2640   89.9340   22.9670 C.2   900  NAD900      0.0033
     43  C5N       23.2940   89.1060   23.4200 C.2   900  NAD900      0.0157
     44  C6N       23.4520   87.8300   22.8880 C.2   900  NAD900      0.0633
@<TRIPOS>BOND
     1    18    17    1
     2    17    16    1
     3    17    19    2
     4    15    16    2
     5    15    14    1
     6    16    22    1
     7    19    20    1
     8    14    13    1
     9    32    31    1
    10    34    33    1
    11    22    13    1
    12    22    21    2
    13    20    21    1
    14    13    12    1
    15    31    33    1
    16    31    29    1
    17    41    39   am
    18    33    35    1
    19    35    36    1
    20    35    30    1
    21    39    38    1
    22    39    40    2
    23    37    36    1
    24    37    38    1
    25    10    12    1
    26    10    11    1
    27    10     8    1
    28    12     7    1
    29    29    30    1
    30    29    28    1
    31     7     6    1
    32    36    44    1
    33    38    42    2
    34     3     1    2
    35     5     6    1
    36     5     4    1
    37     8     6    1
    38     8     9    1
    39    23     1    1
    40    23    24    1
    41    28    27    1
    42    27    24    1
    43    44    43    2
    44    42    43    1
    45     1     4    1
    46     1     2    1
    47    26    24    2
    48    24    25    1
