@<TRIPOS>MOLECULE
1u8y_GNP_A_1.pdb
 32 34 0 0 0
SMALL
GASTEIGER

@<TRIPOS>ATOM
      1  PG        20.6600   33.7450    8.3830 P.3   201  GNP201      0.4884
      2  O1G       20.9990   35.0940    7.9050 O.3   201  GNP201     -0.1240
      3  O2G       20.5690   32.8090    7.2840 O.2   201  GNP201     -0.2331
      4  O3G       19.1940   33.7970    8.8400 O.3   201  GNP201     -0.1240
      5  N3B       21.5940   33.3050    9.6340 N.3   201  GNP201     -0.0163
      6  PB        21.5130   31.8450   10.3860 P.3   201  GNP201      0.4669
      7  O1B       20.4110   31.7280   11.3610 O.3   201  GNP201     -0.1253
      8  O2B       21.6000   30.6910    9.4990 O.2   201  GNP201     -0.2351
      9  O3A       22.8710   31.8050   11.2300 O.3   201  GNP201     -0.2360
     10  PA        24.2950   31.0860   10.8700 P.3   201  GNP201      0.2220
     11  O1A       24.1440   29.6060   10.9540 O.3   201  GNP201     -0.4370
     12  O2A       24.8840   31.6770    9.6520 O.2   201  GNP201     -0.5170
     13  O5'       25.1320   31.5120   12.1630 O.3   201  GNP201     -0.3111
     14  C5'       25.4660   32.9180   12.3770 C.3   201  GNP201      0.1813
     15  C4'       26.8450   33.0410   13.0570 C.3   201  GNP201      0.1799
     16  O4'       26.7630   32.4100   14.3540 O.3   201  GNP201     -0.3326
     17  C3'       27.9750   32.3050   12.3010 C.3   201  GNP201      0.2158
     18  O3'       29.2260   33.0360   12.3530 O.3   201  GNP201     -0.2175
     19  C2'       28.0360   30.9640   13.0050 C.3   201  GNP201      0.2310
     20  O2'       29.3200   30.3440   12.9930 O.3   201  GNP201     -0.2158
     21  C1'       27.7110   31.3470   14.4510 C.3   201  GNP201      0.2293
     22  N9        27.0670   30.2520   15.1980 N.pl3 201  GNP201     -0.2354
     23  C8        25.9510   29.4880   14.8610 C.3   201  GNP201      0.2246
     24  N7        25.6210   28.5990   15.7340 N.2   201  GNP201     -0.2322
     25  C5        26.5820   28.7620   16.7530 C.2   201  GNP201      0.2182
     26  C6        26.7640   28.0710   18.0190 C.1   201  GNP201      0.2372
     27  O6        26.0970   27.1570   18.4970 O.2   201  GNP201     -0.2069
     28  N1        27.8650   28.5560   18.7480 N.2   201  GNP201     -0.2485
     29  C2        28.7130   29.5850   18.3410 C.1   201  GNP201      0.2531
     30  N2        29.7250   29.9300   19.1600 N.pl3 201  GNP201     -0.0226
     31  N3        28.5450   30.2330   17.1620 N.2   201  GNP201     -0.3074
     32  C4        27.4700   29.7800   16.4200 C.2   201  GNP201      0.2300
@<TRIPOS>BOND
     1     3     1    2
     2     2     1    1
     3     1     4    1
     4     1     5    1
     5     8     6    2
     6     5     6    1
     7    12    10    2
     8     6     9    1
     9     6     7    1
    10    10    11    1
    11    10     9    1
    12    10    13    1
    13    13    14    1
    14    17    18    1
    15    17    19    1
    16    17    15    1
    17    14    15    1
    18    20    19    1
    19    19    21    1
    20    15    16    1
    21    16    21    1
    22    21    22    1
    23    23    22    1
    24    23    24    1
    25    22    32    1
    26    24    25    2
    27    32    25    1
    28    32    31    2
    29    25    26    1
    30    31    29    2
    31    26    27    2
    32    26    28    2
    33    29    28    2
    34    29    30    1
