@<TRIPOS>MOLECULE
1u8z_GDP_A_1.pdb
 28 30 0 0 0
SMALL
GASTEIGER

@<TRIPOS>ATOM
      1  PB        24.1520   -4.1090    8.8460 P.3   201  GDP201      0.5373
      2  O1B       24.0750   -2.6840    8.3930 O.3   201  GDP201     -0.1143
      3  O2B       25.0610   -4.9660    7.9950 O.2   201  GDP201     -0.2221
      4  O3B       22.7600   -4.7530    9.0280 O.3   201  GDP201     -0.1143
      5  O3A       24.8380   -4.0530   10.3460 O.3   201  GDP201     -0.2261
      6  PA        24.3580   -4.6280   11.7140 P.3   201  GDP201      0.2231
      7  O1A       24.1970   -6.1030   11.6630 O.2   201  GDP201     -0.5169
      8  O2A       23.1430   -3.8800   12.2050 O.3   201  GDP201     -0.4370
      9  O5'       25.5950   -4.2380   12.6530 O.3   201  GDP201     -0.3111
     10  C5'       26.8920   -4.8090   12.3900 C.3   201  GDP201      0.1813
     11  C4'       27.6710   -4.9020   13.6690 C.3   201  GDP201      0.1799
     12  O4'       27.8310   -3.5400   14.1800 O.3   201  GDP201     -0.3326
     13  C3'       26.9920   -5.7520   14.7730 C.3   201  GDP201      0.2158
     14  O3'       28.0910   -6.4760   15.4380 O.3   201  GDP201     -0.2175
     15  C2'       26.3830   -4.7060   15.6800 C.3   201  GDP201      0.2310
     16  O2'       26.1900   -5.1530   16.9890 O.3   201  GDP201     -0.2158
     17  C1'       27.3270   -3.4960   15.4860 C.3   201  GDP201      0.2293
     18  N9        26.5500   -2.1600   15.6910 N.pl3 201  GDP201     -0.2354
     19  C8        25.4540   -1.7530   14.9790 C.3   201  GDP201      0.2246
     20  N7        25.0390   -0.5640   15.4130 N.2   201  GDP201     -0.2322
     21  C5        25.9210   -0.2150   16.4370 C.2   201  GDP201      0.2182
     22  C6        25.9610    0.9360   17.2620 C.1   201  GDP201      0.2372
     23  O6        25.1800    1.8990   17.2070 O.2   201  GDP201     -0.2069
     24  N1        27.0210    0.9210   18.2000 N.2   201  GDP201     -0.2485
     25  C2        27.9270   -0.1280   18.3090 C.1   201  GDP201      0.2531
     26  N2        28.8960   -0.0360   19.2440 N.pl3 201  GDP201     -0.0226
     27  N3        27.8830   -1.2240   17.5220 N.2   201  GDP201     -0.3074
     28  C4        26.8560   -1.1950   16.6190 C.2   201  GDP201      0.2300
@<TRIPOS>BOND
     1     3     1    2
     2     2     1    1
     3     1     4    1
     4     1     5    1
     5     5     6    1
     6     7     6    2
     7     6     8    1
     8     6     9    1
     9    10     9    1
    10    10    11    1
    11    11    12    1
    12    11    13    1
    13    12    17    1
    14    13    14    1
    15    13    15    1
    16    19    20    1
    17    19    18    1
    18    20    21    2
    19    17    15    1
    20    17    18    1
    21    15    16    1
    22    18    28    1
    23    21    28    1
    24    21    22    1
    25    28    27    2
    26    23    22    2
    27    22    24    2
    28    27    25    2
    29    24    25    2
    30    25    26    1
