@<TRIPOS>MOLECULE
1u90_GDP_A_1.pdb
 28 30 0 0 0
SMALL
GASTEIGER

@<TRIPOS>ATOM
      1  PB        23.9560   -4.2530    7.6490 P.3   201  GDP201      0.5373
      2  O1B       23.5590   -2.8440    7.3430 O.3   201  GDP201     -0.1143
      3  O2B       24.9950   -4.8270    6.6930 O.2   201  GDP201     -0.2221
      4  O3B       22.7480   -5.1980    7.7970 O.3   201  GDP201     -0.1143
      5  O3A       24.6820   -4.1850    9.1330 O.3   201  GDP201     -0.2261
      6  PA        24.5840   -5.1620   10.3400 P.3   201  GDP201      0.2231
      7  O1A       24.8630   -6.5540    9.9210 O.2   201  GDP201     -0.5169
      8  O2A       23.2680   -4.9630   11.0620 O.3   201  GDP201     -0.4370
      9  O5'       25.7510   -4.6100   11.2990 O.3   201  GDP201     -0.3111
     10  C5'       27.1300   -4.6660   10.8810 C.3   201  GDP201      0.1813
     11  C4'       28.0240   -4.7580   12.0940 C.3   201  GDP201      0.1799
     12  O4'       27.9300   -3.4840   12.8010 O.3   201  GDP201     -0.3326
     13  C3'       27.6570   -5.8850   13.0930 C.3   201  GDP201      0.2158
     14  O3'       28.9570   -6.3970   13.5590 O.3   201  GDP201     -0.2175
     15  C2'       26.9200   -5.1530   14.2010 C.3   201  GDP201      0.2310
     16  O2'       26.9800   -5.8270   15.4300 O.3   201  GDP201     -0.2158
     17  C1'       27.5430   -3.7310   14.1370 C.3   201  GDP201      0.2293
     18  N9        26.5050   -2.6350   14.5710 N.pl3 201  GDP201     -0.2354
     19  C8        25.2850   -2.4050   13.9840 C.3   201  GDP201      0.2246
     20  N7        24.6560   -1.3990   14.6010 N.2   201  GDP201     -0.2322
     21  C5        25.5150   -0.9820   15.6140 C.2   201  GDP201      0.2182
     22  C6        25.3670    0.0450   16.5840 C.1   201  GDP201      0.2372
     23  O6        24.3850    0.7970   16.7020 O.2   201  GDP201     -0.2069
     24  N1        26.4780    0.1650   17.4570 N.2   201  GDP201     -0.2485
     25  C2        27.6010   -0.6540   17.3640 C.1   201  GDP201      0.2531
     26  N2        28.6010   -0.4590   18.2410 N.pl3 201  GDP201     -0.0226
     27  N3        27.7350   -1.6280   16.4430 N.2   201  GDP201     -0.3074
     28  C4        26.6620   -1.7340   15.6100 C.2   201  GDP201      0.2300
@<TRIPOS>BOND
     1     3     1    2
     2     2     1    1
     3     1     4    1
     4     1     5    1
     5     5     6    1
     6     7     6    2
     7     6     8    1
     8     6     9    1
     9    10     9    1
    10    10    11    1
    11    11    12    1
    12    11    13    1
    13    12    17    1
    14    13    14    1
    15    13    15    1
    16    19    18    1
    17    19    20    1
    18    17    15    1
    19    17    18    1
    20    15    16    1
    21    18    28    1
    22    20    21    2
    23    28    21    1
    24    28    27    2
    25    21    22    1
    26    27    25    2
    27    22    23    2
    28    22    24    2
    29    25    24    2
    30    25    26    1
