@<TRIPOS>MOLECULE
1u9e_397_A_1.pdb
 17 19 0 0 0
SMALL
GASTEIGER

@<TRIPOS>ATOM
      1  C1        32.1100   36.9260   35.3650 C.ar  201  397201      0.0452
      2  C2        30.7430   37.0510   35.7400 C.ar  201  397201      0.0408
      3  C3        30.3120   36.6340   37.0060 C.ar  201  397201      0.1455
      4  C4        31.2720   36.0610   37.9350 C.ar  201  397201      0.0408
      5  C5        32.6150   35.9410   37.5620 C.ar  201  397201      0.0452
      6  C6        33.0410   36.3680   36.2770 C.ar  201  397201      0.1959
      7  O10       29.0750   36.6560   37.5800 O.2   201  397201     -0.4535
      8  C11       29.2140   36.1310   38.8260 C.ar  201  397201      0.1453
      9  C12       30.5640   35.7210   39.1540 C.ar  201  397201      0.0406
     10  C13       28.0660   36.0510   39.6530 C.ar  201  397201      0.0348
     11  C14       26.7520   36.4000   39.1600 C.ar  201  397201      0.0063
     12  C15       25.5980   36.3370   39.9750 C.ar  201  397201      0.0421
     13  C16       25.7070   35.9250   41.3200 C.ar  201  397201      0.1957
     14  C17       26.9710   35.5720   41.8530 C.ar  201  397201      0.0421
     15  C18       28.1220   35.6360   41.0390 C.ar  201  397201      0.0063
     16  O23       34.3640   36.2420   35.9250 O.3   201  397201     -0.2866
     17  O24       24.5770   35.8710   42.0960 O.3   201  397201     -0.2866
@<TRIPOS>BOND
     1     1     2   ar
     2     1     6   ar
     3     2     3   ar
     4    16     6    1
     5     6     5   ar
     6     3     7   ar
     7     3     4   ar
     8     5     4   ar
     9     7     8   ar
    10     4     9   ar
    11     8     9   ar
    12     8    10    1
    13    11    10   ar
    14    11    12   ar
    15    10    15   ar
    16    12    13   ar
    17    15    14   ar
    18    13    14   ar
    19    13    17    1
