@<TRIPOS>MOLECULE
1u9i_ATP_A_1.pdb
 31 33 0 0 0
SMALL
GASTEIGER

@<TRIPOS>ATOM
      1  PG       127.4450   82.6160   17.1660 P.3   521  ATP521      0.5373
      2  O1G      126.2380   81.7320   17.0520 O.3   521  ATP521     -0.1143
      3  O2G      128.3810   82.2780   18.3320 O.3   521  ATP521     -0.1143
      4  O3G      128.2310   82.5740   15.8450 O.2   521  ATP521     -0.2221
      5  PB       127.1220   85.2520   16.4360 P.3   521  ATP521      0.2277
      6  O1B      126.3920   86.3430   17.0820 O.3   521  ATP521     -0.4368
      7  O2B      126.7430   85.0310   15.0220 O.2   521  ATP521     -0.5168
      8  O3B      126.8910   84.0730   17.3790 O.3   521  ATP521     -0.2258
      9  PA       129.9440   85.9500   15.7960 P.3   521  ATP521      0.2189
     10  O1A      129.9810   87.4090   15.9220 O.2   521  ATP521     -0.5170
     11  O2A      131.1650   85.2690   16.4050 O.3   521  ATP521     -0.4371
     12  O3A      128.6230   85.6400   16.6240 O.3   521  ATP521     -0.2700
     13  O5'      129.8780   85.7870   14.1810 O.3   521  ATP521     -0.3112
     14  C5'      130.3200   84.6590   13.4230 C.3   521  ATP521      0.1813
     15  C4'      130.2870   85.0710   11.9270 C.3   521  ATP521      0.1821
     16  O4'      131.2130   86.1160   11.5830 O.3   521  ATP521     -0.3135
     17  C3'      130.5280   83.9190   10.9660 C.3   521  ATP521      0.2184
     18  O3'      129.2590   83.4780   10.4660 O.3   521  ATP521     -0.2174
     19  C2'      131.4430   84.4720    9.8750 C.3   521  ATP521      0.2570
     20  O2'      130.8650   84.6650    8.6400 O.3   521  ATP521     -0.2130
     21  C1'      131.9580   85.7830   10.3930 C.3   521  ATP521      0.3186
     22  N9       133.4690   85.9030   10.6300 N.pl3 521  ATP521     -0.1439
     23  C8       134.1980   85.4890   11.7300 C.3   521  ATP521      0.3377
     24  N7       135.4810   85.7920   11.4920 N.2   521  ATP521     -0.2095
     25  C5       135.6400   86.3930   10.2850 C.2   521  ATP521      0.2526
     26  C6       136.6920   86.9220    9.5190 C.2   521  ATP521      0.4393
     27  N6       137.9710   86.9260    9.8510 N.pl3 521  ATP521      0.2180
     28  N1       136.4110   87.4790    8.2740 N.2   521  ATP521      0.0021
     29  C2       135.1200   87.5410    7.7790 C.3   521  ATP521      0.5254
     30  N3       134.0750   87.0270    8.5120 N.2   521  ATP521     -0.0055
     31  C4       134.3320   86.4880    9.7500 C.2   521  ATP521      0.3518
@<TRIPOS>BOND
     1    29    28    1
     2    29    30    1
     3    28    26    2
     4    30    31    2
     5    20    19    1
     6    26    27    1
     7    26    25    1
     8    31    25    1
     9    31    22    1
    10    19    21    1
    11    19    17    1
    12    25    24    2
    13    21    22    1
    14    21    16    1
    15    18    17    1
    16    22    23    1
    17    17    15    1
    18    24    23    1
    19    16    15    1
    20    15    14    1
    21    14    13    1
    22    13     9    1
    23     7     5    2
    24     9    10    2
    25     9    11    1
    26     9    12    1
    27     4     1    2
    28     5    12    1
    29     5     6    1
    30     5     8    1
    31     2     1    1
    32     1     8    1
    33     1     3    1
