@<TRIPOS>MOLECULE
1u9m_HEM_A_1.pdb
 43 50 0 0 0
SMALL
GASTEIGER

@<TRIPOS>ATOM
      1 FE         -0.1070   31.5660   12.1210 Fe     90  HEM90       0.0000
      2  CHA       -1.4830   33.4180    9.6150 C.2    90  HEM90       0.0000
      3  CHB        0.4710   28.9900    9.9030 C.2    90  HEM90       0.0000
      4  CHC        1.1320   29.6840   14.6530 C.2    90  HEM90       0.0000
      5  CHD       -0.6560   34.1420   14.3520 C.2    90  HEM90       0.0000
      6  NA        -0.4170   31.2790   10.1750 N.ar   90  HEM90       0.0000
      7  C1A       -1.0260   32.1350    9.2950 C.ar   90  HEM90       0.0000
      8  C2A       -1.1190   31.5130    7.9670 C.ar   90  HEM90       0.0000
      9  C3A       -0.5660   30.2910    8.0470 C.ar   90  HEM90       0.0000
     10  C4A       -0.1220   30.1440    9.4120 C.ar   90  HEM90       0.0000
     11  CMA       -0.4750   29.2640    6.9200 C.3    90  HEM90       0.0000
     12  CAA       -1.8220   32.0660    6.7320 C.3    90  HEM90       0.0000
     13  CBA       -3.3310   32.1580    6.8980 C.3    90  HEM90       0.0000
     14  CGA       -3.9650   30.8190    7.1690 C.2    90  HEM90       0.0000
     15  O1A       -3.7820   29.8960    6.3430 O.co2  90  HEM90       0.0000
     16  O2A       -4.6490   30.6840    8.2060 O.co2  90  HEM90       0.0000
     17  NB         0.6250   29.7530   12.2510 N.2    90  HEM90       0.0000
     18  C1B        0.8360   28.8090   11.2360 C.2    90  HEM90       0.0000
     19  C2B        1.4860   27.6280   11.7520 C.2    90  HEM90       0.0000
     20  C3B        1.7040   27.8450   13.0700 C.2    90  HEM90       0.0000
     21  C4B        1.1470   29.1470   13.3860 C.2    90  HEM90       0.0000
     22  CMB        1.9030   26.3560   11.0110 C.3    90  HEM90       0.0000
     23  CAB        2.4690   27.0340   13.9060 C.3    90  HEM90       0.0000
     24  CBB        1.9090   25.9940   14.6390 C.3    90  HEM90       0.0000
     25  NC         0.1910   31.8490   14.0600 N.ar   90  HEM90       0.0000
     26  C1C        0.6540   30.9190   14.9770 C.ar   90  HEM90       0.0000
     27  C2C        0.5730   31.4010   16.3470 C.ar   90  HEM90       0.0000
     28  C3C        0.0810   32.6720   16.2630 C.ar   90  HEM90       0.0000
     29  C4C       -0.1240   32.9530   14.8470 C.ar   90  HEM90       0.0000
     30  CMC        0.8160   30.5400   17.6100 C.3    90  HEM90       0.0000
     31  CAC       -0.3550   33.5250   17.2800 C.3    90  HEM90       0.0000
     32  CBC        0.2020   33.6590   18.5430 C.3    90  HEM90       0.0000
     33  ND        -0.8470   33.3940   12.0020 N.2    90  HEM90       0.0000
     34  C1D       -0.9670   34.3520   13.0160 C.2    90  HEM90       0.0000
     35  C2D       -1.4830   35.6020   12.4890 C.2    90  HEM90       0.0000
     36  C3D       -1.6670   35.4200   11.1570 C.2    90  HEM90       0.0000
     37  C4D       -1.3500   34.0310   10.8690 C.2    90  HEM90       0.0000
     38  CMD       -1.8300   36.8390   13.2940 C.3    90  HEM90       0.0000
     39  CAD       -2.0180   36.5170   10.1620 C.3    90  HEM90       0.0000
     40  CBD       -3.5120   36.5940    9.8840 C.3    90  HEM90       0.0000
     41  CGD       -3.8820   37.7790    8.9990 C.2    90  HEM90       0.0000
     42  O1D       -5.0890   38.0260    8.8150 O.co2  90  HEM90       0.0000
     43  O2D       -2.9700   38.4650    8.4880 O.co2  90  HEM90       0.0000
@<TRIPOS>BOND
     1    15    14   ar
     2    12    13    1
     3    12     8    1
     4    13    14    1
     5    11     9    1
     6    14    16   ar
     7     8     9   ar
     8     8     7   ar
     9     9    10   ar
    10    43    41   ar
    11    42    41   ar
    12    41    40    1
    13     7     2    2
    14     7     6   ar
    15    10     3    2
    16    10     6   ar
    17     2    37    1
    18    40    39    1
    19     3    18    1
    20    39    36    1
    21     6     1    1
    22    37    36    1
    23    37    33    2
    24    22    19    1
    25    36    35    2
    26    18    19    1
    27    18    17    2
    28    19    20    2
    29    33     1    1
    30    33    34    1
    31     1    17    1
    32     1    25    1
    33    17    21    1
    34    35    34    1
    35    35    38    1
    36    34     5    2
    37    20    21    1
    38    20    23    1
    39    21     4    2
    40    23    24    1
    41    25    29   ar
    42    25    26   ar
    43     5    29    1
    44     4    26    1
    45    29    28   ar
    46    26    27   ar
    47    28    27   ar
    48    28    31    1
    49    27    30    1
    50    31    32    1
