@<TRIPOS>MOLECULE
1u9n_CNS_A_1.pdb
 26 25 0 0 0
SMALL
GASTEIGER

@<TRIPOS>ATOM
      1  C24       34.0800   66.9050   12.4750 C.3   1001  CNS1001     0.0000
      2  C23       34.1150   68.1860   11.6240 C.3   1001  CNS1001     0.0000
      3  C22       33.6210   69.4350   12.3750 C.3   1001  CNS1001     0.0000
      4  C21       33.4110   70.6090   11.4080 C.3   1001  CNS1001     0.0000
      5  C20       32.9200   71.8970   12.0890 C.3   1001  CNS1001     0.0000
      6  C19       32.7290   73.0420   11.0900 C.3   1001  CNS1001     0.0000
      7  C18       32.2440   74.3090   11.7910 C.3   1001  CNS1001     0.0000
      8  C17       32.3280   75.6240   10.9830 C.3   1001  CNS1001     0.0000
      9  C16       31.2020   76.5880   11.3350 C.3   1001  CNS1001     0.0000
     10  C15       31.4240   78.0350   10.8650 C.3   1001  CNS1001     0.0000
     11  C14       30.9630   78.2830    9.4170 C.3   1001  CNS1001     0.0000
     12  C13       29.5130   78.7240    9.3030 C.3   1001  CNS1001     0.0000
     13  C12       29.0920   78.9740    7.8290 C.3   1001  CNS1001     0.0001
     14  C11       28.7620   80.4210    7.5490 C.3   1001  CNS1001     0.0026
     15  C10       28.4200   80.8250    6.1030 C.3   1001  CNS1001     0.0322
     16  C9        28.0950   82.3400    5.9530 C.3   1001  CNS1001     0.1449
     17  O2        27.7010   82.9060    7.2530 O.3   1001  CNS1001    -0.3285
     18  C8        26.8750   84.0840    7.3360 C.3   1001  CNS1001     0.2689
     19  C7        25.4740   83.7520    7.9640 C.3   1001  CNS1001     0.0644
     20  C6        24.6940   85.0060    8.4190 C.3   1001  CNS1001     0.0056
     21  O1        27.6910   84.9760    8.1120 O.3   1001  CNS1001    -0.1899
     22  C3        26.4120   86.7600   11.1520 C.2   1001  CNS1001    -0.0307
     23  C4        25.0540   86.5940   10.4180 C.3   1001  CNS1001     0.0257
     24  C5        24.6150   85.1870    9.9450 C.3   1001  CNS1001     0.0048
     25  C2        27.5600   87.5400   10.4380 C.2   1001  CNS1001    -0.0304
     26  C1        28.8800   87.6730   11.2180 C.3   1001  CNS1001     0.0303
@<TRIPOS>BOND
     1    16    15    1
     2    16    17    1
     3    15    14    1
     4    17    18    1
     5    18    19    1
     6    18    21    1
     7    14    13    1
     8    13    12    1
     9    19    20    1
    10    20    24    1
    11    12    11    1
    12    11    10    1
    13    24    23    1
    14    23    22    1
    15    25    22    2
    16    25    26    1
    17    10     9    1
    18     8     9    1
    19     8     7    1
    20     6     7    1
    21     6     5    1
    22     4     5    1
    23     4     3    1
    24     2     3    1
    25     2     1    1
