@<TRIPOS>MOLECULE
1u9o_CNS_A_1.pdb
 16 15 0 0 0
SMALL
GASTEIGER

@<TRIPOS>ATOM
      1  C24       97.7080   19.6880    3.7680 C.3   217  CNS217      0.0000
      2  C23       98.6320   18.8890    4.7300 C.3   217  CNS217      0.0000
      3  C22       99.8430   19.6950    5.2600 C.3   217  CNS217      0.0000
      4  C21      101.1640   18.9190    5.0870 C.3   217  CNS217      0.0000
      5  C20      102.4210   19.6790    5.5990 C.3   217  CNS217      0.0000
      6  C19      103.7220   18.8550    5.3990 C.3   217  CNS217      0.0000
      7  C18      105.0000   19.5710    5.9090 C.3   217  CNS217      0.0000
      8  C17      106.2520   18.6610    6.1450 C.3   217  CNS217      0.0000
      9  C16      107.5750   19.3630    5.8180 C.3   217  CNS217      0.0000
     10  C15      108.8150   18.7810    6.5050 C.3   217  CNS217      0.0003
     11  C14      109.7750   18.1240    5.5080 C.3   217  CNS217      0.0047
     12  C13      111.1920   18.7260    5.4650 C.3   217  CNS217      0.0257
     13  C12      112.1010   17.9970    4.4280 C.2   217  CNS217     -0.0307
     14  C11      113.3960   17.3620    4.9720 C.2   217  CNS217     -0.0307
     15  C10      114.4830   16.9990    3.9100 C.3   217  CNS217      0.0257
     16  C9       115.7810   16.3820    4.4910 C.3   217  CNS217      0.0050
@<TRIPOS>BOND
     1     1     2    1
     2    15    16    1
     3    15    14    1
     4    13    14    2
     5    13    12    1
     6     2     3    1
     7     4     3    1
     8     4     5    1
     9     6     5    1
    10     6     7    1
    11    12    11    1
    12    11    10    1
    13     9     8    1
    14     9    10    1
    15     7     8    1
