@<TRIPOS>MOLECULE
1u9q_186_X_1.pdb
 30 31 0 0 0
SMALL
GASTEIGER

@<TRIPOS>ATOM
      1  O34        0.4750   13.3590    5.6950 O.2   300  186300     -0.2245
      2  C18        0.9950   12.3210    5.3570 C.2   300  186300      0.4219
      3  O26        0.9730   12.0230    3.9440 O.3   300  186300     -0.4285
      4  C27        0.5600   13.1480    3.1000 C.3   300  186300      0.2368
      5  C28        0.6860   12.9310    1.6070 C.ar  300  186300      0.0213
      6  C33       -0.3500   12.3090    0.8840 C.ar  300  186300     -0.0007
      7  C32       -0.1760   12.0660   -0.4760 C.ar  300  186300     -0.0002
      8  C31        1.0220   12.4600   -1.0970 C.ar  300  186300     -0.0000
      9  C30        2.0620   13.0820   -0.4130 C.ar  300  186300     -0.0002
     10  C29        1.8620   13.3130    0.9520 C.ar  300  186300     -0.0007
     11  N17        1.4450   11.6290    6.3750 N.am  300  186300     -0.1607
     12  C13        2.1900   10.4510    6.4240 C.3   300  186300      0.1804
     13  C16        1.6550    9.5380    7.5260 C.3   300  186300      0.0575
     14  C20        0.4820    8.7330    6.9740 C.ar  300  186300     -0.0200
     15  C25        0.7060    7.6150    6.1920 C.ar  300  186300     -0.0042
     16  C24       -0.3850    6.9020    5.7020 C.ar  300  186300     -0.0003
     17  C23       -1.6930    7.3010    5.9750 C.ar  300  186300     -0.0000
     18  C22       -1.9320    8.4270    6.7550 C.ar  300  186300     -0.0003
     19  C21       -0.8330    9.1340    7.2520 C.ar  300  186300     -0.0042
     20  C12        3.4900   11.0810    6.7950 C.2   300  186300      0.2616
     21  O19        4.3300   11.2030    5.9300 O.2   300  186300     -0.2715
     22  N11        3.7000   11.5520    8.0020 N.am  300  186300     -0.2057
     23  C8         5.0470   12.1390    8.2600 C.3   300  186300      0.0959
     24  C14        4.9760   13.6750    8.4460 C.3   300  186300      0.0234
     25  C7         5.7550   11.4910    9.4630 C.3   300  186300      0.0299
     26  C6         5.8110   12.3330   10.4850 C.3   300  186300      0.0745
     27  C5         6.3540   12.2420   11.8320 C.2   300  186300      0.2150
     28  O10        7.4730   11.8350   12.0670 O.2   300  186300     -0.2878
     29  C4         5.4820   12.7690   12.8930 C.2   300  186300      0.2714
     30  O9         5.5430   12.2720   13.9960 O.2   300  186300     -0.2799
@<TRIPOS>BOND
     1     8     7   ar
     2     8     9   ar
     3     7     6   ar
     4     9    10   ar
     5     6     5   ar
     6    10     5   ar
     7     5     4    1
     8     4     3    1
     9     3     2    1
    10     2     1    2
    11     2    11   am
    12    16    17   ar
    13    16    15   ar
    14    21    20    2
    15    17    18   ar
    16    15    14   ar
    17    11    12    1
    18    12    20    1
    19    12    13    1
    20    18    19   ar
    21    20    22   am
    22    14    19   ar
    23    14    13    1
    24    22    23    1
    25    23    24    1
    26    23    25    1
    27    25    26    1
    28    26    27    1
    29    27    28    2
    30    27    29    1
    31    29    30    2
