@<TRIPOS>MOLECULE
1u9u_HEM_A_1.pdb
 43 50 0 0 0
SMALL
GASTEIGER

@<TRIPOS>ATOM
      1 FE         11.7030    1.7430   -2.3070 Fe     90  HEM90       0.0000
      2  CHA       10.5620    2.3720   -5.4270 C.2    90  HEM90       0.0000
      3  CHB       14.5350    3.6250   -2.9640 C.2    90  HEM90       0.0000
      4  CHC       13.0110    0.9350    0.7310 C.2    90  HEM90       0.0000
      5  CHD        8.8810   -0.0890   -1.6290 C.2    90  HEM90       0.0000
      6  NA        12.3960    2.7740   -3.8350 N.ar   90  HEM90       0.0000
      7  C1A       11.8280    2.8510   -5.1020 C.ar   90  HEM90       0.0000
      8  C2A       12.6740    3.5630   -6.0170 C.ar   90  HEM90       0.0000
      9  C3A       13.7480    3.9910   -5.2950 C.ar   90  HEM90       0.0000
     10  C4A       13.5720    3.5020   -3.9490 C.ar   90  HEM90       0.0000
     11  CMA       14.9390    4.8050   -5.7800 C.3    90  HEM90       0.0000
     12  CAA       12.4250    3.7740   -7.5120 C.3    90  HEM90       0.0000
     13  CBA       12.5510    2.4870   -8.3130 C.3    90  HEM90       0.0000
     14  CGA       13.9180    1.8540   -8.1720 C.2    90  HEM90       0.0000
     15  O1A       14.9180    2.5500   -8.4310 O.co2  90  HEM90       0.0000
     16  O2A       13.9920    0.6640   -7.8010 O.co2  90  HEM90       0.0000
     17  NB        13.3700    2.2230   -1.3120 N.2    90  HEM90       0.0000
     18  C1B       14.4450    3.0070   -1.7260 C.2    90  HEM90       0.0000
     19  C2B       15.4820    3.0570   -0.7250 C.2    90  HEM90       0.0000
     20  C3B       15.0320    2.3540    0.3260 C.2    90  HEM90       0.0000
     21  C4B       13.7510    1.8010   -0.0470 C.2    90  HEM90       0.0000
     22  CMB       16.8190    3.7850   -0.8140 C.3    90  HEM90       0.0000
     23  CAB       15.6260    2.3540    1.5870 C.3    90  HEM90       0.0000
     24  CBB       16.3640    1.2810    2.0690 C.3    90  HEM90       0.0000
     25  NC        11.0790    0.6590   -0.8000 N.ar   90  HEM90       0.0000
     26  C1C       11.7790    0.3890    0.3780 C.ar   90  HEM90       0.0000
     27  C2C       11.0400   -0.5210    1.2270 C.ar   90  HEM90       0.0000
     28  C3C        9.8600   -0.7780    0.6170 C.ar   90  HEM90       0.0000
     29  C4C        9.8880   -0.0440   -0.6530 C.ar   90  HEM90       0.0000
     30  CMC       11.5180   -1.0610    2.5770 C.3    90  HEM90       0.0000
     31  CAC        8.7600   -1.5030    1.0750 C.3    90  HEM90       0.0000
     32  CBC        8.6060   -2.2740    2.2280 C.3    90  HEM90       0.0000
     33  ND        10.0500    1.2880   -3.2790 N.2    90  HEM90       0.0000
     34  C1D        8.9600    0.5500   -2.8600 C.2    90  HEM90       0.0000
     35  C2D        7.9240    0.5370   -3.8850 C.2    90  HEM90       0.0000
     36  C3D        8.4070    1.2220   -4.9440 C.2    90  HEM90       0.0000
     37  C4D        9.7280    1.6760   -4.5720 C.2    90  HEM90       0.0000
     38  CMD        6.5380   -0.0900   -3.8020 C.3    90  HEM90       0.0000
     39  CAD        7.7030    1.4700   -6.2770 C.3    90  HEM90       0.0000
     40  CBD        7.8820    0.2920   -7.2200 C.3    90  HEM90       0.0000
     41  CGD        7.1840    0.4890   -8.5540 C.2    90  HEM90       0.0000
     42  O1D        7.2530   -0.4300   -9.3980 O.co2  90  HEM90       0.0000
     43  O2D        6.5670    1.5570   -8.7600 O.co2  90  HEM90       0.0000
@<TRIPOS>BOND
     1    42    41   ar
     2    43    41   ar
     3    41    40    1
     4    15    14   ar
     5    13    14    1
     6    13    12    1
     7    14    16   ar
     8    12     8    1
     9    40    39    1
    10    39    36    1
    11     8     9   ar
    12     8     7   ar
    13    11     9    1
    14     2     7    2
    15     2    37    1
    16     9    10   ar
    17     7     6   ar
    18    36    37    1
    19    36    35    2
    20    37    33    2
    21    10     6   ar
    22    10     3    2
    23    35    38    1
    24    35    34    1
    25     6     1    1
    26    33    34    1
    27    33     1    1
    28     3    18    1
    29    34     5    2
    30     1    17    1
    31     1    25    1
    32    18    17    2
    33    18    19    1
    34     5    29    1
    35    17    21    1
    36    22    19    1
    37    25    29   ar
    38    25    26   ar
    39    19    20    2
    40    29    28   ar
    41    21    20    1
    42    21     4    2
    43    20    23    1
    44    26     4    1
    45    26    27   ar
    46    28    31    1
    47    28    27   ar
    48    31    32    1
    49    27    30    1
    50    23    24    1
