@<TRIPOS>MOLECULE
1u9v_IHE_A_1.pdb
 27 30 0 0 0
SMALL
GASTEIGER

@<TRIPOS>ATOM
      1  C01       62.3790   15.3030  -12.1540 C.3   300  IHE300      0.0897
      2  C02       63.0380   12.5040  -12.7930 C.3   300  IHE300      0.0897
      3  N03       62.3630   13.4030  -13.7890 N.3   300  IHE300     -0.2691
      4  C04       61.5220   14.4630  -13.1230 C.3   300  IHE300      0.0897
      5  C05       63.9080   13.3280  -11.8230 C.3   300  IHE300      0.0897
      6  N06       63.0760   14.3980  -11.1580 N.3   300  IHE300     -0.2688
      7  C15       61.5390   12.5880  -14.7240 C.3   300  IHE300      0.0897
      8  C16       63.9400   15.2200  -10.2070 C.3   300  IHE300      0.0940
      9  C17       64.4460   14.4170   -8.9630 C.3   300  IHE300      0.1123
     10  N18       63.3140   13.7570   -8.2910 N.pl3 300  IHE300     -0.2594
     11  C19       62.9500   12.4070   -8.3730 C.3   300  IHE300      0.2221
     12  N20       61.8850   12.1330   -7.6780 N.2   300  IHE300     -0.2402
     13  C21       62.4010   14.3430   -7.4610 C.2   300  IHE300      0.2186
     14  N22       62.3040   15.6480   -7.0420 N.2   300  IHE300     -0.3214
     15  C23       61.2460   15.9170   -6.2170 C.1   300  IHE300      0.1631
     16  N24       60.3550   14.9620   -5.8560 N.2   300  IHE300     -0.3200
     17  C25       60.4960   13.6960   -6.3000 C.2   300  IHE300      0.2329
     18  C26       61.5450   13.3590   -7.1080 C.2   300  IHE300      0.1689
     19  N28       59.5560   12.7030   -5.9510 N.pl3 300  IHE300     -0.2094
     20  C29       58.3590   12.8580   -5.1700 C.3   300  IHE300      0.0951
     21  C30       57.7400   11.5410   -4.6810 C.3   300  IHE300      0.0217
     22  C31       56.4420   11.7760   -3.8700 C.3   300  IHE300      0.0018
     23  C32       55.4070   12.5800   -4.7010 C.3   300  IHE300      0.0001
     24  C33       55.9890   13.9200   -5.2390 C.3   300  IHE300      0.0018
     25  C34       57.3200   13.6970   -5.9710 C.3   300  IHE300      0.0217
     26  N35       61.9380   18.1540   -5.9350 N.2   300  IHE300     -0.1325
     27  C27       61.0440   17.2960   -5.6960 C.2   300  IHE300      0.2184
@<TRIPOS>BOND
     1     7     3    1
     2     3     4    1
     3     3     2    1
     4     4     1    1
     5     2     5    1
     6     1     6    1
     7     5     6    1
     8     6     8    1
     9     8     9    1
    10     9    10    1
    11    11    10    1
    12    11    12    1
    13    10    13    1
    14    12    18    2
    15    13    18    1
    16    13    14    2
    17    18    17    1
    18    14    15    2
    19    17    19    1
    20    17    16    2
    21    15    16    2
    22    15    27    1
    23    25    24    1
    24    25    20    1
    25    19    20    1
    26    26    27    2
    27    24    23    1
    28    20    21    1
    29    23    22    1
    30    21    22    1
