@<TRIPOS>MOLECULE
1u9w_IHI_A_1.pdb
 25 28 0 0 0
SMALL
GASTEIGER

@<TRIPOS>ATOM
      1  C01       62.9920   12.3710   -7.9980 C.3   300  IHI300      0.2220
      2  N02       61.8080   12.1870   -7.5470 N.2   300  IHI300     -0.2402
      3  C03       61.5220   13.3370   -6.8120 C.2   300  IHI300      0.1692
      4  C04       62.5410   14.2130   -6.8120 C.2   300  IHI300      0.2182
      5  N05       63.6060   13.5630   -7.5330 N.pl3 300  IHI300     -0.2625
      6  C07       60.3940   13.6560   -6.1240 C.2   300  IHI300      0.2369
      7  N08       62.4780   15.4630   -6.1750 N.2   300  IHI300     -0.3254
      8  N09       60.2970   14.8580   -5.4760 N.2   300  IHI300     -0.3236
      9  C10       61.3150   15.7390   -5.5220 C.1   300  IHI300      0.1362
     10  N11       59.4020   12.6680   -6.1200 N.pl3 300  IHI300     -0.1784
     11  C12       64.9250   14.1010   -7.9460 C.3   300  IHI300      0.0769
     12  C13       65.0390   15.6160   -7.9730 C.3   300  IHI300      0.0199
     13  C14       64.8250   15.8900   -9.4290 C.3   300  IHI300      0.0018
     14  C15       65.7520   14.8570  -10.0730 C.3   300  IHI300      0.0018
     15  C16       65.3820   13.5880   -9.3230 C.3   300  IHI300      0.0199
     16  N27       62.3070   17.8580   -4.8880 N.3   300  IHI300     -0.1116
     17  C32       58.2070   12.7750   -5.4030 C.ar  300  IHI300      0.1070
     18  C33       57.5300   14.0230   -5.1340 C.ar  300  IHI300      0.0197
     19  C34       56.3280   14.0170   -4.3680 C.ar  300  IHI300      0.0015
     20  C35       55.7850   12.7970   -3.8580 C.ar  300  IHI300      0.0032
     21  C36       56.4400   11.5700   -4.1160 C.ar  300  IHI300      0.0383
     22  C37       57.6540   11.5540   -4.8830 C.ar  300  IHI300      0.1539
     23  O38       58.2620   10.2600   -5.1460 O.3   300  IHI300     -0.4701
     24  C39       59.1330    9.6580   -4.2220 C.3   300  IHI300      0.2525
     25  C26       61.1240   17.0340   -4.7970 C.3   300  IHI300      0.2331
@<TRIPOS>BOND
     1    14    13    1
     2    14    15    1
     3    13    12    1
     4    15    11    1
     5     1     2    1
     6     1     5    1
     7    12    11    1
     8    11     5    1
     9     2     3    2
    10     5     4    1
    11     4     3    1
    12     4     7    2
    13     3     6    1
    14     7     9    2
    15     6    10    1
    16     6     8    2
    17    10    17    1
    18     9     8    2
    19     9    25    1
    20    17    18   ar
    21    17    22   ar
    22    23    22    1
    23    23    24    1
    24    18    19   ar
    25    16    25    1
    26    22    21   ar
    27    19    20   ar
    28    21    20   ar
