@<TRIPOS>MOLECULE
1u9x_IHJ_A_1.pdb
 34 38 0 0 0
SMALL
GASTEIGER

@<TRIPOS>ATOM
      1  N01       63.2290   13.4970   -7.7640 N.pl3 300  IHJ300     -0.2625
      2  C02       62.6390   12.3060   -8.1040 C.3   300  IHJ300      0.2220
      3  N03       61.4130   12.1700   -7.5960 N.2   300  IHJ300     -0.2402
      4  C05       61.2040   15.7950   -5.6250 C.1   300  IHJ300      0.1631
      5  N06       62.3160   15.4290   -6.3430 N.2   300  IHJ300     -0.3214
      6  C07       62.2680   14.1790   -6.9610 C.2   300  IHJ300      0.2185
      7  C08       61.2100   13.3480   -6.8880 C.2   300  IHJ300      0.1692
      8  C09       60.1310   13.7440   -6.1630 C.2   300  IHJ300      0.2372
      9  N10       60.1280   14.9810   -5.5250 N.2   300  IHJ300     -0.3196
     10  N11       59.0830   12.8210   -6.1380 N.pl3 300  IHJ300     -0.1784
     11  N13       62.1080   17.8940   -5.0030 N.2   300  IHJ300     -0.1325
     12  C16       64.5490   14.0270   -8.1150 C.3   300  IHJ300      0.0769
     13  C17       64.6450   14.4460   -9.5750 C.3   300  IHJ300      0.0199
     14  C18       66.1410   14.3860   -9.8380 C.3   300  IHJ300      0.0018
     15  C19       66.5320   13.0670   -9.1810 C.3   300  IHJ300      0.0018
     16  C20       65.6930   13.0210   -7.8950 C.3   300  IHJ300      0.0199
     17  C30       57.9450   12.8490   -5.3170 C.ar  300  IHJ300      0.1070
     18  C31       57.1360   14.0340   -5.1660 C.ar  300  IHJ300      0.0197
     19  C32       55.9820   14.0200   -4.3210 C.ar  300  IHJ300      0.0015
     20  C33       55.6210   12.8280   -3.6200 C.ar  300  IHJ300      0.0032
     21  C34       56.4150   11.6500   -3.7630 C.ar  300  IHJ300      0.0382
     22  C35       57.5870   11.6440   -4.6110 C.ar  300  IHJ300      0.1537
     23  O40       58.3990   10.5370   -4.7910 O.3   300  IHJ300     -0.4741
     24  C41       58.8220    9.7400   -3.6660 C.3   300  IHJ300      0.2069
     25  C42       59.6390    8.5610   -4.1950 C.3   300  IHJ300      0.0646
     26  C43       60.8890    9.0090   -4.9680 C.3   300  IHJ300      0.0760
     27  N51       61.6650    7.8540   -5.4760 N.3   300  IHJ300     -0.2702
     28  C52       61.7120    7.7020   -6.9650 C.3   300  IHJ300      0.0897
     29  C53       62.3730    6.3640   -7.3700 C.3   300  IHJ300      0.0897
     30  N54       63.7490    6.2760   -6.7880 N.3   300  IHJ300     -0.2691
     31  C55       63.7250    6.4160   -5.2940 C.3   300  IHJ300      0.0897
     32  C56       63.0520    7.7540   -4.8960 C.3   300  IHJ300      0.0897
     33  C61       64.3850    4.9880   -7.1690 C.3   300  IHJ300      0.0897
     34  C12       61.1410   17.0940   -4.9380 C.2   300  IHJ300      0.2184
@<TRIPOS>BOND
     1    14    13    1
     2    14    15    1
     3    13    12    1
     4    15    16    1
     5    12    16    1
     6    12     1    1
     7     2     1    1
     8     2     3    1
     9     1     6    1
    10     3     7    2
    11    29    28    1
    12    29    30    1
    13    33    30    1
    14    28    27    1
    15     6     7    1
    16     6     5    2
    17     7     8    1
    18    30    31    1
    19     5     4    2
    20     8    10    1
    21     8     9    2
    22    10    17    1
    23     4     9    2
    24     4    34    1
    25    27    26    1
    26    27    32    1
    27    17    18   ar
    28    17    22   ar
    29    31    32    1
    30    18    19   ar
    31    11    34    2
    32    26    25    1
    33    23    22    1
    34    23    24    1
    35    22    21   ar
    36    19    20   ar
    37    25    24    1
    38    21    20   ar
