@<TRIPOS>MOLECULE
1u9z_AMP_B_1.pdb
 23 25 0 0 0
SMALL
GASTEIGER

@<TRIPOS>ATOM
      1  P         14.2920   34.6850   37.7860 P.3   5302  AMP5302     0.5327
      2  O1P       15.5990   34.0160   37.8830 O.3   5302  AMP5302    -0.1145
      3  O2P       13.1280   33.7360   38.0690 O.3   5302  AMP5302    -0.1145
      4  O3P       14.0440   35.3960   36.4100 O.2   5302  AMP5302    -0.2224
      5  O5'       14.4200   35.7970   38.9990 O.3   5302  AMP5302    -0.2675
      6  C5'       13.2210   36.5980   39.1250 C.3   5302  AMP5302     0.1860
      7  C4'       13.3840   37.8190   40.0780 C.3   5302  AMP5302     0.1823
      8  O4'       12.0610   38.4540   39.8550 O.3   5302  AMP5302    -0.3135
      9  C3'       13.4370   37.5640   41.7590 C.3   5302  AMP5302     0.2184
     10  O3'       14.3120   38.6510   42.3280 O.3   5302  AMP5302    -0.2174
     11  C2'       11.9060   37.7460   42.1600 C.3   5302  AMP5302     0.2570
     12  O2'       11.7120   38.2660   43.4570 O.3   5302  AMP5302    -0.2130
     13  C1'       11.3850   38.7770   41.0580 C.3   5302  AMP5302     0.3186
     14  N9         9.9240   38.7830   40.7730 N.pl3 5302  AMP5302    -0.1439
     15  C8         8.9010   38.0110   41.3440 C.3   5302  AMP5302     0.3377
     16  N7         7.6540   38.2360   40.8970 N.2   5302  AMP5302    -0.2095
     17  C5         7.9180   39.2350   39.9640 C.2   5302  AMP5302     0.2526
     18  C6         7.0700   39.9860   39.0800 C.2   5302  AMP5302     0.4393
     19  N6         5.7170   39.7110   39.1200 N.pl3 5302  AMP5302     0.2180
     20  N1         7.6650   40.9500   38.2400 N.2   5302  AMP5302     0.0021
     21  C2         9.0020   41.2050   38.2220 C.3   5302  AMP5302     0.5254
     22  N3         9.8690   40.5310   39.0370 N.2   5302  AMP5302    -0.0055
     23  C4         9.2940   39.5870   39.8620 C.2   5302  AMP5302     0.3518
@<TRIPOS>BOND
     1     4     1    2
     2     1     2    1
     3     1     3    1
     4     1     5    1
     5    21    20    1
     6    21    22    1
     7    20    18    2
     8     5     6    1
     9    22    23    2
    10    18    19    1
    11    18    17    1
    12     6     7    1
    13     8     7    1
    14     8    13    1
    15    23    17    1
    16    23    14    1
    17    17    16    2
    18     7     9    1
    19    14    13    1
    20    14    15    1
    21    16    15    1
    22    13    11    1
    23     9    11    1
    24     9    10    1
    25    11    12    1
