@<TRIPOS>MOLECULE
1u9z_R5P_A_1.pdb
 14 13 0 0 0
SMALL
GASTEIGER

@<TRIPOS>ATOM
      1  C1        13.4080   34.8160   30.4470 C.2   5301  R5P5301     0.2427
      2  O1        14.0690   33.9450   30.9800 O.2   5301  R5P5301    -0.2854
      3  C2        13.0840   36.0780   31.2090 C.3   5301  R5P5301     0.2486
      4  O2        12.3530   35.7180   32.4030 O.3   5301  R5P5301    -0.2118
      5  C3        12.2210   37.0710   30.3500 C.3   5301  R5P5301     0.2224
      6  O3        13.0420   37.3820   29.1710 O.3   5301  R5P5301    -0.2171
      7  C4        11.9070   38.3680   31.1530 C.3   5301  R5P5301     0.2151
      8  O4        11.1060   38.0490   32.2630 O.3   5301  R5P5301    -0.2176
      9  C5        11.2280   39.4870   30.2920 C.3   5301  R5P5301     0.1892
     10  O5        11.2450   40.7670   30.9340 O.3   5301  R5P5301    -0.2674
     11  P         11.4170   42.1880   30.1620 P.3   5301  R5P5301     0.5327
     12  O1P       10.5590   42.1840   28.8210 O.2   5301  R5P5301    -0.2224
     13  O2P       10.9320   43.3090   31.1540 O.3   5301  R5P5301    -0.1145
     14  O3P       12.8130   42.4500   29.7790 O.3   5301  R5P5301    -0.1145
@<TRIPOS>BOND
     1    12    11    2
     2     6     5    1
     3    14    11    1
     4    11    10    1
     5    11    13    1
     6     9    10    1
     7     9     7    1
     8     5     7    1
     9     5     3    1
    10     1     2    2
    11     1     3    1
    12     7     8    1
    13     3     4    1
