@<TRIPOS>MOLECULE
1ua0_AF_C_1.pdb
 14 16 0 0 0
SMALL
GASTEIGER

@<TRIPOS>ATOM
      1  N         11.8960   35.7350   47.7070 N.pl3 333  AF333      -0.1281
      2  C2        11.7610   36.4660   48.9900 C.ar  333  AF333       0.0891
      3  C3        10.6720   36.0620   49.8310 C.ar  333  AF333       0.0178
      4  C4        10.4040   36.6600   51.0800 C.ar  333  AF333      -0.0023
      5  C4A       11.2510   37.7210   51.5360 C.ar  333  AF333      -0.0143
      6  C4B       11.2080   38.4650   52.6990 C.3   333  AF333       0.0664
      7  C5        10.3010   38.4130   53.8320 C.2   333  AF333      -0.0177
      8  C6        10.4990   39.3160   54.9120 C.2   333  AF333      -0.0039
      9  C7        11.5670   40.2590   54.8950 C.2   333  AF333      -0.0006
     10  C8        12.4710   40.3300   53.7960 C.2   333  AF333      -0.0036
     11  C8A       12.2990   39.4270   52.6840 C.2   333  AF333      -0.0143
     12  C9        13.1360   39.3090   51.3940 C.2   333  AF333      -0.0039
     13  C9A       12.3720   38.1650   50.7090 C.ar  333  AF333      -0.0023
     14  C1        12.6260   37.5310   49.4260 C.ar  333  AF333       0.0178
@<TRIPOS>BOND
     1     1     2    1
     2     2    14   ar
     3     2     3   ar
     4    14    13   ar
     5     3     4   ar
     6    13    12    1
     7    13     5   ar
     8     4     5   ar
     9    12    11    2
    10     5     6    1
    11    11     6    1
    12    11    10    1
    13     6     7    1
    14    10     9    2
    15     7     8    2
    16     9     8    1
