@<TRIPOS>MOLECULE
1ua1_AF_C_1.pdb
 14 16 0 0 0
SMALL
GASTEIGER

@<TRIPOS>ATOM
      1  N         14.4070   33.4130   42.4690 N.pl3 327  AF327      -0.1281
      2  C2        15.5600   33.3600   43.3930 C.ar  327  AF327       0.0891
      3  C3        15.9020   32.0910   43.9690 C.ar  327  AF327       0.0178
      4  C4        16.9800   31.9420   44.8730 C.ar  327  AF327      -0.0023
      5  C4A       17.7590   33.1010   45.2270 C.ar  327  AF327      -0.0143
      6  C4B       18.8480   33.2380   46.0620 C.3   327  AF327       0.0664
      7  C5        19.5630   32.2660   46.8540 C.2   327  AF327      -0.0177
      8  C6        20.6720   32.6980   47.6290 C.2   327  AF327      -0.0039
      9  C7        21.0820   34.0620   47.6380 C.2   327  AF327      -0.0006
     10  C8        20.3950   35.0410   46.8710 C.2   327  AF327      -0.0036
     11  C8A       19.2700   34.6380   46.0720 C.2   327  AF327      -0.0143
     12  C9        18.3790   35.4980   45.1640 C.2   327  AF327      -0.0039
     13  C9A       17.4290   34.4020   44.6560 C.ar  327  AF327      -0.0023
     14  C1        16.3250   34.5230   43.7420 C.ar  327  AF327       0.0178
@<TRIPOS>BOND
     1     1     2    1
     2     2    14   ar
     3     2     3   ar
     4    14    13   ar
     5     3     4   ar
     6    13    12    1
     7    13     5   ar
     8     4     5   ar
     9    12    11    2
    10     5     6    1
    11     6    11    1
    12     6     7    1
    13    11    10    1
    14     7     8    2
    15    10     9    2
    16     8     9    1
