@<TRIPOS>MOLECULE
1ua2_ATP_A_1.pdb
 31 33 0 0 0
SMALL
GASTEIGER

@<TRIPOS>ATOM
      1  PG        38.7450   -5.8490   27.8140 P.3   381  ATP381      0.5373
      2  O1G       37.8730   -5.8540   29.0670 O.3   381  ATP381     -0.1143
      3  O2G       38.1100   -6.1320   26.4680 O.2   381  ATP381     -0.2221
      4  O3G       40.0170   -6.6310   28.0080 O.3   381  ATP381     -0.1143
      5  PB        38.7760   -3.1500   26.7030 P.3   381  ATP381      0.2277
      6  O1B       37.5790   -3.5170   25.8190 O.2   381  ATP381     -0.5168
      7  O2B       38.8180   -1.8970   27.5420 O.3   381  ATP381     -0.4368
      8  O3B       39.2280   -4.3030   27.7340 O.3   381  ATP381     -0.2258
      9  PA        40.2950   -4.2520   24.7010 P.3   381  ATP381      0.2189
     10  O1A       40.7270   -5.5130   25.4140 O.3   381  ATP381     -0.4371
     11  O2A       39.0830   -4.3690   23.7880 O.2   381  ATP381     -0.5170
     12  O3A       40.0460   -3.0660   25.7470 O.3   381  ATP381     -0.2700
     13  O5'       41.4870   -3.5800   23.8550 O.3   381  ATP381     -0.3112
     14  C5'       42.6390   -2.9600   24.4090 C.3   381  ATP381      0.1813
     15  C4'       43.7070   -3.1360   23.3350 C.3   381  ATP381      0.1821
     16  O4'       43.4550   -4.3780   22.6770 O.3   381  ATP381     -0.3135
     17  C3'       43.6820   -2.0720   22.2500 C.3   381  ATP381      0.2184
     18  O3'       45.0280   -1.6870   21.9650 O.3   381  ATP381     -0.2174
     19  C2'       43.0910   -2.7400   21.0230 C.3   381  ATP381      0.2570
     20  O2'       43.7690   -2.2740   19.8480 O.3   381  ATP381     -0.2130
     21  C1'       43.4320   -4.1920   21.2710 C.3   381  ATP381      0.3186
     22  N9        42.4830   -5.1540   20.7100 N.pl3 381  ATP381     -0.1439
     23  C8        41.5180   -5.7850   21.3910 C.3   381  ATP381      0.3377
     24  N7        40.8340   -6.6290   20.5760 N.2   381  ATP381     -0.2095
     25  C5        41.3870   -6.5470   19.3480 C.2   381  ATP381      0.2526
     26  C6        41.1540   -7.1770   18.0210 C.2   381  ATP381      0.4393
     27  N6        40.1710   -8.0960   17.8360 N.pl3 381  ATP381      0.2180
     28  N1        41.9650   -6.8110   16.9990 N.2   381  ATP381      0.0021
     29  C2        42.9470   -5.8990   17.1850 C.3   381  ATP381      0.5254
     30  N3        43.2100   -5.2860   18.3600 N.2   381  ATP381     -0.0055
     31  C4        42.4770   -5.5700   19.4550 C.2   381  ATP381      0.3518
@<TRIPOS>BOND
     1    28    29    1
     2    28    26    2
     3    29    30    1
     4    27    26    1
     5    26    25    1
     6    30    31    2
     7    25    31    1
     8    25    24    2
     9    31    22    1
    10    20    19    1
    11    24    23    1
    12    22    21    1
    13    22    23    1
    14    19    21    1
    15    19    17    1
    16    21    16    1
    17    18    17    1
    18    17    15    1
    19    16    15    1
    20    15    14    1
    21    11     9    2
    22    13    14    1
    23    13     9    1
    24     9    10    1
    25     9    12    1
    26    12     5    1
    27     6     5    2
    28     3     1    2
    29     5     7    1
    30     5     8    1
    31     8     1    1
    32     1     4    1
    33     1     2    1
