@<TRIPOS>MOLECULE
1ua3_MLR_A_1.pdb
 34 36 0 0 0
SMALL
GASTEIGER

@<TRIPOS>ATOM
      1  C1A       35.3340   37.5990    4.9700 C.3   1990  MLR1990     0.3023
      2  C2A       33.9240   36.9400    5.3100 C.3   1990  MLR1990     0.2433
      3  C3A       33.2520   36.1620    3.9860 C.3   1990  MLR1990     0.2168
      4  C4A       33.4620   37.0310    2.5270 C.3   1990  MLR1990     0.1804
      5  C5A       34.5320   38.1840    2.4240 C.3   1990  MLR1990     0.1804
      6  C6A       33.9610   39.5780    2.3280 C.3   1990  MLR1990     0.2141
      7  O1X       36.2890   36.4650    4.8890 O.3   1990  MLR1990    -0.1869
      8  O2A       34.4670   36.0290    6.2900 O.3   1990  MLR1990    -0.2148
      9  O3A       32.1010   35.5060    4.5920 O.3   1990  MLR1990    -0.2175
     10  O4A       33.3350   36.4800    1.0410 O.3   1990  MLR1990    -0.3257
     11  O5A       35.3040   38.4250    3.6770 O.3   1990  MLR1990    -0.3237
     12  O6A       33.5210   40.2710    3.5000 O.3   1990  MLR1990    -0.2176
     13  C1B       32.0260   36.1860    0.6530 C.3   1990  MLR1990     0.2695
     14  C2B       32.0210   35.0600   -0.4110 C.3   1990  MLR1990     0.2404
     15  C3B       32.2600   35.5650   -1.8430 C.3   1990  MLR1990     0.2167
     16  C4B       31.4300   36.8110   -2.1450 C.3   1990  MLR1990     0.1804
     17  C5B       31.7030   37.8610   -1.0700 C.3   1990  MLR1990     0.1803
     18  C6B       30.9230   39.1420   -1.2910 C.3   1990  MLR1990     0.2141
     19  O2B       33.0180   34.1020   -0.0930 O.3   1990  MLR1990    -0.2149
     20  O3B       31.9270   34.5380   -2.7710 O.3   1990  MLR1990    -0.2175
     21  O4B       31.7800   37.3230   -3.4390 O.3   1990  MLR1990    -0.3257
     22  O5B       31.3100   37.3430    0.2150 O.3   1990  MLR1990    -0.3257
     23  O6B       29.5290   38.8940   -1.3140 O.3   1990  MLR1990    -0.2176
     24  C1C       30.7020   37.5660   -4.2990 C.3   1990  MLR1990     0.2695
     25  C2C       30.8930   36.7760   -5.5990 C.3   1990  MLR1990     0.2406
     26  C3C       32.0350   37.3630   -6.4380 C.3   1990  MLR1990     0.2198
     27  C4C       31.8740   38.8810   -6.6200 C.3   1990  MLR1990     0.2144
     28  C5C       31.6520   39.5660   -5.2680 C.3   1990  MLR1990     0.1835
     29  C6C       31.3480   41.0480   -5.3990 C.3   1990  MLR1990     0.2142
     30  O2C       31.1830   35.4200   -5.2910 O.3   1990  MLR1990    -0.2149
     31  O3C       32.0610   36.7330   -7.7110 O.3   1990  MLR1990    -0.2174
     32  O4C       33.0370   39.4130   -7.2380 O.3   1990  MLR1990    -0.2176
     33  O5C       30.5350   38.9570   -4.5830 O.3   1990  MLR1990    -0.3256
     34  O6C       30.2140   41.2710   -6.2230 O.3   1990  MLR1990    -0.2176
@<TRIPOS>BOND
     1    31    26    1
     2    32    27    1
     3    27    26    1
     4    27    28    1
     5    26    25    1
     6    34    29    1
     7    25    30    1
     8    25    24    1
     9    29    28    1
    10    28    33    1
    11    33    24    1
    12    24    21    1
    13    21    16    1
    14    20    15    1
    15    16    15    1
    16    16    17    1
    17    15    14    1
    18    23    18    1
    19    18    17    1
    20    17    22    1
    21    14    19    1
    22    14    13    1
    23    22    13    1
    24    13    10    1
    25    10     4    1
    26     6     5    1
    27     6    12    1
    28     5     4    1
    29     5    11    1
    30     4     3    1
    31    11     1    1
    32     3     9    1
    33     3     2    1
    34     7     1    1
    35     1     2    1
    36     2     8    1
