@<TRIPOS>MOLECULE
1ua3_MAL_A_1.pdb
 23 24 0 0 0
SMALL
GASTEIGER

@<TRIPOS>ATOM
      1  C1        23.2010   13.9600   19.1090 C.3   1998  MAL1998     0.2695
      2  C2        23.1230   12.7150   19.9890 C.3   1998  MAL1998     0.2406
      3  C3        21.6530   12.3560   20.2350 C.3   1998  MAL1998     0.2198
      4  C4        20.9020   13.5600   20.8350 C.3   1998  MAL1998     0.2144
      5  C5        21.0950   14.8000   19.9470 C.3   1998  MAL1998     0.1835
      6  C6        20.4990   16.0660   20.5410 C.3   1998  MAL1998     0.2142
      7  O1        22.6780   13.6520   17.8480 O.3   1998  MAL1998    -0.3257
      8  O2        23.7810   11.6370   19.3400 O.3   1998  MAL1998    -0.2149
      9  O3        21.5720   11.2420   21.1140 O.3   1998  MAL1998    -0.2174
     10  O4        19.5160   13.2620   20.9500 O.3   1998  MAL1998    -0.2176
     11  O5        22.5070   15.0410   19.7300 O.3   1998  MAL1998    -0.3256
     12  O6        21.1120   16.4040   21.7780 O.3   1998  MAL1998    -0.2176
     13  C1'       24.0300   13.8920   13.9480 C.3   1998  MAL1998     0.3023
     14  C2'       25.1100   13.6050   14.9880 C.3   1998  MAL1998     0.2433
     15  C3'       24.4460   13.1370   16.2830 C.3   1998  MAL1998     0.2168
     16  C4'       23.3940   14.1600   16.7410 C.3   1998  MAL1998     0.1804
     17  C5'       22.4140   14.4510   15.5970 C.3   1998  MAL1998     0.1804
     18  C6'       21.3790   15.5130   15.9350 C.3   1998  MAL1998     0.2141
     19  O1'       24.6080   14.3540   12.7790 O.3   1998  MAL1998    -0.1869
     20  O2'       25.9900   12.6010   14.5000 O.3   1998  MAL1998    -0.2148
     21  O3'       25.4270   12.9560   17.2920 O.3   1998  MAL1998    -0.2175
     22  O5'       23.1440   14.9030   14.4400 O.3   1998  MAL1998    -0.3237
     23  O6'       20.5100   15.7610   14.8360 O.3   1998  MAL1998    -0.2176
@<TRIPOS>BOND
     1    19    13    1
     2    13    22    1
     3    13    14    1
     4    22    17    1
     5    20    14    1
     6    23    18    1
     7    14    15    1
     8    17    18    1
     9    17    16    1
    10    15    16    1
    11    15    21    1
    12    16     7    1
    13     7     1    1
    14     1    11    1
    15     1     2    1
    16     8     2    1
    17    11     5    1
    18     5     6    1
    19     5     4    1
    20     2     3    1
    21     3     4    1
    22     3     9    1
    23     6    12    1
    24     4    10    1
