@<TRIPOS>MOLECULE
1ua3_BGC_A_1.pdb
 12 12 0 0 0
SMALL
GASTEIGER

@<TRIPOS>ATOM
      1  C2        49.1800   52.8030    4.5750 C.3   1997  BGC1997     0.2434
      2  C3        48.0290   53.7310    4.9980 C.3   1997  BGC1997     0.2199
      3  C4        47.4450   53.3130    6.3610 C.3   1997  BGC1997     0.2144
      4  C5        48.5530   53.0740    7.4050 C.3   1997  BGC1997     0.1836
      5  C6        48.0230   52.4440    8.6790 C.3   1997  BGC1997     0.2142
      6  C1        50.2020   52.7110    5.7070 C.3   1997  BGC1997     0.3024
      7  O1        51.2450   51.8660    5.3500 O.3   1997  BGC1997    -0.1869
      8  O2        49.8060   53.3050    3.4020 O.3   1997  BGC1997    -0.2148
      9  O3        47.0040   53.7050    4.0150 O.3   1997  BGC1997    -0.2174
     10  O4        46.5630   54.3230    6.8340 O.3   1997  BGC1997    -0.2176
     11  O5        49.5680   52.1830    6.8810 O.3   1997  BGC1997    -0.3236
     12  O6        48.0910   53.3490    9.7710 O.3   1997  BGC1997    -0.2176
@<TRIPOS>BOND
     1     8     1    1
     2     9     2    1
     3     1     2    1
     4     1     6    1
     5     2     3    1
     6     7     6    1
     7     6    11    1
     8     3    10    1
     9     3     4    1
    10    11     4    1
    11     4     5    1
    12     5    12    1
