@<TRIPOS>MOLECULE
1ua4_BGC_A_1.pdb
 12 12 0 0 0
SMALL
GASTEIGER

@<TRIPOS>ATOM
      1  C2        15.1670   28.1720    8.1190 C.3   2457  BGC2457     0.2434
      2  C3        13.8270   27.8250    7.5600 C.3   2457  BGC2457     0.2199
      3  C4        13.6440   26.3180    7.4030 C.3   2457  BGC2457     0.2144
      4  C5        14.1760   25.5400    8.5430 C.3   2457  BGC2457     0.1836
      5  C6        14.2720   24.0030    8.2890 C.3   2457  BGC2457     0.2142
      6  C1        15.5760   27.4300    9.2020 C.3   2457  BGC2457     0.3024
      7  O1        16.8490   27.5910    9.2100 O.3   2457  BGC2457    -0.1869
      8  O2        15.4890   29.5540    8.2310 O.3   2457  BGC2457    -0.2148
      9  O3        13.4760   28.5490    6.3450 O.3   2457  BGC2457    -0.2174
     10  O4        12.2380   26.0940    7.3900 O.3   2457  BGC2457    -0.2176
     11  O5        15.4660   26.0520    8.8860 O.3   2457  BGC2457    -0.3236
     12  O6        14.8900   23.3290    9.3700 O.3   2457  BGC2457    -0.2176
@<TRIPOS>BOND
     1     9     2    1
     2    10     3    1
     3     3     2    1
     4     3     4    1
     5     2     1    1
     6     1     8    1
     7     1     6    1
     8     5     4    1
     9     5    12    1
    10     4    11    1
    11    11     6    1
    12     6     7    1
