@<TRIPOS>MOLECULE
1ua4_GLC_A_1.pdb
 12 12 0 0 0
SMALL
GASTEIGER

@<TRIPOS>ATOM
      1  C1        15.7350   27.3570    9.0600 C.3   1457  GLC1457     0.3024
      2  C2        15.2590   28.1800    7.8630 C.3   1457  GLC1457     0.2434
      3  C3        13.7970   27.8590    7.5580 C.3   1457  GLC1457     0.2199
      4  C4        13.5660   26.3450    7.4260 C.3   1457  GLC1457     0.2144
      5  C5        14.2050   25.5660    8.5860 C.3   1457  GLC1457     0.1836
      6  C6        14.2010   24.0680    8.3140 C.3   1457  GLC1457     0.2142
      7  O1        14.9460   27.6590   10.1580 O.3   1457  GLC1457    -0.1869
      8  O2        15.3810   29.5640    8.1560 O.3   1457  GLC1457    -0.2148
      9  O3        13.4250   28.5050    6.3470 O.3   1457  GLC1457    -0.2174
     10  O4        12.1660   26.0810    7.4120 O.3   1457  GLC1457    -0.2176
     11  O5        15.5870   25.9550    8.7780 O.3   1457  GLC1457    -0.3236
     12  O6        14.8670   23.3590    9.3490 O.3   1457  GLC1457    -0.2176
@<TRIPOS>BOND
     1     9     3    1
     2    10     4    1
     3     4     3    1
     4     4     5    1
     5     3     2    1
     6     2     8    1
     7     2     1    1
     8     6     5    1
     9     6    12    1
    10     5    11    1
    11    11     1    1
    12     1     7    1
