@<TRIPOS>MOLECULE
1ua4_AMP_A_1.pdb
 23 25 0 0 0
SMALL
GASTEIGER

@<TRIPOS>ATOM
      1  P         19.3020   18.8000    8.2670 P.3   1456  AMP1456     0.5327
      2  O1P       20.5460   19.0390    8.9920 O.3   1456  AMP1456    -0.1145
      3  O2P       19.2500   19.5300    6.9750 O.2   1456  AMP1456    -0.2224
      4  O3P       18.0840   19.0870    9.1180 O.3   1456  AMP1456    -0.1145
      5  O5'       19.3570   17.1880    7.9180 O.3   1456  AMP1456    -0.2675
      6  C5'       18.2480   16.5440    7.2100 C.3   1456  AMP1456     0.1860
      7  C4'       18.2510   15.1230    7.8030 C.3   1456  AMP1456     0.1823
      8  O4'       17.1430   14.2550    7.3520 O.3   1456  AMP1456    -0.3135
      9  C3'       19.6810   14.2410    7.5470 C.3   1456  AMP1456     0.2184
     10  O3'       20.6300   14.5090    8.6710 O.3   1456  AMP1456    -0.2174
     11  C2'       19.0940   12.7580    7.4710 C.3   1456  AMP1456     0.2570
     12  O2'       19.1060   12.1380    8.7400 O.3   1456  AMP1456    -0.2130
     13  C1'       17.5580   12.9210    7.0420 C.3   1456  AMP1456     0.3186
     14  N9        17.3040   12.5400    5.6290 N.pl3 1456  AMP1456    -0.1439
     15  C8        17.6880   13.1670    4.4320 C.3   1456  AMP1456     0.3377
     16  N7        17.3030   12.5620    3.2790 N.2   1456  AMP1456    -0.2095
     17  C5        16.6210   11.4610    3.8160 C.2   1456  AMP1456     0.2526
     18  C6        15.9440   10.3760    3.1840 C.2   1456  AMP1456     0.4393
     19  N6        15.9110   10.3180    1.8050 N.pl3 1456  AMP1456     0.2180
     20  N1        15.3610    9.4360    4.0430 N.2   1456  AMP1456     0.0021
     21  C2        15.4160    9.5250    5.3900 C.3   1456  AMP1456     0.5254
     22  N3        16.0350   10.5120    6.0700 N.2   1456  AMP1456    -0.0055
     23  C4        16.6080   11.4370    5.2350 C.2   1456  AMP1456     0.3518
@<TRIPOS>BOND
     1    19    18    1
     2    18    17    1
     3    18    20    2
     4    16    17    2
     5    16    15    1
     6    17    23    1
     7    20    21    1
     8    15    14    1
     9    23    14    1
    10    23    22    2
    11    21    22    1
    12    14    13    1
    13     3     1    2
    14    13     8    1
    15    13    11    1
    16     6     7    1
    17     6     5    1
    18     8     7    1
    19    11     9    1
    20    11    12    1
    21     9     7    1
    22     9    10    1
    23     5     1    1
    24     1     2    1
    25     1     4    1
