@<TRIPOS>MOLECULE
1ua5_GSH_A_1.pdb
 20 19 0 0 0
SMALL
GASTEIGER

@<TRIPOS>ATOM
      1  N1        18.9330   80.1040   10.0280 N.3   1002  GSH1002    -0.1208
      2  CA1       19.3480   80.5720    8.7090 C.3   1002  GSH1002     0.1948
      3  C1        18.1220   80.6650    7.8320 C.2   1002  GSH1002     0.3819
      4  O11       18.1790   81.3630    6.6110 O.co2 1002  GSH1002    -0.2441
      5  O12       16.9760   80.1190    8.1890 O.co2 1002  GSH1002    -0.2441
      6  CB1       20.4260   79.6330    8.1400 C.3   1002  GSH1002     0.0402
      7  CG1       21.3290   80.2710    7.0820 C.3   1002  GSH1002     0.0889
      8  CD1       22.1460   79.2100    6.3500 C.2   1002  GSH1002     0.2418
      9  OE1       22.7140   78.1660    7.1100 O.2   1002  GSH1002    -0.2733
     10  N2        22.2860   79.3590    5.0150 N.am  1002  GSH1002    -0.1968
     11  CA2       23.0060   78.4820    4.0880 C.3   1002  GSH1002     0.1843
     12  C2        24.1390   79.1090    3.2970 C.2   1002  GSH1002     0.2627
     13  O2        24.9450   78.2830    2.4890 O.2   1002  GSH1002    -0.2714
     14  CB2       22.0000   77.9650    3.0620 C.3   1002  GSH1002     0.0997
     15  SG2       21.2720   76.3740    3.4830 S.3   1002  GSH1002    -0.0797
     16  N3        24.3320   80.4270    3.3610 N.am  1002  GSH1002    -0.1917
     17  CA3       25.4000   81.0890    2.6220 C.3   1002  GSH1002     0.2285
     18  C3        26.3620   81.8120    3.5360 C.2   1002  GSH1002     0.3865
     19  O31       27.2040   82.8370    3.0660 O.co2 1002  GSH1002    -0.2437
     20  O32       26.4330   81.4790    4.7970 O.co2 1002  GSH1002    -0.2437
@<TRIPOS>BOND
     1    13    12    2
     2    17    16    1
     3    17    18    1
     4    14    15    1
     5    14    11    1
     6    19    18   ar
     7    12    16   am
     8    12    11    1
     9    18    20   ar
    10    11    10    1
    11    10     8   am
    12     8     7    1
    13     8     9    2
    14     4     3   ar
    15     7     6    1
    16     3     5   ar
    17     3     2    1
    18     6     2    1
    19     2     1    1
