@<TRIPOS>MOLECULE
1ua7_G6D_A_1.pdb
 10 10 0 0 0
SMALL
GASTEIGER

@<TRIPOS>ATOM
      1  C1       -17.5250   41.1720   29.4780 C.3   505  G6D505      0.3021
      2  O2       -19.4910   39.8120   28.8570 O.3   505  G6D505     -0.2149
      3  C2       -18.0950   40.0430   28.5630 C.3   505  G6D505      0.2409
      4  C3A      -17.2580   38.7430   28.7230 C.3   505  G6D505      0.1898
      5  O3A      -17.8130   37.7630   27.8330 O.3   505  G6D505     -0.2201
      6  C4A      -15.7330   39.0050   28.4430 C.3   505  G6D505      0.0653
      7  C5A      -15.2180   40.1110   29.4130 C.3   505  G6D505      0.1206
      8  O5       -16.0600   41.3320   29.2820 O.3   505  G6D505     -0.3290
      9  C6A      -13.7630   40.5600   29.2150 C.3   505  G6D505      0.0322
     10  O1       -17.7220   40.8990   30.8730 O.3   505  G6D505     -0.1869
@<TRIPOS>BOND
     1     5     4    1
     2     6     4    1
     3     6     7    1
     4     3     4    1
     5     3     2    1
     6     3     1    1
     7     9     7    1
     8     8     7    1
     9     8     1    1
    10     1    10    1
