@<TRIPOS>MOLECULE
1ua7_GLD_A_1.pdb
 10 10 0 0 0
SMALL
GASTEIGER

@<TRIPOS>ATOM
      1  C1        -9.4630   44.1560   23.0360 C.3   502  GLD502      0.3021
      2  C2        -9.1090   45.5470   23.6370 C.3   502  GLD502      0.2409
      3  C3       -10.3410   46.4980   23.4950 C.3   502  GLD502      0.1898
      4  C4       -10.7990   46.6360   21.9860 C.3   502  GLD502      0.0653
      5  C5       -11.1280   45.1820   21.4440 C.3   502  GLD502      0.1206
      6  C6       -11.5410   45.1000   19.9650 C.3   502  GLD502      0.0322
      7  O1       -10.5460   43.5340   23.7280 O.3   502  GLD502     -0.1869
      8  O2        -8.6990   45.4020   25.0160 O.3   502  GLD502     -0.2149
      9  O3        -9.9930   47.7530   24.0630 O.3   502  GLD502     -0.2201
     10  O5        -9.9390   44.3000   21.6370 O.3   502  GLD502     -0.3290
@<TRIPOS>BOND
     1     6     5    1
     2     5    10    1
     3     5     4    1
     4    10     1    1
     5     4     3    1
     6     1     2    1
     7     1     7    1
     8     3     2    1
     9     3     9    1
    10     2     8    1
