@<TRIPOS>MOLECULE
1ua7_ACI_A_1.pdb
 12 12 0 0 0
SMALL
GASTEIGER

@<TRIPOS>ATOM
      1  C1       -11.6520   48.8930   21.2980 C.3   501  ACI501      0.1249
      2  C2       -12.5130   49.9330   22.0720 C.3   501  ACI501      0.2020
      3  C3       -14.0280   49.8490   21.6270 C.3   501  ACI501      0.2137
      4  C4       -14.1830   50.1970   20.0950 C.3   501  ACI501      0.1872
      5  C5       -13.2270   49.3320   19.2000 C.3   501  ACI501      0.0676
      6  C6       -13.5950   49.0180   17.7450 C.3   501  ACI501      0.1847
      7  C7       -11.8120   48.9380   19.7260 C.3   501  ACI501      0.0270
      8  N1       -11.9600   47.5270   21.8300 N.3   501  ACI501     -0.1301
      9  O2       -12.3160   49.7070   23.4780 O.3   501  ACI501     -0.2188
     10  O3       -14.8610   50.7420   22.3590 O.3   501  ACI501     -0.2176
     11  O4       -15.5690   50.0610   19.7250 O.3   501  ACI501     -0.2202
     12  O6       -13.0070   49.9830   16.8760 O.3   501  ACI501     -0.2203
@<TRIPOS>BOND
     1    12     6    1
     2     6     5    1
     3     5     7    1
     4     5     4    1
     5    11     4    1
     6     7     1    1
     7     4     3    1
     8     1     8    1
     9     1     2    1
    10     3     2    1
    11     3    10    1
    12     2     9    1
