@<TRIPOS>MOLECULE
1ua7_BGC_A_1.pdb
 11 11 0 0 0
SMALL
GASTEIGER

@<TRIPOS>ATOM
      1  C2       -20.4330   42.2200   33.1820 C.3   506  BGC506      0.2409
      2  C3       -19.6190   41.2390   32.3030 C.3   506  BGC506      0.1899
      3  C4       -18.4350   41.9440   31.5520 C.3   506  BGC506      0.0681
      4  C5       -17.5410   42.6900   32.6000 C.3   506  BGC506      0.1534
      5  C6       -16.4470   43.5480   31.9210 C.3   506  BGC506      0.2116
      6  C1       -19.4610   42.8590   34.2070 C.3   506  BGC506      0.3022
      7  O1       -20.1980   43.7470   35.0470 O.3   506  BGC506     -0.1869
      8  O2       -21.4690   41.5270   33.8730 O.3   506  BGC506     -0.2149
      9  O3       -20.5140   40.5970   31.4120 O.3   506  BGC506     -0.2201
     10  O5       -18.3690   43.5580   33.4610 O.3   506  BGC506     -0.3263
     11  O6       -15.6160   44.1970   32.8910 O.3   506  BGC506     -0.2177
@<TRIPOS>BOND
     1     9     2    1
     2     3     2    1
     3     3     4    1
     4     5     4    1
     5     5    11    1
     6     2     1    1
     7     4    10    1
     8     1     8    1
     9     1     6    1
    10    10     6    1
    11     6     7    1
