@<TRIPOS>MOLECULE
1ua7_GLC_A_1.pdb
 11 11 0 0 0
SMALL
GASTEIGER

@<TRIPOS>ATOM
      1  C1       -10.4850   39.6730   25.7330 C.3   503  GLC503      0.3022
      2  C2        -9.9420   40.9040   26.4830 C.3   503  GLC503      0.2409
      3  C3       -10.4590   42.2280   25.8410 C.3   503  GLC503      0.1899
      4  C4       -10.1130   42.2890   24.3040 C.3   503  GLC503      0.0681
      5  C5       -10.7810   41.0170   23.6360 C.3   503  GLC503      0.1534
      6  C6       -10.5060   40.8460   22.1290 C.3   503  GLC503      0.2116
      7  O1       -11.8880   39.4800   25.9660 O.3   503  GLC503     -0.1869
      8  O2       -10.2720   40.8170   27.8860 O.3   503  GLC503     -0.2149
      9  O3        -9.9080   43.3340   26.5520 O.3   503  GLC503     -0.2201
     10  O5       -10.2630   39.7870   24.2900 O.3   503  GLC503     -0.3263
     11  O6        -9.1060   40.6450   21.9110 O.3   503  GLC503     -0.2177
@<TRIPOS>BOND
     1    11     6    1
     2     6     5    1
     3     5    10    1
     4     5     4    1
     5    10     1    1
     6     4     3    1
     7     1     7    1
     8     1     2    1
     9     3     2    1
    10     3     9    1
    11     2     8    1
