@<TRIPOS>MOLECULE
1uad_GNP_A_1.pdb
 32 34 0 0 0
SMALL
GASTEIGER

@<TRIPOS>ATOM
      1  PG       105.4930   58.1120   41.1890 P.3   200  GNP200      0.4884
      2  O1G      106.3970   57.0020   40.7190 O.3   200  GNP200     -0.1240
      3  O2G      104.8380   57.6730   42.4650 O.3   200  GNP200     -0.1240
      4  O3G      104.4540   58.5120   40.2030 O.2   200  GNP200     -0.2331
      5  N3B      106.6430   59.3960   41.4800 N.3   200  GNP200     -0.0163
      6  PB       106.2290   60.9340   42.0270 P.3   200  GNP200      0.4669
      7  O1B      105.4020   61.6330   41.0460 O.2   200  GNP200     -0.2351
      8  O2B      105.6880   60.8110   43.4040 O.3   200  GNP200     -0.1253
      9  O3A      107.6500   61.6760   42.1480 O.3   200  GNP200     -0.2360
     10  PA       108.5530   61.8650   43.4140 P.3   200  GNP200      0.2220
     11  O1A      107.8780   62.7150   44.4050 O.3   200  GNP200     -0.4370
     12  O2A      109.0070   60.4780   43.8160 O.2   200  GNP200     -0.5170
     13  O5'      109.7420   62.6360   42.8550 O.3   200  GNP200     -0.3111
     14  C5'      110.6360   62.0820   41.8610 C.3   200  GNP200      0.1813
     15  C4'      111.9840   62.7440   41.9810 C.3   200  GNP200      0.1799
     16  O4'      112.0020   64.0910   41.6720 O.3   200  GNP200     -0.3326
     17  C3'      112.5870   62.6470   43.4200 C.3   200  GNP200      0.2158
     18  O3'      113.9930   62.3050   43.3590 O.3   200  GNP200     -0.2175
     19  C2'      112.3740   64.0560   43.9890 C.3   200  GNP200      0.2310
     20  O2'      113.2770   64.4240   44.9910 O.3   200  GNP200     -0.2158
     21  C1'      112.5030   64.8850   42.7340 C.3   200  GNP200      0.2293
     22  N9       111.6730   66.1050   42.8150 N.pl3 200  GNP200     -0.2354
     23  C8       110.2190   66.0850   43.0420 C.3   200  GNP200      0.2246
     24  N7       109.7490   67.3030   43.0670 N.2   200  GNP200     -0.2322
     25  C5       110.9370   68.1620   42.8470 C.2   200  GNP200      0.2182
     26  C6       111.0230   69.6150   42.7760 C.1   200  GNP200      0.2372
     27  O6       110.1640   70.4190   42.8780 O.2   200  GNP200     -0.2069
     28  N1       112.3370   70.0280   42.5540 N.2   200  GNP200     -0.2485
     29  C2       113.3310   69.0750   42.4350 C.1   200  GNP200      0.2531
     30  N2       114.5880   69.7200   42.2110 N.pl3 200  GNP200     -0.0226
     31  N3       113.3380   67.7920   42.4830 N.2   200  GNP200     -0.3074
     32  C4       112.0510   67.3890   42.7030 C.2   200  GNP200      0.2300
@<TRIPOS>BOND
     1     4     1    2
     2     2     1    1
     3     7     6    2
     4     1     5    1
     5     1     3    1
     6     5     6    1
     7    16    15    1
     8    16    21    1
     9    14    15    1
    10    14    13    1
    11    15    17    1
    12     6     9    1
    13     6     8    1
    14     9    10    1
    15    30    29    1
    16    29    31    2
    17    29    28    2
    18    31    32    2
    19    28    26    2
    20    32    22    1
    21    32    25    1
    22    21    22    1
    23    21    19    1
    24    26    25    1
    25    26    27    2
    26    22    23    1
    27    25    24    2
    28    13    10    1
    29    23    24    1
    30    18    17    1
    31    10    12    2
    32    10    11    1
    33    17    19    1
    34    19    20    1
