@<TRIPOS>MOLECULE
1uae_UD1_A_1.pdb
 39 41 0 0 0
SMALL
GASTEIGER

@<TRIPOS>ATOM
      1  C1'       41.1420   19.8950   41.2750 C.3   420  UD1420      0.2633
      2  C2'       39.9220   20.2730   42.1240 C.3   420  UD1420      0.1845
      3  C3'       40.4140   20.9330   43.4200 C.3   420  UD1420      0.2094
      4  C4'       41.3950   20.0410   44.1760 C.3   420  UD1420      0.2136
      5  C5'       42.5490   19.6680   43.1980 C.3   420  UD1420      0.1834
      6  C6'       43.5530   18.7000   43.8160 C.3   420  UD1420      0.2142
      7  C7'       38.2820   20.7410   40.4340 C.2   420  UD1420      0.2420
      8  C8'       37.4340   21.7300   39.7260 C.3   420  UD1420      0.0964
      9  N2'       39.0150   21.2030   41.4210 N.am  420  UD1420     -0.1992
     10  O1'       41.8320   21.0990   40.9320 O.3   420  UD1420     -0.2864
     11  O3'       39.2430   21.2180   44.2040 O.3   420  UD1420     -0.2183
     12  O4'       41.9680   20.8020   45.2420 O.3   420  UD1420     -0.2176
     13  O5'       42.0240   19.0730   41.9980 O.3   420  UD1420     -0.3260
     14  O6'       42.8200   17.6650   44.4840 O.3   420  UD1420     -0.2176
     15  O7'       38.2810   19.5670   40.0800 O.2   420  UD1420     -0.2733
     16  N1        49.4750   22.0550   38.2630 N.am  420  UD1420     -0.1766
     17  C2        50.4220   22.4980   37.3710 C.1   420  UD1420      0.2845
     18  N3        50.0690   22.6250   36.1010 N.2   420  UD1420     -0.2452
     19  C4        48.9110   22.2780   35.5800 C.1   420  UD1420      0.2182
     20  C5        47.8680   21.7640   36.4760 C.2   420  UD1420      0.1242
     21  C6        48.1410   21.6470   37.7830 C.2   420  UD1420      0.0929
     22  O2        51.5690   22.8000   37.6580 O.2   420  UD1420     -0.1918
     23  O4        48.7270   22.3700   34.3780 O.2   420  UD1420     -0.2085
     24  C1B       49.7670   22.0580   39.6990 C.3   420  UD1420      0.2401
     25  C2B       48.8030   22.9210   40.5310 C.3   420  UD1420      0.2319
     26  O2'       49.2790   24.2740   40.5240 O.3   420  UD1420     -0.2157
     27  C3B       48.8410   22.2270   41.9060 C.3   420  UD1420      0.2158
     28  C4B       49.1030   20.7550   41.5200 C.3   420  UD1420      0.1799
     29  O4B       49.6590   20.7530   40.2140 O.3   420  UD1420     -0.3320
     30  O3B       49.9900   22.7080   42.5890 O.3   420  UD1420     -0.2175
     31  C5B       47.7960   19.9110   41.3950 C.3   420  UD1420      0.1813
     32  O5B       46.6800   20.6070   40.8130 O.3   420  UD1420     -0.3112
     33  PA        45.5080   19.8650   40.1220 P.3   420  UD1420      0.2189
     34  O1A       45.6450   18.4330   40.5490 O.3   420  UD1420     -0.4371
     35  O2A       45.6430   19.9980   38.6800 O.2   420  UD1420     -0.5170
     36  O3A       44.2680   20.5030   40.6220 O.3   420  UD1420     -0.2703
     37  PB        43.0030   21.0280   39.8950 P.3   420  UD1420      0.2208
     38  O1B       42.6420   20.1760   38.7390 O.2   420  UD1420     -0.5170
     39  O2B       43.2020   22.4550   39.5290 O.3   420  UD1420     -0.4371
@<TRIPOS>BOND
     1    23    19    2
     2    19    18    2
     3    19    20    1
     4    18    17    2
     5    20    21    2
     6    17    22    2
     7    17    16   am
     8    21    16    1
     9    16    24    1
    10    35    33    2
    11    38    37    2
    12    39    37    1
    13    24    29    1
    14    24    25    1
    15     8     7    1
    16    37    36    1
    17    37    10    1
    18    15     7    2
    19    33    34    1
    20    33    36    1
    21    33    32    1
    22    29    28    1
    23     7     9   am
    24    26    25    1
    25    25    27    1
    26    32    31    1
    27    10     1    1
    28     1    13    1
    29     1     2    1
    30    31    28    1
    31     9     2    1
    32    28    27    1
    33    27    30    1
    34    13     5    1
    35     2     3    1
    36     5     6    1
    37     5     4    1
    38     3     4    1
    39     3    11    1
    40     6    14    1
    41     4    12    1
