@<TRIPOS>MOLECULE
1uag_UMA_A_1.pdb
 49 51 0 0 0
SMALL
GASTEIGER

@<TRIPOS>ATOM
      1  N1        50.4490    0.7530   11.3820 N.am  963  UMA963     -0.1766
      2  C2        51.2560    0.8090   10.2400 C.1   963  UMA963      0.2845
      3  N3        52.6190    0.8140   10.4800 N.2   963  UMA963     -0.2452
      4  C4        53.2090    1.0050   11.7340 C.1   963  UMA963      0.2182
      5  C5        52.3110    0.8860   12.8580 C.2   963  UMA963      0.1242
      6  C6        50.9900    0.7660   12.6500 C.2   963  UMA963      0.0929
      7  O2        50.8070    0.7920    9.0930 O.2   963  UMA963     -0.1918
      8  O4        54.3800    1.3460   11.8200 O.2   963  UMA963     -0.2085
      9  C1B       48.9840    0.5930   11.1730 C.3   963  UMA963      0.2401
     10  C2B       48.5630   -0.7630   11.6860 C.3   963  UMA963      0.2319
     11  O2'       48.7390   -1.8750   10.7280 O.3   963  UMA963     -0.2157
     12  C3B       47.1460   -0.6720   12.0910 C.3   963  UMA963      0.2158
     13  C4B       47.1470    0.7600   12.5890 C.3   963  UMA963      0.1799
     14  O4B       48.3130    1.3980   12.1020 O.3   963  UMA963     -0.3320
     15  O3B       46.4910   -0.8550   10.8070 O.3   963  UMA963     -0.2175
     16  C5B       47.1160    0.9230   14.0520 C.3   963  UMA963      0.1813
     17  O5B       48.2140    0.3290   14.6420 O.3   963  UMA963     -0.3112
     18  PA        48.8090    0.8510   16.0250 P.3   963  UMA963      0.2189
     19  O1A       49.6360   -0.2590   16.5180 O.3   963  UMA963     -0.4371
     20  O2A       49.4130    2.1210   15.8550 O.2   963  UMA963     -0.5170
     21  O3A       47.4550    0.9450   16.8870 O.3   963  UMA963     -0.2703
     22  PB        47.0330    1.9140   18.0970 P.3   963  UMA963      0.2208
     23  O1B       46.3750    3.1380   17.6730 O.2   963  UMA963     -0.5170
     24  O2B       48.0580    1.9610   19.1160 O.3   963  UMA963     -0.4371
     25  O1'       45.9440    0.8650   18.7410 O.3   963  UMA963     -0.2864
     26  C1'       46.2360   -0.3810   19.3560 C.3   963  UMA963      0.2632
     27  C2'       45.2050   -1.3880   18.9870 C.3   963  UMA963      0.1813
     28  N2'       45.1520   -1.6110   17.5370 N.am  963  UMA963     -0.1994
     29  C7'       45.7610   -2.6600   16.9840 C.2   963  UMA963      0.2420
     30  O7'       46.1530   -3.5990   17.6600 O.2   963  UMA963     -0.2733
     31  C8'       45.8420   -2.7450   15.4720 C.3   963  UMA963      0.0964
     32  C3'       43.8800   -0.8680   19.4900 C.3   963  UMA963      0.1733
     33  O3'       42.8550   -1.8540   19.2330 O.3   963  UMA963     -0.3449
     34  C4'       43.9500   -0.6540   20.9950 C.3   963  UMA963      0.2103
     35  O4'       42.7140   -0.2080   21.5020 O.3   963  UMA963     -0.2178
     36  C5'       45.0360    0.3350   21.3350 C.3   963  UMA963      0.1833
     37  O5'       46.2890   -0.1440   20.7690 O.3   963  UMA963     -0.3260
     38  C6'       45.2790    0.3880   22.8210 C.3   963  UMA963      0.2142
     39  O6'       45.7560   -0.8770   23.2510 O.3   963  UMA963     -0.2176
     40  C18       41.8550   -1.8030   18.2120 C.3   963  UMA963      0.1926
     41  C19       41.8670   -2.9460   17.2450 C.2   963  UMA963      0.2690
     42  O18       41.4410   -2.8210   16.1170 O.2   963  UMA963     -0.2707
     43  C20       40.5580   -1.1210   18.6700 C.3   963  UMA963      0.0421
     44  N4        42.4970   -4.0350   17.6720 N.am  963  UMA963     -0.1936
     45  C21       42.4300   -5.3240   16.9980 C.3   963  UMA963      0.1979
     46  C22       41.2020   -6.1880   17.3830 C.2   963  UMA963      0.3842
     47  O19       40.6140   -5.9240   18.4620 O.co2 963  UMA963     -0.2437
     48  O20       40.9020   -7.1640   16.6520 O.co2 963  UMA963     -0.2437
     49  C23       43.7160   -6.1200   17.2310 C.3   963  UMA963      0.0356
@<TRIPOS>BOND
     1     7     2    2
     2     2     3    2
     3     2     1   am
     4     3     4    2
     5    11    10    1
     6    15    12    1
     7     9     1    1
     8     9    10    1
     9     9    14    1
    10     1     6    1
    11    10    12    1
    12     4     8    2
    13     4     5    1
    14    12    13    1
    15    14    13    1
    16    13    16    1
    17     6     5    2
    18    16    17    1
    19    17    18    1
    20    31    29    1
    21    20    18    2
    22    18    19    1
    23    18    21    1
    24    42    41    2
    25    48    46   ar
    26    21    22    1
    27    29    28   am
    28    29    30    2
    29    45    49    1
    30    45    46    1
    31    45    44    1
    32    41    44   am
    33    41    40    1
    34    46    47   ar
    35    28    27    1
    36    23    22    2
    37    22    25    1
    38    22    24    1
    39    40    43    1
    40    40    33    1
    41    25    26    1
    42    27    26    1
    43    27    32    1
    44    33    32    1
    45    26    37    1
    46    32    34    1
    47    37    36    1
    48    34    36    1
    49    34    35    1
    50    36    38    1
    51    38    39    1
