@<TRIPOS>MOLECULE
1uak_SAM_A_1.pdb
 27 29 0 0 0
SMALL
GASTEIGER

@<TRIPOS>ATOM
      1  N        -31.6940   70.4930 -132.4450 N.3   301  SAM301     -0.1208
      2  CA       -30.2450   70.7530 -132.5630 C.3   301  SAM301      0.1952
      3  C        -29.4840   69.4850 -132.9680 C.2   301  SAM301      0.3819
      4  O        -30.0020   68.7740 -133.8490 O.co2 301  SAM301     -0.2441
      5  OXT      -28.2370   69.4510 -132.6550 O.co2 301  SAM301     -0.2441
      6  CB       -29.7790   71.3810 -131.2560 C.3   301  SAM301      0.0414
      7  CG       -28.7160   72.4180 -131.4940 C.3   301  SAM301      0.0503
      8  SD       -28.0380   73.0750 -129.9620 S.3   301  SAM301     -0.1761
      9  CE       -29.1450   74.4530 -129.6390 C.3   301  SAM301      0.0590
     10  C5'      -26.5680   73.9800 -130.3740 C.3   301  SAM301      0.0806
     11  C4'      -25.2530   73.2250 -130.3190 C.3   301  SAM301      0.1622
     12  O4'      -24.9910   72.7450 -128.9530 O.3   301  SAM301     -0.3153
     13  C3'      -25.2450   71.9860 -131.2400 C.3   301  SAM301      0.2168
     14  O3'      -23.9930   71.9680 -131.9480 O.3   301  SAM301     -0.2175
     15  C2'      -25.2720   70.8100 -130.2740 C.3   301  SAM301      0.2569
     16  O2'      -24.8660   69.5190 -130.6990 O.3   301  SAM301     -0.2130
     17  C1'      -24.7100   71.3620 -128.9440 C.3   301  SAM301      0.3185
     18  N9       -25.3220   70.7160 -127.7840 N.pl3 301  SAM301     -0.1439
     19  C8       -26.5340   70.9820 -127.1950 C.3   301  SAM301      0.3377
     20  N7       -26.9060   70.1100 -126.2990 N.2   301  SAM301     -0.2095
     21  C5       -25.8050   69.2690 -126.1930 C.2   301  SAM301      0.2526
     22  C6       -25.5500   68.0990 -125.4180 C.2   301  SAM301      0.4393
     23  N6       -26.4620   67.6140 -124.5480 N.pl3 301  SAM301      0.2180
     24  N1       -24.3310   67.4640 -125.5210 N.2   301  SAM301      0.0021
     25  C2       -23.4510   67.9100 -126.4550 C.3   301  SAM301      0.5254
     26  N3       -23.6230   68.9610 -127.2960 N.2   301  SAM301     -0.0055
     27  C4       -24.8090   69.6270 -127.0960 C.2   301  SAM301      0.3518
@<TRIPOS>BOND
     1     4     3   ar
     2     3     5   ar
     3     3     2    1
     4     2     1    1
     5     2     6    1
     6    14    13    1
     7     7     6    1
     8     7     8    1
     9    13    11    1
    10    13    15    1
    11    16    15    1
    12    10    11    1
    13    10     8    1
    14    11    12    1
    15    15    17    1
    16     8     9    1
    17    12    17    1
    18    17    18    1
    19    18    19    1
    20    18    27    1
    21    26    27    2
    22    26    25    1
    23    19    20    1
    24    27    21    1
    25    25    24    1
    26    20    21    2
    27    21    22    1
    28    24    22    2
    29    22    23    1
