@<TRIPOS>MOLECULE
1ual_SAH_A_1.pdb
 26 28 0 0 0
SMALL
GASTEIGER

@<TRIPOS>ATOM
      1  N        -31.7490   70.9150 -132.3720 N.3   301  SAH301     -0.1208
      2  CA       -30.2900   70.5930 -132.0910 C.3   301  SAH301      0.1952
      3  CB       -29.6050   71.3280 -130.9920 C.3   301  SAH301      0.0422
      4  CG       -28.7640   72.5400 -131.3090 C.3   301  SAH301      0.0597
      5  SD       -28.0760   73.0570 -129.6880 S.3   301  SAH301     -0.1375
      6  C        -30.2290   69.0510 -131.7770 C.2   301  SAH301      0.3819
      7  O        -31.0440   68.5570 -130.9730 O.co2 301  SAH301     -0.2441
      8  OXT      -29.2230   68.4270 -132.2930 O.co2 301  SAH301     -0.2441
      9  C5'      -26.6780   74.0210 -130.1320 C.3   301  SAH301      0.0899
     10  C4'      -25.3350   73.1560 -130.1380 C.3   301  SAH301      0.1630
     11  O4'      -25.0340   72.7450 -128.7940 O.3   301  SAH301     -0.3153
     12  C3'      -25.2290   71.9930 -131.0650 C.3   301  SAH301      0.2168
     13  O3'      -23.9870   71.9720 -131.7540 O.3   301  SAH301     -0.2175
     14  C2'      -25.4130   70.8050 -130.0630 C.3   301  SAH301      0.2569
     15  O2'      -24.8970   69.5830 -130.5640 O.3   301  SAH301     -0.2130
     16  C1'      -24.8120   71.2750 -128.7180 C.3   301  SAH301      0.3185
     17  N9       -25.4170   70.7660 -127.6490 N.pl3 301  SAH301     -0.1439
     18  C8       -26.6090   71.0520 -127.0190 C.3   301  SAH301      0.3377
     19  N7       -26.9790   70.2030 -126.1190 N.2   301  SAH301     -0.2095
     20  C5       -25.8630   69.3380 -125.9870 C.2   301  SAH301      0.2526
     21  C6       -25.6880   68.1280 -125.2300 C.2   301  SAH301      0.4393
     22  N6       -26.5550   67.7210 -124.2960 N.pl3 301  SAH301      0.2180
     23  N1       -24.4570   67.5280 -125.3640 N.2   301  SAH301      0.0021
     24  C2       -23.5240   67.9280 -126.2770 C.3   301  SAH301      0.5254
     25  N3       -23.6930   69.0430 -127.0680 N.2   301  SAH301     -0.0055
     26  C4       -24.8800   69.6870 -126.8890 C.2   301  SAH301      0.3518
@<TRIPOS>BOND
     1     1     2    1
     2     8     6   ar
     3     2     6    1
     4     2     3    1
     5     6     7   ar
     6    13    12    1
     7     4     3    1
     8     4     5    1
     9    12    10    1
    10    12    14    1
    11    15    14    1
    12    10     9    1
    13    10    11    1
    14     9     5    1
    15    14    16    1
    16    11    16    1
    17    16    17    1
    18    17    18    1
    19    17    26    1
    20    25    26    2
    21    25    24    1
    22    18    19    1
    23    26    20    1
    24    24    23    1
    25    19    20    2
    26    20    21    1
    27    23    21    2
    28    21    22    1
