@<TRIPOS>MOLECULE
1uam_SAH_A_1.pdb
 26 28 0 0 0
SMALL
GASTEIGER

@<TRIPOS>ATOM
      1  N        -30.3890   69.7700 -134.9460 N.3   301  SAH301     -0.1208
      2  CA       -29.2590   69.1920 -134.1000 C.3   301  SAH301      0.1952
      3  CB       -28.7520   69.9800 -132.9330 C.3   301  SAH301      0.0422
      4  CG       -28.4330   71.4520 -133.0900 C.3   301  SAH301      0.0597
      5  SD       -27.8300   72.0300 -131.4440 S.3   301  SAH301     -0.1375
      6  C        -29.7590   67.7760 -133.6110 C.2   301  SAH301      0.3819
      7  O        -30.9330   67.6520 -133.2140 O.co2 301  SAH301     -0.2441
      8  OXT      -28.9730   66.7900 -133.8830 O.co2 301  SAH301     -0.2441
      9  C5'      -26.3850   72.9430 -131.8180 C.3   301  SAH301      0.0899
     10  C4'      -25.0960   72.0250 -131.7190 C.3   301  SAH301      0.1630
     11  O4'      -24.7380   71.8820 -130.3490 O.3   301  SAH301     -0.3153
     12  C3'      -25.0540   70.6840 -132.3680 C.3   301  SAH301      0.2168
     13  O3'      -24.6300   70.8290 -133.7130 O.3   301  SAH301     -0.2175
     14  C2'      -23.9700   69.9820 -131.4820 C.3   301  SAH301      0.2569
     15  O2'      -22.6490   70.2540 -131.9590 O.3   301  SAH301     -0.2130
     16  C1'      -24.2330   70.5210 -130.0610 C.3   301  SAH301      0.3185
     17  N9       -25.0350   69.8220 -129.2630 N.pl3 301  SAH301     -0.1439
     18  C8       -26.2720   70.0930 -128.6960 C.3   301  SAH301      0.3377
     19  N7       -26.6620   69.2850 -127.7660 N.2   301  SAH301     -0.2095
     20  C5       -25.5760   68.3850 -127.6350 C.2   301  SAH301      0.2526
     21  C6       -25.3850   67.2640 -126.7560 C.2   301  SAH301      0.4393
     22  N6       -26.4030   66.6980 -126.1110 N.pl3 301  SAH301      0.2180
     23  N1       -24.1840   66.6010 -126.9090 N.2   301  SAH301      0.0021
     24  C2       -23.1990   67.0110 -127.7600 C.3   301  SAH301      0.5254
     25  N3       -23.3640   68.0620 -128.6300 N.2   301  SAH301     -0.0055
     26  C4       -24.5650   68.7030 -128.5140 C.2   301  SAH301      0.3518
@<TRIPOS>BOND
     1     1     2    1
     2     2     6    1
     3     2     3    1
     4     8     6   ar
     5    13    12    1
     6     6     7   ar
     7     4     3    1
     8     4     5    1
     9    12    10    1
    10    12    14    1
    11    15    14    1
    12     9    10    1
    13     9     5    1
    14    10    11    1
    15    14    16    1
    16    11    16    1
    17    16    17    1
    18    17    18    1
    19    17    26    1
    20    18    19    1
    21    25    26    2
    22    25    24    1
    23    26    20    1
    24    19    20    2
    25    24    23    1
    26    20    21    1
    27    23    21    2
    28    21    22    1
