@<TRIPOS>MOLECULE
1uas_GLA_A_1.pdb
 12 12 0 0 0
SMALL
GASTEIGER

@<TRIPOS>ATOM
      1  C1        12.0490    7.6290   29.5320 C.3   1501  GLA1501     0.3024
      2  C2        12.6160    7.1790   28.1810 C.3   1501  GLA1501     0.2434
      3  C3        12.6800    8.3860   27.2510 C.3   1501  GLA1501     0.2199
      4  C4        11.2710    8.9320   27.0850 C.3   1501  GLA1501     0.2144
      5  C5        10.7210    9.3300   28.4640 C.3   1501  GLA1501     0.1836
      6  C6         9.2820    9.8150   28.3800 C.3   1501  GLA1501     0.2142
      7  O1        12.8550    8.6130   30.0800 O.3   1501  GLA1501    -0.1869
      8  O2        13.9050    6.6130   28.3540 O.3   1501  GLA1501    -0.2148
      9  O3        13.2060    8.0020   25.9890 O.3   1501  GLA1501    -0.2174
     10  O4        10.4350    7.9530   26.4820 O.3   1501  GLA1501    -0.2176
     11  O5        10.7250    8.1760   29.3520 O.3   1501  GLA1501    -0.3236
     12  O6         8.7260   10.0080   29.6740 O.3   1501  GLA1501    -0.2176
@<TRIPOS>BOND
     1     9     3    1
     2    10     4    1
     3     4     3    1
     4     4     5    1
     5     3     2    1
     6     2     8    1
     7     2     1    1
     8     6     5    1
     9     6    12    1
    10     5    11    1
    11    11     1    1
    12     1     7    1
