@<TRIPOS>MOLECULE
1uay_ADN_A_1.pdb
 19 21 0 0 0
SMALL
GASTEIGER

@<TRIPOS>ATOM
      1  O5'       29.6080    4.9170    6.2710 O.3   1001  ADN1001    -0.2176
      2  C5'       29.2350    3.8800    5.3600 C.3   1001  ADN1001     0.2143
      3  C4'       28.5900    4.6010    4.1530 C.3   1001  ADN1001     0.1851
      4  O4'       29.7850    5.3360    3.7300 O.3   1001  ADN1001    -0.3134
      5  C3'       28.4490    3.5230    3.0630 C.3   1001  ADN1001     0.2186
      6  O3'       27.0740    3.6350    2.6300 O.3   1001  ADN1001    -0.2174
      7  C2'       29.4240    3.8810    1.9200 C.3   1001  ADN1001     0.2570
      8  O2'       28.9660    3.6490    0.5880 O.3   1001  ADN1001    -0.2130
      9  C1'       29.7950    5.3160    2.3210 C.3   1001  ADN1001     0.3186
     10  N9        31.0720    5.8520    1.8160 N.pl3 1001  ADN1001    -0.1439
     11  C8        32.3590    5.2780    1.9900 C.3   1001  ADN1001     0.3377
     12  N7        33.3390    5.9600    1.4660 N.2   1001  ADN1001    -0.2095
     13  C5        32.6990    7.0700    0.9070 C.2   1001  ADN1001     0.2526
     14  C6        33.1710    8.2430    0.1750 C.2   1001  ADN1001     0.4393
     15  N6        34.4610    8.4440   -0.1050 N.pl3 1001  ADN1001     0.2180
     16  N1        32.2260    9.1830   -0.2490 N.2   1001  ADN1001     0.0021
     17  C2        30.8900    9.0030    0.0210 C.3   1001  ADN1001     0.5254
     18  N3        30.3360    7.9420    0.7040 N.2   1001  ADN1001    -0.0055
     19  C4        31.2950    7.0170    1.1130 C.2   1001  ADN1001     0.3518
@<TRIPOS>BOND
     1    16    17    1
     2    16    14    2
     3    15    14    1
     4    17    18    1
     5    14    13    1
     6     8     7    1
     7    18    19    2
     8    13    19    1
     9    13    12    2
    10    19    10    1
    11    12    11    1
    12    10    11    1
    13    10     9    1
    14     7     9    1
    15     7     5    1
    16     9     4    1
    17     6     5    1
    18     5     3    1
    19     4     3    1
    20     3     2    1
    21     2     1    1
