@<TRIPOS>MOLECULE
1uaz_RET_A_1.pdb
 20 20 0 0 0
SMALL
GASTEIGER

@<TRIPOS>ATOM
      1  C1        92.6220   21.4010    8.0110 C.3   255  RET255      0.0183
      2  C2        93.5690   20.3800    8.7660 C.3   255  RET255      0.0044
      3  C3        95.0120   20.5840    8.6900 C.3   255  RET255      0.0047
      4  C4        95.5610   20.8970    7.2900 C.3   255  RET255      0.0217
      5  C5        94.7660   21.9190    6.4480 C.2   255  RET255     -0.0479
      6  C6        93.3470   22.2110    6.7460 C.2   255  RET255     -0.0307
      7  C7        92.5810   23.2880    5.8620 C.2   255  RET255     -0.0052
      8  C8        91.2690   23.6460    6.0270 C.2   255  RET255     -0.0049
      9  C9        90.5630   24.6730    5.2870 C.2   255  RET255     -0.0258
     10  C10       89.2620   24.8210    5.6300 C.2   255  RET255     -0.0257
     11  C11       88.3110   25.7550    5.1010 C.3   255  RET255      0.0510
     12  C12       87.0920   25.6320    5.6170 C.2   255  RET255     -0.0299
     13  C13       85.9250   26.4400    5.2890 C.2   255  RET255     -0.0478
     14  C14       84.7550   26.0710    5.9660 C.3   255  RET255      0.0217
     15  C15       83.4060   26.6510    5.8650 C.3   255  RET255      0.0047
     16  C16       91.4020   20.4940    7.6280 C.3   255  RET255      0.0043
     17  C17       92.2500   22.3190    9.1770 C.3   255  RET255      0.0043
     18  C18       95.4970   22.6230    5.2920 C.3   255  RET255      0.0260
     19  C19       91.2380   25.5260    4.2110 C.3   255  RET255      0.0307
     20  C20       86.0040   27.5720    4.2810 C.3   255  RET255      0.0260
@<TRIPOS>BOND
     1    19     9    1
     2    20    13    1
     3    11    12    1
     4    11    10    1
     5     9    10    2
     6     9     8    1
     7    13    12    2
     8    13    14    1
     9    18     5    1
    10     7     8    2
    11     7     6    1
    12    15    14    1
    13     5     6    2
    14     5     4    1
    15     6     1    1
    16     4     3    1
    17    16     1    1
    18     1     2    1
    19     1    17    1
    20     3     2    1
