@<TRIPOS>MOLECULE
1ub2_HEM_A_1.pdb
 43 50 0 0 0
SMALL
GASTEIGER

@<TRIPOS>ATOM
      1  CHA       46.8610    6.5240  -83.9380 C.2   721  HEM721      0.0000
      2  CHB       46.4110   10.7740  -81.6850 C.2   721  HEM721      0.0000
      3  CHC       43.0720    8.8710  -78.8890 C.2   721  HEM721      0.0000
      4  CHD       43.4950    4.6640  -81.0590 C.2   721  HEM721      0.0000
      5  C1A       47.0070    7.8900  -83.6500 C.ar  721  HEM721      0.0000
      6  C2A       47.8260    8.8890  -84.3900 C.ar  721  HEM721      0.0000
      7  C3A       47.7040   10.0370  -83.6970 C.ar  721  HEM721      0.0000
      8  C4A       46.7840    9.8030  -82.6340 C.ar  721  HEM721      0.0000
      9  CMA       48.3940   11.3620  -84.0600 C.3   721  HEM721      0.0000
     10  CAA       48.6880    8.7870  -85.6550 C.3   721  HEM721      0.0000
     11  CBA       48.2460    7.6480  -86.5920 C.3   721  HEM721      0.0000
     12  CGA       48.9940    7.6600  -87.9220 C.2   721  HEM721      0.0000
     13  O1A       49.7820    8.5820  -88.1930 O.co2 721  HEM721      0.0000
     14  O2A       48.7890    6.7730  -88.7100 O.co2 721  HEM721      0.0000
     15  C1B       45.5090   10.6070  -80.6610 C.2   721  HEM721      0.0000
     16  C2B       45.1530   11.6640  -79.7390 C.2   721  HEM721      0.0000
     17  C3B       44.1750   11.0920  -78.9260 C.2   721  HEM721      0.0000
     18  C4B       43.9860    9.7620  -79.3720 C.2   721  HEM721      0.0000
     19  CMB       45.7620   13.1000  -79.6870 C.3   721  HEM721      0.0000
     20  CAB       43.4500   11.7230  -77.7690 C.3   721  HEM721      0.0000
     21  CBB       43.3840   10.8660  -76.4370 C.3   721  HEM721      0.0000
     22  C1C       42.8740    7.5930  -79.2500 C.ar  721  HEM721      0.0000
     23  C2C       41.8680    6.7580  -78.6430 C.ar  721  HEM721      0.0000
     24  C3C       41.9650    5.5510  -79.2720 C.ar  721  HEM721      0.0000
     25  C4C       43.0550    5.6870  -80.2370 C.ar  721  HEM721      0.0000
     26  CMC       40.9190    7.2050  -77.5200 C.3   721  HEM721      0.0000
     27  CAC       40.9120    4.4330  -79.2680 C.3   721  HEM721      0.0000
     28  CBC       40.3640    3.9190  -77.9630 C.3   721  HEM721      0.0000
     29  C1D       44.4970    4.7630  -81.9910 C.2   721  HEM721      0.0000
     30  C2D       44.9590    3.6600  -82.7880 C.2   721  HEM721      0.0000
     31  C3D       45.9360    4.1780  -83.5960 C.2   721  HEM721      0.0000
     32  C4D       46.0320    5.6120  -83.2810 C.2   721  HEM721      0.0000
     33  CMD       44.4540    2.2300  -82.7230 C.3   721  HEM721      0.0000
     34  CAD       46.7650    3.3870  -84.6200 C.3   721  HEM721      0.0000
     35  CBD       46.6500    3.5880  -86.0990 C.3   721  HEM721      0.0000
     36  CGD       47.4530    2.5410  -86.8590 C.2   721  HEM721      0.0000
     37  O1D       47.3620    2.5170  -88.0860 O.co2 721  HEM721      0.0000
     38  O2D       48.1880    1.7230  -86.2400 O.co2 721  HEM721      0.0000
     39  NA        46.3420    8.4940  -82.6060 N.ar  721  HEM721      0.0000
     40  NB        44.8270    9.4380  -80.4390 N.2   721  HEM721      0.0000
     41  NC        43.5760    6.9660  -80.2300 N.ar  721  HEM721      0.0000
     42  ND        45.1860    5.9570  -82.2560 N.2   721  HEM721      0.0000
     43 FE         45.0300    7.7390  -81.3770 Fe    721  HEM721      0.0000
@<TRIPOS>BOND
     1    14    12   ar
     2    13    12   ar
     3    37    36   ar
     4    12    11    1
     5    36    38   ar
     6    36    35    1
     7    11    10    1
     8    35    34    1
     9    10     6    1
    10    34    31    1
    11     6     7   ar
    12     6     5   ar
    13     9     7    1
    14     1     5    2
    15     1    32    1
    16     7     8   ar
    17     5    39   ar
    18    31    32    1
    19    31    30    2
    20    32    42    2
    21    30    33    1
    22    30    29    1
    23     8    39   ar
    24     8     2    2
    25    39    43    1
    26    42    29    1
    27    42    43    1
    28    29     4    2
    29     2    15    1
    30    43    40    1
    31    43    41    1
    32     4    25    1
    33    15    40    2
    34    15    16    1
    35    40    18    1
    36    25    41   ar
    37    25    24   ar
    38    41    22   ar
    39    16    19    1
    40    16    17    2
    41    18    17    1
    42    18     3    2
    43    24    27    1
    44    24    23   ar
    45    27    28    1
    46    22     3    1
    47    22    23   ar
    48    17    20    1
    49    23    26    1
    50    20    21    1
