@<TRIPOS>MOLECULE
1ub5_SPB_B_1.pdb
 23 24 0 0 0
SMALL
GASTEIGER

@<TRIPOS>ATOM
      1  C1        44.5520   36.7000   60.7340 C.ar  701  SPB701      0.0000
      2  C2        45.8680   36.1720   60.7050 C.ar  701  SPB701      0.0000
      3  C3        46.9850   37.0290   60.8710 C.ar  701  SPB701      0.0000
      4  C4        46.7920   38.4200   61.0680 C.ar  701  SPB701      0.0000
      5  C5        45.4760   38.9580   61.1020 C.ar  701  SPB701      0.0000
      6  C6        44.3350   38.0960   60.9360 C.ar  701  SPB701      0.0000
      7  C7        42.8920   38.5990   60.9590 C.2   701  SPB701      0.0000
      8  C8        42.6260   39.9090   61.2370 C.2   701  SPB701      0.0000
      9  C9        41.1800   40.4100   61.2770 C.ar  701  SPB701      0.0001
     10  C10       40.9000   41.7440   61.6900 C.ar  701  SPB701      0.0013
     11  C11       39.5660   42.1980   61.7390 C.ar  701  SPB701      0.0166
     12  C12       38.4860   41.3320   61.3680 C.ar  701  SPB701      0.0734
     13  C13       38.7690   39.9990   60.9400 C.ar  701  SPB701      0.0166
     14  C14       40.0990   39.5400   60.8950 C.ar  701  SPB701      0.0013
     15  N15       37.1450   41.8690   61.4510 N.am  701  SPB701     -0.1792
     16  C16       36.5740   42.9930   60.9860 C.2   701  SPB701      0.2456
     17  C17       35.0950   43.1910   61.3220 C.3   701  SPB701      0.0878
     18  C18       34.1450   42.7490   60.1930 C.3   701  SPB701      0.0214
     19  C19       33.2960   43.9160   59.6580 C.3   701  SPB701      0.1146
     20  C20       31.9630   44.0800   60.3900 C.2   701  SPB701      0.3649
     21  O21       32.1250   44.3890   61.7200 O.co2 701  SPB701     -0.2457
     22  O22       37.1790   43.8460   60.3360 O.2   701  SPB701     -0.2730
     23  O23       30.8750   43.9500   59.8360 O.co2 701  SPB701     -0.2457
@<TRIPOS>BOND
     1    19    18    1
     2    19    20    1
     3    23    20   ar
     4    18    17    1
     5    22    16    2
     6    20    21   ar
     7     2     1   ar
     8     2     3   ar
     9     1     6   ar
    10     3     4   ar
    11    14    13   ar
    12    14     9   ar
    13     6     7    1
    14     6     5   ar
    15    13    12   ar
    16     7     8    2
    17    16    17    1
    18    16    15   am
    19     4     5   ar
    20     8     9    1
    21     9    10   ar
    22    12    15    1
    23    12    11   ar
    24    10    11   ar
