@<TRIPOS>MOLECULE
1ubb_HEM_A_1.pdb
 43 50 0 0 0
SMALL
GASTEIGER

@<TRIPOS>ATOM
      1 FE        -90.5020  -11.7150  -87.9180 Fe    300  HEM300      0.0000
      2  CHA      -89.0160   -8.7070  -87.1870 C.2   300  HEM300      0.0000
      3  CHB      -88.8800  -11.7100  -90.9600 C.2   300  HEM300      0.0000
      4  CHC      -91.9070  -14.7020  -88.6300 C.2   300  HEM300      0.0000
      5  CHD      -92.3490  -11.5260  -85.0610 C.2   300  HEM300      0.0000
      6  NA       -89.1890  -10.4500  -88.8920 N.ar  300  HEM300      0.0000
      7  C1A      -88.6770   -9.2590  -88.4260 C.ar  300  HEM300      0.0000
      8  C2A      -87.7650   -8.6680  -89.3900 C.ar  300  HEM300      0.0000
      9  C3A      -87.8180   -9.4600  -90.5060 C.ar  300  HEM300      0.0000
     10  C4A      -88.6540  -10.6090  -90.1510 C.ar  300  HEM300      0.0000
     11  CMA      -87.1660   -9.2560  -91.8490 C.3   300  HEM300      0.0000
     12  CAA      -86.9150   -7.4080  -89.1620 C.3   300  HEM300      0.0000
     13  CBA      -87.6330   -6.0540  -89.4870 C.3   300  HEM300      0.0000
     14  CGA      -87.1720   -4.8940  -88.7860 C.2   300  HEM300      0.0000
     15  O1A      -87.9960   -3.8940  -88.7610 O.co2 300  HEM300      0.0000
     16  O2A      -86.0540   -4.8020  -88.2220 O.co2 300  HEM300      0.0000
     17  NB       -90.4770  -12.8980  -89.5060 N.2   300  HEM300      0.0000
     18  C1B      -89.8040  -12.7300  -90.7020 C.2   300  HEM300      0.0000
     19  C2B      -90.1750  -13.7560  -91.6600 C.2   300  HEM300      0.0000
     20  C3B      -90.9160  -14.6650  -90.9730 C.2   300  HEM300      0.0000
     21  C4B      -91.1410  -14.1010  -89.6410 C.2   300  HEM300      0.0000
     22  CMB      -89.7640  -13.7600  -93.1170 C.3   300  HEM300      0.0000
     23  CAB      -91.3960  -16.0130  -91.4310 C.3   300  HEM300      0.0000
     24  CBB      -92.8820  -16.0120  -91.8110 C.3   300  HEM300      0.0000
     25  NC       -91.8120  -12.8850  -87.0000 N.ar  300  HEM300      0.0000
     26  C1C      -92.2710  -14.1330  -87.4410 C.ar  300  HEM300      0.0000
     27  C2C      -93.1700  -14.7350  -86.4620 C.ar  300  HEM300      0.0000
     28  C3C      -93.2350  -13.8530  -85.4380 C.ar  300  HEM300      0.0000
     29  C4C      -92.4610  -12.6920  -85.8120 C.ar  300  HEM300      0.0000
     30  CMC      -93.8310  -16.1010  -86.6190 C.3   300  HEM300      0.0000
     31  CAC      -93.9300  -14.0440  -84.0730 C.3   300  HEM300      0.0000
     32  CBC      -95.4730  -14.2010  -84.1910 C.3   300  HEM300      0.0000
     33  ND       -90.6170  -10.3940  -86.3910 N.2   300  HEM300      0.0000
     34  C1D      -91.4120  -10.5030  -85.2680 C.2   300  HEM300      0.0000
     35  C2D      -91.1550   -9.4060  -84.3280 C.2   300  HEM300      0.0000
     36  C3D      -90.2930   -8.5800  -84.9760 C.2   300  HEM300      0.0000
     37  C4D      -89.9380   -9.2270  -86.2520 C.2   300  HEM300      0.0000
     38  CMD      -91.7700   -9.3130  -82.9570 C.3   300  HEM300      0.0000
     39  CAD      -89.7290   -7.2420  -84.5760 C.3   300  HEM300      0.0000
     40  CBD      -88.2960   -7.3580  -83.8980 C.3   300  HEM300      0.0000
     41  CGD      -87.8030   -6.1030  -83.5080 C.2   300  HEM300      0.0000
     42  O1D      -87.7690   -5.7950  -82.2750 O.co2 300  HEM300      0.0000
     43  O2D      -87.3950   -5.2730  -84.3610 O.co2 300  HEM300      0.0000
@<TRIPOS>BOND
     1    22    19    1
     2    11     9    1
     3    24    23    1
     4    19    20    2
     5    19    18    1
     6    23    20    1
     7    20    21    1
     8     3    18    1
     9     3    10    2
    10    18    17    2
    11     9    10   ar
    12     9     8   ar
    13    10     6   ar
    14    21    17    1
    15    21     4    2
    16    17     1    1
    17    13    12    1
    18    13    14    1
    19     8    12    1
    20     8     7   ar
    21     6     7   ar
    22     6     1    1
    23    14    15   ar
    24    14    16   ar
    25     4    26    1
    26     7     2    2
    27     1    25    1
    28     1    33    1
    29    26    25   ar
    30    26    27   ar
    31     2    37    1
    32    25    29   ar
    33    30    27    1
    34    27    28   ar
    35    33    37    2
    36    33    34    1
    37    37    36    1
    38    29    28   ar
    39    29     5    1
    40    28    31    1
    41    34     5    2
    42    34    35    1
    43    36    39    1
    44    36    35    2
    45    39    40    1
    46    43    41   ar
    47    35    38    1
    48    32    31    1
    49    40    41    1
    50    41    42   ar
