@<TRIPOS>MOLECULE
1ube_ADP_A_1.pdb
 27 29 0 0 0
SMALL
GASTEIGER

@<TRIPOS>ATOM
      1  PB        78.6020    8.6290    6.3750 P.3   503  ADP503      0.5373
      2  O1B       77.3490    8.2080    5.6470 O.2   503  ADP503     -0.2221
      3  O2B       78.6950    9.8670    7.1180 O.3   503  ADP503     -0.1143
      4  O3B       79.5480    7.4460    6.7670 O.3   503  ADP503     -0.1143
      5  PA        76.3910    8.1080    8.3650 P.3   503  ADP503      0.2231
      6  O1A       75.5880    9.1970    7.7310 O.2   503  ADP503     -0.5169
      7  O2A       76.3290    7.4150    9.6350 O.3   503  ADP503     -0.4370
      8  O3A       77.9340    8.0850    7.7260 O.3   503  ADP503     -0.2261
      9  O5'       76.8050    9.4210    9.2610 O.3   503  ADP503     -0.3111
     10  C5'       77.7310    9.3820   10.3990 C.3   503  ADP503      0.1813
     11  C4'       77.1150    9.8340   11.7210 C.3   503  ADP503      0.1821
     12  O4'       75.6490    9.5520   11.6960 O.3   503  ADP503     -0.3135
     13  C3'       77.5780    9.0830   12.9660 C.3   503  ADP503      0.2184
     14  O3'       78.7510    9.7110   13.5500 O.3   503  ADP503     -0.2174
     15  C2'       76.3530    9.1430   13.9530 C.3   503  ADP503      0.2570
     16  O2'       76.3810   10.3730   14.7550 O.3   503  ADP503     -0.2130
     17  C1'       75.1620    9.1550   12.9980 C.3   503  ADP503      0.3186
     18  N9        74.4560    7.7830   12.8720 N.pl3 503  ADP503     -0.1439
     19  C8        74.3170    7.0730   11.7670 C.3   503  ADP503      0.3377
     20  N7        73.6860    5.9770   11.9340 N.2   503  ADP503     -0.2095
     21  C5        73.3570    5.9530   13.2810 C.2   503  ADP503      0.2526
     22  C6        72.6350    5.0200   14.1400 C.2   503  ADP503      0.4393
     23  N6        72.0880    3.8440   13.6760 N.pl3 503  ADP503      0.2180
     24  N1        72.5100    5.3320   15.4650 N.2   503  ADP503      0.0021
     25  C2        73.0400    6.4630   15.9270 C.3   503  ADP503      0.5254
     26  N3        73.7090    7.3970   15.1990 N.2   503  ADP503     -0.0055
     27  C4        73.8460    7.0760   13.8840 C.2   503  ADP503      0.3518
@<TRIPOS>BOND
     1     2     1    2
     2     1     4    1
     3     1     3    1
     4     1     8    1
     5     8     5    1
     6     6     5    2
     7     5     9    1
     8     5     7    1
     9     9    10    1
    10    10    11    1
    11    12    11    1
    12    12    17    1
    13    11    13    1
    14    19    20    1
    15    19    18    1
    16    20    21    2
    17    18    17    1
    18    18    27    1
    19    13    14    1
    20    13    15    1
    21    17    15    1
    22    21    27    1
    23    21    22    1
    24    23    22    1
    25    27    26    2
    26    15    16    1
    27    22    24    2
    28    26    25    1
    29    24    25    1
