@<TRIPOS>MOLECULE
1ubf_AGS_A_1.pdb
 31 33 0 0 0
SMALL
GASTEIGER

@<TRIPOS>ATOM
      1  PG         6.7490   23.3930   -7.1760 P.3   430  AGS430      0.4340
      2  S1G        8.5150   24.2150   -7.6680 S.3   430  AGS430      0.0416
      3  O2G        6.0810   23.3760   -5.7370 O.3   430  AGS430     -0.1305
      4  O3G        5.7560   23.1880   -8.3200 O.2   430  AGS430     -0.2423
      5  PB         4.8830   25.7760   -7.0560 P.3   430  AGS430      0.2262
      6  O1B        4.0390   25.6310   -8.2730 O.2   430  AGS430     -0.5168
      7  O2B        4.9270   26.8280   -5.9950 O.3   430  AGS430     -0.4369
      8  O3B        6.2630   24.9940   -7.2610 O.3   430  AGS430     -0.2405
      9  PA         6.5430   26.9430   -9.2890 P.3   430  AGS430      0.2189
     10  O1A        6.4710   25.6010  -10.0080 O.2   430  AGS430     -0.5170
     11  O2A        7.9530   27.3340   -8.8760 O.3   430  AGS430     -0.4371
     12  O3A        5.6140   26.9220   -7.9350 O.3   430  AGS430     -0.2701
     13  O5'        5.8290   28.1550  -10.1180 O.3   430  AGS430     -0.3112
     14  C5'        4.9120   27.6580  -11.1220 C.3   430  AGS430      0.1813
     15  C4'        4.8810   28.4100  -12.4610 C.3   430  AGS430      0.1821
     16  O4'        6.1050   29.1980  -12.7620 O.3   430  AGS430     -0.3135
     17  C3'        4.6100   27.5420  -13.7280 C.3   430  AGS430      0.2184
     18  O3'        3.3460   27.8480  -14.3410 O.3   430  AGS430     -0.2174
     19  C2'        5.8650   27.7370  -14.6650 C.3   430  AGS430      0.2570
     20  O2'        5.6040   27.9430  -16.0590 O.3   430  AGS430     -0.2130
     21  C1'        6.6530   28.8710  -14.0650 C.3   430  AGS430      0.3186
     22  N9         8.1740   28.6890  -14.0260 N.pl3 430  AGS430     -0.1439
     23  C8         8.8970   28.3450  -12.8780 C.3   430  AGS430      0.3377
     24  N7        10.2360   28.2420  -13.0520 N.2   430  AGS430     -0.2095
     25  C5        10.4220   28.5190  -14.4260 C.2   430  AGS430      0.2526
     26  C6        11.6110   28.5990  -15.3380 C.2   430  AGS430      0.4393
     27  N6        12.9050   28.3780  -14.9540 N.pl3 430  AGS430      0.2180
     28  N1        11.3810   28.9220  -16.6850 N.2   430  AGS430      0.0021
     29  C2        10.0910   29.1590  -17.1260 C.3   430  AGS430      0.5254
     30  N3         8.9280   29.1180  -16.3870 N.2   430  AGS430     -0.0055
     31  C4         9.1470   28.7930  -15.0330 C.2   430  AGS430      0.3518
@<TRIPOS>BOND
     1    29    28    1
     2    29    30    1
     3    28    26    2
     4    30    31    2
     5    20    19    1
     6    26    27    1
     7    26    25    1
     8    31    25    1
     9    31    22    1
    10    19    21    1
    11    19    17    1
    12    25    24    2
    13    18    17    1
    14    21    22    1
    15    21    16    1
    16    22    23    1
    17    17    15    1
    18    24    23    1
    19    16    15    1
    20    15    14    1
    21    14    13    1
    22    13     9    1
    23    10     9    2
    24     9    11    1
    25     9    12    1
    26     4     1    2
    27     6     5    2
    28    12     5    1
    29     2     1    1
    30     8     1    1
    31     8     5    1
    32     1     3    1
    33     5     7    1
