@<TRIPOS>MOLECULE
1ubg_DTP_A_1.pdb
 30 32 0 0 0
SMALL
GASTEIGER

@<TRIPOS>ATOM
      1  PG         5.6650   23.2940   -6.7710 P.3   350  DTP350      0.5373
      2  O1G        7.1110   23.4720   -6.4940 O.3   350  DTP350     -0.1143
      3  O2G        5.1190   22.7380   -5.6150 O.3   350  DTP350     -0.1143
      4  O3G        5.4420   22.3960   -8.0190 O.2   350  DTP350     -0.2221
      5  PB         5.2670   26.2220   -6.8620 P.3   350  DTP350      0.2277
      6  O1B        6.7540   26.3040   -6.6420 O.2   350  DTP350     -0.5168
      7  O2B        4.4330   26.8670   -5.9720 O.3   350  DTP350     -0.4368
      8  O3B        4.8080   24.7180   -6.9350 O.3   350  DTP350     -0.2258
      9  PA         6.0740   27.3920   -9.3520 P.3   350  DTP350      0.2189
     10  O1A        6.5800   28.5390   -8.5890 O.3   350  DTP350     -0.4371
     11  O2A        7.0690   26.4790   -9.8460 O.2   350  DTP350     -0.5170
     12  O3A        4.9770   26.8310   -8.3200 O.3   350  DTP350     -0.2700
     13  O5'        5.2940   27.8960  -10.4980 O.3   350  DTP350     -0.3112
     14  C5'        4.6500   27.0580  -11.4840 C.3   350  DTP350      0.1813
     15  C4'        4.5410   27.7150  -12.8660 C.3   350  DTP350      0.1795
     16  O4'        5.6000   28.6810  -13.0350 O.3   350  DTP350     -0.3155
     17  C3'        4.6490   26.7680  -14.0440 C.3   350  DTP350      0.1883
     18  O3'        3.4610   26.8220  -14.8000 O.3   350  DTP350     -0.2202
     19  C2'        5.8600   27.1940  -14.8480 C.3   350  DTP350      0.1151
     20  C1'        6.4000   28.4190  -14.1520 C.3   350  DTP350      0.2873
     21  N9         7.7710   28.2560  -13.6670 N.pl3 350  DTP350     -0.1460
     22  C8         8.3900   27.7600  -12.5660 C.3   350  DTP350      0.3377
     23  N7         9.6970   27.8370  -12.6010 N.2   350  DTP350     -0.2095
     24  C5         9.9550   28.4140  -13.8140 C.2   350  DTP350      0.2526
     25  C6        11.1800   28.7870  -14.4970 C.2   350  DTP350      0.4393
     26  N6        12.3910   28.5990  -13.9870 N.pl3 350  DTP350      0.2180
     27  N1        11.0900   29.3720  -15.7450 N.2   350  DTP350      0.0021
     28  C2         9.8660   29.5680  -16.2840 C.3   350  DTP350      0.5254
     29  N3         8.6650   29.2640  -15.7300 N.2   350  DTP350     -0.0055
     30  C4         8.7830   28.6840  -14.4930 C.2   350  DTP350      0.3518
@<TRIPOS>BOND
     1    28    27    1
     2    28    29    1
     3    27    25    2
     4    29    30    2
     5    19    20    1
     6    19    17    1
     7    18    17    1
     8    25    26    1
     9    25    24    1
    10    30    24    1
    11    30    21    1
    12    20    21    1
    13    20    16    1
    14    17    15    1
    15    24    23    2
    16    21    22    1
    17    16    15    1
    18    15    14    1
    19    23    22    1
    20    14    13    1
    21    13     9    1
    22    11     9    2
    23     9    10    1
    24     9    12    1
    25    12     5    1
    26     4     1    2
    27     8     5    1
    28     8     1    1
    29     5     6    2
    30     5     7    1
    31     1     2    1
    32     1     3    1
