@<TRIPOS>MOLECULE
1ubs_PLP_B_1.pdb
 15 15 0 0 0
SMALL
GASTEIGER

@<TRIPOS>ATOM
      1  N1        84.7330   13.1180   11.5390 N.ar  401  PLP401     -0.2452
      2  C2        84.5580   13.9000   10.4820 C.ar  401  PLP401      0.0978
      3  C2A       85.5840   13.9790    9.4110 C.3   401  PLP401      0.0555
      4  C3        83.3690   14.6520   10.4100 C.ar  401  PLP401      0.2049
      5  O3        83.0290   15.4700    9.4440 O.3   401  PLP401     -0.2857
      6  C4        82.4650   14.5950   11.4760 C.ar  401  PLP401      0.0182
      7  C4A       81.1580   15.2840   11.3820 C.3   401  PLP401      0.0342
      8  C5        82.6820   13.7680   12.5400 C.ar  401  PLP401      0.0261
      9  C6        83.8720   13.0270   12.5850 C.ar  401  PLP401      0.0965
     10  C5A       81.7330   13.7570   13.7150 C.3   401  PLP401      0.1815
     11  O4P       80.5400   12.9690   13.5780 O.3   401  PLP401     -0.2653
     12  P         80.2680   11.5660   13.9630 P.3   401  PLP401      0.5329
     13  O1P       78.9490   11.3790   13.4920 O.2   401  PLP401     -0.2224
     14  O2P       80.1630   11.6550   15.5800 O.3   401  PLP401     -0.1145
     15  O3P       80.9780   10.3370   13.6410 O.3   401  PLP401     -0.1145
@<TRIPOS>BOND
     1     3     2    1
     2     5     4    1
     3     4     2   ar
     4     4     6   ar
     5     2     1   ar
     6     7     6    1
     7     6     8   ar
     8     1     9   ar
     9     8     9   ar
    10     8    10    1
    11    13    12    2
    12    11    10    1
    13    11    12    1
    14    15    12    1
    15    12    14    1
