@<TRIPOS>MOLECULE
1ubw_GPP_A_1.pdb
 19 18 0 0 0
SMALL
GASTEIGER

@<TRIPOS>ATOM
      1  C1         5.1200   30.7520  102.4970 C.3   401  GPP401      0.1747
      2  O1         5.2190   30.9850  103.8920 O.3   401  GPP401     -0.3089
      3  C2         4.1250   31.6510  101.8060 C.2   401  GPP401     -0.0024
      4  C3         4.3480   32.1180  100.5670 C.2   401  GPP401     -0.0454
      5  C4         5.6480   31.6780   99.9050 C.3   401  GPP401      0.0261
      6  C5         3.2880   32.9810   99.8610 C.3   401  GPP401      0.0264
      7  C6         2.7490   34.3010  100.4050 C.3   401  GPP401      0.0297
      8  C7         1.6760   34.8500   99.5000 C.2   401  GPP401     -0.0342
      9  C8         1.2250   36.0830   99.7380 C.2   401  GPP401     -0.0478
     10  C9         1.8760   36.7940  100.9200 C.3   401  GPP401      0.0260
     11  C10        0.1280   36.5820   98.7750 C.3   401  GPP401      0.0260
     12  PA         4.8730   29.9970  105.1460 P.3   401  GPP401      0.2233
     13  O1A        3.4750   30.5260  105.8380 O.3   401  GPP401     -0.4370
     14  O2A        4.9050   28.4400  104.8910 O.2   401  GPP401     -0.5169
     15  O3A        6.0010   30.2150  106.2010 O.3   401  GPP401     -0.2261
     16  PB         7.4970   29.8630  105.9400 P.3   401  GPP401      0.5373
     17  O1B        8.7840   29.5280  105.0320 O.2   401  GPP401     -0.2221
     18  O2B        7.9120   31.3250  106.3990 O.3   401  GPP401     -0.1143
     19  O3B        7.8660   28.8090  107.0770 O.3   401  GPP401     -0.1143
@<TRIPOS>BOND
     1    11     9    1
     2     8     9    2
     3     8     7    1
     4     9    10    1
     5     6     7    1
     6     6     4    1
     7     5     4    1
     8     4     3    2
     9     3     1    1
    10     1     2    1
    11     2    12    1
    12    14    12    2
    13    17    16    2
    14    12    13    1
    15    12    15    1
    16    16    15    1
    17    16    18    1
    18    16    19    1
