@<TRIPOS>MOLECULE
1ubx_FPP_A_1.pdb
 24 23 0 0 0
SMALL
GASTEIGER

@<TRIPOS>ATOM
      1  C1         5.5810   31.4420  103.1490 C.3   401  FPP401      0.1747
      2  O1         4.9860   30.2180  103.6330 O.3   401  FPP401     -0.3089
      3  C2         4.6400   32.2570  102.2840 C.2   401  FPP401     -0.0024
      4  C3         4.6260   32.2750  100.9340 C.2   401  FPP401     -0.0454
      5  C4         5.6240   31.4360  100.1120 C.3   401  FPP401      0.0261
      6  C5         3.6170   33.1490  100.2400 C.3   401  FPP401      0.0264
      7  C6         2.8290   34.0480  101.2230 C.3   401  FPP401      0.0297
      8  C7         1.7330   34.9420  100.6080 C.2   401  FPP401     -0.0342
      9  C8         1.3090   36.1880  100.9800 C.2   401  FPP401     -0.0478
     10  C10        1.9490   36.9390  102.1740 C.3   401  FPP401      0.0260
     11  C9         0.1640   36.8420  100.1830 C.3   401  FPP401      0.0263
     12  C11        0.6200   37.9870   99.2290 C.3   401  FPP401      0.0297
     13  C12        1.0860   37.5660   97.8290 C.2   401  FPP401     -0.0342
     14  C13        1.9520   38.2120   96.9770 C.2   401  FPP401     -0.0478
     15  C14        2.3030   37.7550   95.5770 C.3   401  FPP401      0.0260
     16  C15        2.6250   39.5310   97.2980 C.3   401  FPP401      0.0260
     17  PA         4.9920   29.8000  105.2050 P.3   401  FPP401      0.2233
     18  O1A        3.6990   30.3010  105.9340 O.3   401  FPP401     -0.4370
     19  O2A        5.1910   28.2760  105.0800 O.2   401  FPP401     -0.5169
     20  O3A        6.0160   30.4830  106.1250 O.3   401  FPP401     -0.2261
     21  PB         7.5010   30.0680  105.9950 P.3   401  FPP401      0.5373
     22  O1B        7.7490   28.5660  106.1160 O.3   401  FPP401     -0.1143
     23  O2B        8.1590   30.7090  107.1950 O.3   401  FPP401     -0.1143
     24  O3B        8.2830   30.3990  104.7280 O.2   401  FPP401     -0.2221
@<TRIPOS>BOND
     1    15    14    1
     2    14    16    1
     3    14    13    2
     4    13    12    1
     5    12    11    1
     6     5     4    1
     7    11     9    1
     8     6     4    1
     9     6     7    1
    10     8     9    2
    11     8     7    1
    12     4     3    2
    13     9    10    1
    14     3     1    1
    15     1     2    1
    16     2    17    1
    17    24    21    2
    18    19    17    2
    19    17    18    1
    20    17    20    1
    21    21    22    1
    22    21    20    1
    23    21    23    1
