@<TRIPOS>MOLECULE
1uby_DMA_A_1.pdb
 14 13 0 0 0
SMALL
GASTEIGER

@<TRIPOS>ATOM
      1  C1         4.7370   31.2640  103.0840 C.3   401  DMA401      0.1747
      2  O1         4.7030   29.9620  103.6810 O.3   401  DMA401     -0.3089
      3  C2         5.3980   31.1190  101.7450 C.2   401  DMA401     -0.0024
      4  C3         4.9050   31.5860  100.6020 C.2   401  DMA401     -0.0454
      5  C4         3.6370   32.3760  100.5960 C.3   401  DMA401      0.0261
      6  C5         5.7600   31.2920   99.3340 C.3   401  DMA401      0.0261
      7  PA         4.5750   29.7150  105.2780 P.3   401  DMA401      0.2233
      8  O1A        3.4630   30.6810  105.9090 O.3   401  DMA401     -0.4370
      9  O2A        4.0960   28.1760  105.3410 O.2   401  DMA401     -0.5169
     10  O3A        5.9060   30.0160  106.1320 O.3   401  DMA401     -0.2261
     11  PB         7.3870   29.7260  105.7020 P.3   401  DMA401      0.5373
     12  O1B        8.2290   28.8540  106.7470 O.3   401  DMA401     -0.1143
     13  O2B        8.0810   31.1460  105.4130 O.3   401  DMA401     -0.1143
     14  O3B        7.2160   28.8750  104.3640 O.2   401  DMA401     -0.2221
@<TRIPOS>BOND
     1     6     4    1
     2     5     4    1
     3     4     3    2
     4     3     1    1
     5     1     2    1
     6     2     7    1
     7    14    11    2
     8     7     9    2
     9     7     8    1
    10     7    10    1
    11    13    11    1
    12    11    10    1
    13    11    12    1
