@<TRIPOS>MOLECULE
1ubz_GAL_A_1.pdb
 11 11 0 0 0
SMALL
GASTEIGER

@<TRIPOS>ATOM
      1  C1        17.4760    3.9700   35.9260 C.3   131  GAL131      0.1777
      2  C2        18.8990    3.5930   36.3100 C.3   131  GAL131      0.2141
      3  C3        19.1060    3.5610   37.8220 C.3   131  GAL131      0.2173
      4  C4        18.5720    4.8510   38.4480 C.3   131  GAL131      0.2142
      5  C5        17.1200    5.0260   38.0350 C.3   131  GAL131      0.1810
      6  C6        16.4720    6.2490   38.6140 C.3   131  GAL131      0.2141
      7  O2        19.1930    2.3150   35.7600 O.3   131  GAL131     -0.2176
      8  O3        20.4960    3.4380   38.0880 O.3   131  GAL131     -0.2175
      9  O4        19.3500    5.9550   37.9890 O.3   131  GAL131     -0.2176
     10  O5        17.0460    5.1520   36.6110 O.3   131  GAL131     -0.3481
     11  O6        16.2390    6.0880   40.0030 O.3   131  GAL131     -0.2176
@<TRIPOS>BOND
     1     7     2    1
     2     1     2    1
     3     1    10    1
     4     2     3    1
     5    10     5    1
     6     3     8    1
     7     3     4    1
     8     9     4    1
     9     5     4    1
    10     5     6    1
    11     6    11    1
