@<TRIPOS>MOLECULE
1uc0_GAL_A_1.pdb
 11 11 0 0 0
SMALL
GASTEIGER

@<TRIPOS>ATOM
      1  C1         3.9660   25.8720   31.5460 C.3   130  GAL130      0.1777
      2  C2         3.5860   27.1790   32.2460 C.3   130  GAL130      0.2141
      3  C3         3.4270   26.9610   33.7440 C.3   130  GAL130      0.2173
      4  C4         2.4300   25.8230   33.9770 C.3   130  GAL130      0.2142
      5  C5         2.8680   24.5640   33.2080 C.3   130  GAL130      0.1810
      6  C6         1.9080   23.3910   33.3270 C.3   130  GAL130      0.2141
      7  O2         4.5810   28.1620   32.0100 O.3   130  GAL130     -0.2176
      8  O3         2.9510   28.1660   34.3380 O.3   130  GAL130     -0.2175
      9  O4         1.1480   26.2360   33.5360 O.3   130  GAL130     -0.2176
     10  O5         2.9880   24.8630   31.8070 O.3   130  GAL130     -0.3481
     11  O6         1.8160   22.9290   34.6680 O.3   130  GAL130     -0.2176
@<TRIPOS>BOND
     1     1    10    1
     2     1     2    1
     3    10     5    1
     4     7     2    1
     5     2     3    1
     6     5     6    1
     7     5     4    1
     8     6    11    1
     9     9     4    1
    10     3     4    1
    11     3     8    1
