@<TRIPOS>MOLECULE
1uc3_HEM_A_1.pdb
 43 50 0 0 0
SMALL
GASTEIGER

@<TRIPOS>ATOM
      1 FE         11.3090   -3.3900   -1.5820 Fe    150  HEM150      0.0000
      2  CHA        8.1830   -4.4960   -2.4330 C.2   150  HEM150      0.0000
      3  CHB       10.0240   -2.0080    1.2980 C.2   150  HEM150      0.0000
      4  CHC       14.3420   -1.9690   -0.8680 C.2   150  HEM150      0.0000
      5  CHD       12.4900   -4.4050   -4.6350 C.2   150  HEM150      0.0000
      6  NA         9.5060   -3.2820   -0.7590 N.2   150  HEM150      0.0000
      7  C1A        8.3340   -3.8650   -1.2020 C.2   150  HEM150      0.0000
      8  C2A        7.2770   -3.6530   -0.2360 C.2   150  HEM150      0.0000
      9  C3A        7.7520   -2.8890    0.7450 C.2   150  HEM150      0.0000
     10  C4A        9.1510   -2.6750    0.4400 C.2   150  HEM150      0.0000
     11  CMA        6.9140   -2.3290    1.9000 C.3   150  HEM150      0.0000
     12  CAA        5.8440   -4.1290   -0.2150 C.3   150  HEM150      0.0000
     13  CBA        5.7090   -5.6310   -0.2700 C.3   150  HEM150      0.0000
     14  CGA        4.2710   -6.0750   -0.1680 C.2   150  HEM150      0.0000
     15  O1A        3.3950   -5.3820   -0.7320 O.co2 150  HEM150      0.0000
     16  O2A        4.0220   -7.1200    0.4660 O.co2 150  HEM150      0.0000
     17  NB        12.0450   -2.2810   -0.0690 N.ar  150  HEM150      0.0000
     18  C1B       11.3820   -1.8290    1.0680 C.ar  150  HEM150      0.0000
     19  C2B       12.2780   -1.0890    1.9400 C.ar  150  HEM150      0.0000
     20  C3B       13.4950   -1.0660    1.3330 C.ar  150  HEM150      0.0000
     21  C4B       13.3420   -1.7900    0.0790 C.ar  150  HEM150      0.0000
     22  CMB       11.9380   -0.4610    3.2920 C.3   150  HEM150      0.0000
     23  CAB       14.6570   -0.4920    1.8400 C.2   150  HEM150      0.0000
     24  CBB       14.7980    0.8390    1.9300 C.2   150  HEM150      0.0000
     25  NC        13.0280   -3.2500   -2.5430 N.2   150  HEM150      0.0000
     26  C1C       14.2100   -2.6680   -2.0720 C.2   150  HEM150      0.0000
     27  C2C       15.2890   -2.8200   -3.0270 C.2   150  HEM150      0.0000
     28  C3C       14.7650   -3.4760   -4.0980 C.2   150  HEM150      0.0000
     29  C4C       13.3540   -3.7300   -3.7990 C.2   150  HEM150      0.0000
     30  CMC       16.7400   -2.3360   -2.8830 C.3   150  HEM150      0.0000
     31  CAC       15.4520   -3.8190   -5.2650 C.2   150  HEM150      0.0000
     32  CBC       16.5520   -4.5900   -5.2540 C.2   150  HEM150      0.0000
     33  ND        10.5210   -4.3070   -3.1760 N.ar  150  HEM150      0.0000
     34  C1D       11.1830   -4.7290   -4.3250 C.ar  150  HEM150      0.0000
     35  C2D       10.3110   -5.5180   -5.1800 C.ar  150  HEM150      0.0000
     36  C3D        9.0680   -5.4820   -4.6070 C.ar  150  HEM150      0.0000
     37  C4D        9.2060   -4.7250   -3.3540 C.ar  150  HEM150      0.0000
     38  CMD       10.7190   -6.3150   -6.4200 C.3   150  HEM150      0.0000
     39  CAD        7.8200   -6.1910   -5.1370 C.3   150  HEM150      0.0000
     40  CBD        6.9580   -5.3710   -6.0770 C.3   150  HEM150      0.0000
     41  CGD        5.7250   -6.1330   -6.5640 C.2   150  HEM150      0.0000
     42  O1D        5.8870   -7.1880   -7.2110 O.co2 150  HEM150      0.0000
     43  O2D        4.5920   -5.6760   -6.3000 O.co2 150  HEM150      0.0000
@<TRIPOS>BOND
     1    42    41   ar
     2    41    43   ar
     3    41    40    1
     4    38    35    1
     5    40    39    1
     6    31    32    2
     7    31    28    1
     8    35    36   ar
     9    35    34   ar
    10    39    36    1
    11     5    34    2
    12     5    29    1
    13    36    37   ar
    14    34    33   ar
    15    28    29    1
    16    28    27    2
    17    29    25    2
    18    37    33   ar
    19    37     2    2
    20    33     1    1
    21    27    30    1
    22    27    26    1
    23    25    26    1
    24    25     1    1
    25     2     7    1
    26    26     4    2
    27     1     6    1
    28     1    17    1
    29     7     6    2
    30     7     8    1
    31     4    21    1
    32     6    10    1
    33    15    14   ar
    34    13    12    1
    35    13    14    1
    36     8    12    1
    37     8     9    2
    38    14    16   ar
    39    17    21   ar
    40    17    18   ar
    41    21    20   ar
    42    10     9    1
    43    10     3    2
    44     9    11    1
    45    18     3    1
    46    18    19   ar
    47    20    23    1
    48    20    19   ar
    49    23    24    2
    50    19    22    1
