@<TRIPOS>MOLECULE
1uc9_ADP_A_1.pdb
 27 29 0 0 0
SMALL
GASTEIGER

@<TRIPOS>ATOM
      1  PB        -4.9620   -2.5350   31.1730 P.3   300  ADP300      0.5373
      2  O1B       -3.5680   -2.0780   30.9400 O.3   300  ADP300     -0.1143
      3  O2B       -5.1000   -4.1120   30.8760 O.2   300  ADP300     -0.2221
      4  O3B       -5.3890   -2.2350   32.5710 O.3   300  ADP300     -0.1143
      5  PA        -7.0600   -0.7410   30.3180 P.3   300  ADP300      0.2231
      6  O1A       -7.6690   -0.4590   29.0190 O.2   300  ADP300     -0.5169
      7  O2A       -8.1090   -1.1840   31.2400 O.3   300  ADP300     -0.4370
      8  O3A       -5.9420   -1.8410   30.1420 O.3   300  ADP300     -0.2261
      9  O5'       -6.3680    0.5550   30.9520 O.3   300  ADP300     -0.3111
     10  C5'       -4.9840    0.7490   31.2880 C.3   300  ADP300      0.1813
     11  C4'       -4.8170    2.1710   31.9290 C.3   300  ADP300      0.1821
     12  O4'       -6.1140    2.7950   32.0440 O.3   300  ADP300     -0.3135
     13  C3'       -4.2880    2.1020   33.3700 C.3   300  ADP300      0.2184
     14  O3'       -3.3810    3.1810   33.6830 O.3   300  ADP300     -0.2174
     15  C2'       -5.5490    2.1090   34.2260 C.3   300  ADP300      0.2570
     16  O2'       -5.3240    2.3860   35.6140 O.3   300  ADP300     -0.2130
     17  C1'       -6.4030    3.0970   33.4410 C.3   300  ADP300      0.3186
     18  N9        -7.9010    2.9500   33.6480 N.pl3 300  ADP300     -0.1439
     19  C8        -8.6830    2.0200   33.0550 C.3   300  ADP300      0.3377
     20  N7        -9.9360    2.1730   33.4420 N.2   300  ADP300     -0.2095
     21  C5       -10.0010    3.1760   34.2720 C.2   300  ADP300      0.2526
     22  C6       -11.0220    3.8200   35.0030 C.2   300  ADP300      0.4393
     23  N6       -12.2770    3.3940   34.9100 N.pl3 300  ADP300      0.2180
     24  N1       -10.7310    4.9020   35.8230 N.2   300  ADP300      0.0021
     25  C2        -9.4630    5.3820   35.9560 C.3   300  ADP300      0.5254
     26  N3        -8.4600    4.7710   35.2520 N.2   300  ADP300     -0.0055
     27  C4        -8.6800    3.6890   34.4170 C.2   300  ADP300      0.3518
@<TRIPOS>BOND
     1     6     5    2
     2     8     5    1
     3     8     1    1
     4     5     9    1
     5     5     7    1
     6     3     1    2
     7     2     1    1
     8     9    10    1
     9     1     4    1
    10    10    11    1
    11    11    12    1
    12    11    13    1
    13    12    17    1
    14    19    20    1
    15    19    18    1
    16    13    14    1
    17    13    15    1
    18    17    18    1
    19    17    15    1
    20    20    21    2
    21    18    27    1
    22    15    16    1
    23    21    27    1
    24    21    22    1
    25    27    26    2
    26    23    22    1
    27    22    24    2
    28    26    25    1
    29    24    25    1
