@<TRIPOS>MOLECULE
1uca_U2P_A_1.pdb
 21 22 0 0 0
SMALL
GASTEIGER

@<TRIPOS>ATOM
      1  O5'       28.6360   23.8990   37.1480 O.3   400  U2P400     -0.2176
      2  C5'       27.8310   25.0900   37.3410 C.3   400  U2P400      0.2142
      3  C4'       26.7220   25.1430   36.2810 C.3   400  U2P400      0.1828
      4  O4'       25.8840   26.3770   36.4810 O.3   400  U2P400     -0.3319
      5  C1'       25.8910   27.3640   35.3330 C.3   400  U2P400      0.2373
      6  N1        26.5050   28.7110   35.5970 N.am  400  U2P400     -0.1767
      7  C6        25.5780   29.6870   35.6770 C.2   400  U2P400      0.0929
      8  C5        25.9270   31.0270   35.9230 C.2   400  U2P400      0.1242
      9  C4        27.3430   31.3660   36.0980 C.1   400  U2P400      0.2182
     10  O4        27.7220   32.5060   36.3150 O.2   400  U2P400     -0.2085
     11  N3        28.2450   30.2870   35.9980 N.2   400  U2P400     -0.2452
     12  C2        27.9110   28.9490   35.7520 C.1   400  U2P400      0.2845
     13  O2        28.7940   28.1050   35.6900 O.2   400  U2P400     -0.1918
     14  C2'       26.3380   26.4400   34.1910 C.3   400  U2P400      0.2063
     15  O2'       25.1920   25.6970   33.6980 O.3   400  U2P400     -0.2656
     16  P         24.1370   26.2970   32.6930 P.3   400  U2P400      0.5327
     17  O1P       23.9930   26.0760   31.2570 O.2   400  U2P400     -0.2224
     18  O2P       22.9070   26.7080   33.4270 O.3   400  U2P400     -0.1145
     19  O3P       23.6370   24.9240   32.6710 O.3   400  U2P400     -0.1145
     20  C3'       27.2860   25.4390   34.8730 C.3   400  U2P400      0.2133
     21  O3'       27.2920   24.2030   34.0660 O.3   400  U2P400     -0.2176
@<TRIPOS>BOND
     1    17    16    2
     2    19    16    1
     3    16    18    1
     4    16    15    1
     5    15    14    1
     6    21    20    1
     7    14    20    1
     8    14     5    1
     9    20     3    1
    10     5     6    1
    11     5     4    1
    12     6     7    1
    13     6    12   am
    14     7     8    2
    15    13    12    2
    16    12    11    2
    17     8     9    1
    18    11     9    2
    19     9    10    2
    20     3     4    1
    21     3     2    1
    22     1     2    1
