@<TRIPOS>MOLECULE
1ucc_U3P_A_1.pdb
 21 22 0 0 0
SMALL
GASTEIGER

@<TRIPOS>ATOM
      1  N1        26.5120   28.7560   35.5520 N.am  300  U3P300     -0.1766
      2  C2        27.9140   28.9500   35.7610 C.1   300  U3P300      0.2845
      3  N3        28.2690   30.2710   36.0690 N.2   300  U3P300     -0.2452
      4  C4        27.3840   31.3650   36.1790 C.1   300  U3P300      0.2182
      5  C5        25.9680   31.0650   35.9450 C.2   300  U3P300      0.1242
      6  C6        25.6010   29.7460   35.6370 C.2   300  U3P300      0.0929
      7  O2        28.7750   28.0800   35.6930 O.2   300  U3P300     -0.1918
      8  O4        27.7730   32.4880   36.4500 O.2   300  U3P300     -0.2085
      9  P         24.5220   23.7560   33.8820 P.3   300  U3P300      0.5327
     10  O1P       23.2780   24.0870   33.1920 O.3   300  U3P300     -0.1145
     11  O2P       24.5420   22.4580   34.6150 O.3   300  U3P300     -0.1145
     12  O3P       24.6970   23.0300   32.6240 O.2   300  U3P300     -0.2224
     13  O5'       28.3190   23.4290   36.2600 O.3   300  U3P300     -0.2176
     14  C5'       27.8170   24.7340   36.6450 C.3   300  U3P300      0.2141
     15  C4'       26.5130   25.0370   35.8910 C.3   300  U3P300      0.1802
     16  O4'       26.0020   26.3810   36.2960 O.3   300  U3P300     -0.3319
     17  C3'       26.7620   25.2530   34.3830 C.3   300  U3P300      0.1903
     18  O3'       26.0080   24.2370   33.5850 O.3   300  U3P300     -0.2674
     19  C2'       26.2990   26.6660   33.9500 C.3   300  U3P300      0.2293
     20  O2'       25.1360   26.5350   33.0940 O.3   300  U3P300     -0.2158
     21  C1'       25.8970   27.4360   35.2180 C.3   300  U3P300      0.2400
@<TRIPOS>BOND
     1    12     9    2
     2    20    19    1
     3    10     9    1
     4    18     9    1
     5    18    17    1
     6     9    11    1
     7    19    17    1
     8    19    21    1
     9    17    15    1
    10    21     1    1
    11    21    16    1
    12     1     6    1
    13     1     2   am
    14     6     5    2
    15     7     2    2
    16     2     3    2
    17    15    16    1
    18    15    14    1
    19     5     4    1
    20     3     4    2
    21     4     8    2
    22    13    14    1
