@<TRIPOS>MOLECULE
1ucd_U5P_A_1.pdb
 21 22 0 0 0
SMALL
GASTEIGER

@<TRIPOS>ATOM
      1  N1         8.1770   -5.9700   34.6160 N.am  500  U5P500     -0.1766
      2  C2         9.4790   -5.5060   34.8550 C.1   500  U5P500      0.2845
      3  N3         9.5760   -4.1820   35.1850 N.2   500  U5P500     -0.2452
      4  C4         8.5230   -3.2680   35.3050 C.1   500  U5P500      0.2182
      5  C5         7.2220   -3.8210   35.0500 C.2   500  U5P500      0.1242
      6  C6         7.0870   -5.1010   34.7250 C.2   500  U5P500      0.0929
      7  O2        10.4400   -6.2600   34.7630 O.2   500  U5P500     -0.1918
      8  O4         8.7930   -2.1310   35.5970 O.2   500  U5P500     -0.2085
      9  C1'        8.0390   -7.3890   34.2520 C.3   500  U5P500      0.2401
     10  C2'        7.2030   -8.2770   35.1530 C.3   500  U5P500      0.2319
     11  O2'        7.9050   -8.7100   36.3290 O.3   500  U5P500     -0.2157
     12  C3'        6.7320   -9.4090   34.2300 C.3   500  U5P500      0.2158
     13  C4'        6.5580   -8.6590   32.9220 C.3   500  U5P500      0.1801
     14  O3'        7.6860  -10.5060   34.1900 O.3   500  U5P500     -0.2175
     15  O4'        7.5680   -7.6010   32.9360 O.3   500  U5P500     -0.3320
     16  C5'        5.2310   -7.9710   32.6360 C.3   500  U5P500      0.1859
     17  O5'        5.1570   -7.4160   31.3150 O.3   500  U5P500     -0.2675
     18  P          4.5370   -8.2390   30.0800 P.3   500  U5P500      0.5327
     19  O1P        3.1030   -8.6860   30.2020 O.3   500  U5P500     -0.1145
     20  O2P        5.3150   -9.4880   29.8420 O.3   500  U5P500     -0.1145
     21  O3P        4.8570   -7.2040   28.8430 O.2   500  U5P500     -0.2224
@<TRIPOS>BOND
     1    21    18    2
     2    20    18    1
     3    18    19    1
     4    18    17    1
     5    17    16    1
     6    16    13    1
     7    13    15    1
     8    13    12    1
     9    15     9    1
    10    14    12    1
    11    12    10    1
    12     9     1    1
    13     9    10    1
    14     1     6    1
    15     1     2   am
    16     6     5    2
    17     7     2    2
    18     2     3    2
    19     5     4    1
    20    10    11    1
    21     3     4    2
    22     4     8    2
