@<TRIPOS>MOLECULE
1ucn_ADP_A_1.pdb
 27 29 0 0 0
SMALL
GASTEIGER

@<TRIPOS>ATOM
      1  PB        -8.7700   96.8750   16.0660 P.3   1160  ADP1160     0.5373
      2  O1B       -8.8350   97.6750   14.8160 O.2   1160  ADP1160    -0.2221
      3  O2B       -7.6870   95.8750   16.2280 O.3   1160  ADP1160    -0.1143
      4  O3B       -8.6760   97.8940   17.2880 O.3   1160  ADP1160    -0.1143
      5  PA       -11.5710   96.8260   16.1870 P.3   1160  ADP1160     0.2231
      6  O1A      -11.3610   98.2290   15.7410 O.3   1160  ADP1160    -0.4370
      7  O2A      -12.4890   95.9430   15.4210 O.2   1160  ADP1160    -0.5169
      8  O3A      -10.1510   96.0950   16.2010 O.3   1160  ADP1160    -0.2261
      9  O5'      -12.0920   96.8800   17.6910 O.3   1160  ADP1160    -0.3111
     10  C5'      -11.8230   98.0040   18.5150 C.3   1160  ADP1160     0.1813
     11  C4'      -11.4430   97.5520   19.9020 C.3   1160  ADP1160     0.1821
     12  O4'      -12.5530   96.8180   20.4790 O.3   1160  ADP1160    -0.3135
     13  C3'      -10.2840   96.5720   19.9820 C.3   1160  ADP1160     0.2184
     14  O3'       -9.0360   97.2550   19.9420 O.3   1160  ADP1160    -0.2174
     15  C2'      -10.5270   95.9070   21.3330 C.3   1160  ADP1160     0.2570
     16  O2'      -10.0700   96.6770   22.4270 O.3   1160  ADP1160    -0.2130
     17  C1'      -12.0560   95.8240   21.3610 C.3   1160  ADP1160     0.3186
     18  N9       -12.5490   94.5180   20.9230 N.pl3 1160  ADP1160    -0.1439
     19  C8       -12.6720   94.0340   19.6440 C.3   1160  ADP1160     0.3377
     20  N7       -13.1190   92.8030   19.5870 N.2   1160  ADP1160    -0.2095
     21  C5       -13.3080   92.4550   20.9180 C.2   1160  ADP1160     0.2526
     22  C6       -13.7670   91.2770   21.5330 C.2   1160  ADP1160     0.4393
     23  N6       -14.1340   90.1820   20.8570 N.pl3 1160  ADP1160     0.2180
     24  N1       -13.8400   91.2600   22.8840 N.2   1160  ADP1160     0.0021
     25  C2       -13.4780   92.3590   23.5580 C.3   1160  ADP1160     0.5254
     26  N3       -13.0330   93.5250   23.0930 N.2   1160  ADP1160    -0.0055
     27  C4       -12.9700   93.5050   21.7500 C.2   1160  ADP1160     0.3518
@<TRIPOS>BOND
     1     2     1    2
     2     7     5    2
     3     6     5    1
     4     1     8    1
     5     1     3    1
     6     1     4    1
     7     5     8    1
     8     5     9    1
     9     9    10    1
    10    10    11    1
    11    20    19    1
    12    20    21    2
    13    19    18    1
    14    11    13    1
    15    11    12    1
    16    14    13    1
    17    13    15    1
    18    12    17    1
    19    23    22    1
    20    21    22    1
    21    21    27    1
    22    18    17    1
    23    18    27    1
    24    15    17    1
    25    15    16    1
    26    22    24    2
    27    27    26    2
    28    24    25    1
    29    26    25    1
