@<TRIPOS>MOLECULE
1ucq_RET_A_1.pdb
 20 20 0 0 0
SMALL
GASTEIGER

@<TRIPOS>ATOM
      1  C1        38.9840   16.3170   21.5960 C.3   250  RET250      0.0183
      2  C2        39.5080   15.6060   20.3170 C.3   250  RET250      0.0044
      3  C3        40.2620   14.4020   20.5090 C.3   250  RET250      0.0047
      4  C4        39.6290   13.4910   21.5250 C.3   250  RET250      0.0217
      5  C5        39.2410   14.1190   22.8500 C.2   250  RET250     -0.0479
      6  C6        38.8820   15.4410   22.9010 C.2   250  RET250     -0.0307
      7  C7        38.3650   16.0310   24.2490 C.2   250  RET250     -0.0052
      8  C8        38.0340   17.3240   24.4350 C.2   250  RET250     -0.0046
      9  C9        37.4090   17.7470   25.6900 C.2   250  RET250     -0.0219
     10  C10       36.9720   19.0470   25.7880 C.2   250  RET250     -0.0043
     11  C11       36.1700   19.5200   26.9070 C.2   250  RET250     -0.0007
     12  C12       35.7540   20.7910   26.9170 C.2   250  RET250     -0.0046
     13  C13       34.8700   21.2850   28.0010 C.2   250  RET250     -0.0261
     14  C14       34.5020   22.5780   28.0310 C.2   250  RET250     -0.0300
     15  C15       34.6940   23.5820   26.9940 C.3   250  RET250      0.0304
     16  C16       39.9480   17.4900   21.7900 C.3   250  RET250      0.0043
     17  C17       37.6330   16.8750   21.1460 C.3   250  RET250      0.0043
     18  C18       39.2050   13.2640   24.1230 C.3   250  RET250      0.0260
     19  C19       37.1260   16.7370   26.7930 C.3   250  RET250      0.0310
     20  C20       34.2010   20.4710   29.0680 C.3   250  RET250      0.0307
@<TRIPOS>BOND
     1     2     3    1
     2     2     1    1
     3     3     4    1
     4    17     1    1
     5     4     5    1
     6     1    16    1
     7     1     6    1
     8     5     6    2
     9     5    18    1
    10     6     7    1
    11     7     8    2
    12     8     9    1
    13     9    10    2
    14     9    19    1
    15    10    11    1
    16    11    12    2
    17    12    13    1
    18    15    14    1
    19    13    14    2
    20    13    20    1
