@<TRIPOS>MOLECULE
1uda_NAD_A_1.pdb
 44 48 0 0 0
SMALL
GASTEIGER

@<TRIPOS>ATOM
      1  PA        31.0250    4.8400   37.7650 P.3   340  NAD340      0.2189
      2  O1A       31.3180    6.0620   36.9430 O.2   340  NAD340     -0.5170
      3  O2A       31.1710    5.0290   39.2070 O.3   340  NAD340     -0.4371
      4  O5B       31.8690    3.5130   37.4080 O.3   340  NAD340     -0.3112
      5  C5B       32.2730    3.4000   36.0360 C.3   340  NAD340      0.1813
      6  C4B       33.7420    2.8830   36.1150 C.3   340  NAD340      0.1821
      7  O4B       34.0880    2.7680   34.7570 O.3   340  NAD340     -0.3135
      8  C3B       34.6720    4.0110   36.5980 C.3   340  NAD340      0.2184
      9  O3B       35.3470    3.7430   37.8500 O.3   340  NAD340     -0.2174
     10  C2B       35.4440    4.5030   35.3540 C.3   340  NAD340      0.2570
     11  O2B       36.7290    5.1300   35.6390 O.3   340  NAD340     -0.2130
     12  C1B       35.4720    3.2320   34.5830 C.3   340  NAD340      0.3186
     13  N9A       35.5860    3.3320   33.1390 N.pl3 340  NAD340     -0.1439
     14  C8A       34.8940    4.1370   32.2960 C.3   340  NAD340      0.3377
     15  N7A       35.1600    3.9810   31.0350 N.2   340  NAD340     -0.2095
     16  C5A       36.1260    2.9700   31.0450 C.2   340  NAD340      0.2526
     17  C6A       36.7870    2.3610   29.9720 C.2   340  NAD340      0.4393
     18  N6A       36.7300    2.6240   28.6820 N.pl3 340  NAD340      0.2180
     19  N1A       37.7530    1.4570   30.2810 N.2   340  NAD340      0.0021
     20  C2A       37.8550    1.1750   31.6590 C.3   340  NAD340      0.5254
     21  N3A       37.3010    1.6210   32.7630 N.2   340  NAD340     -0.0055
     22  C4A       36.4260    2.5790   32.3300 C.2   340  NAD340      0.3518
     23  O3        29.4920    4.5900   37.4530 O.3   340  NAD340     -0.2703
     24  PN        28.5470    3.5850   38.2720 P.3   340  NAD340      0.2189
     25  O1N       27.4170    4.3760   38.9340 O.2   340  NAD340     -0.5170
     26  O2N       29.2480    2.7530   39.2540 O.3   340  NAD340     -0.4371
     27  O5D       27.8970    2.8520   36.9910 O.3   340  NAD340     -0.3112
     28  C5D       28.3140    1.4570   36.7480 C.3   340  NAD340      0.1813
     29  C4D       27.7450    0.8850   35.4800 C.3   340  NAD340      0.1799
     30  O4D       26.3030    0.9600   35.7340 O.3   340  NAD340     -0.3327
     31  C3D       27.9730    1.8190   34.2720 C.3   340  NAD340      0.2158
     32  O3D       27.9100    1.1010   33.0890 O.3   340  NAD340     -0.2175
     33  C2D       26.6390    2.7100   34.2620 C.3   340  NAD340      0.2309
     34  O2D       26.2850    3.0960   32.8970 O.3   340  NAD340     -0.2158
     35  C1D       25.6620    1.6460   34.6750 C.3   340  NAD340      0.2263
     36  N1N       24.4250    2.2520   35.2270 N.pl3 340  NAD340     -0.2787
     37  C2N       24.5230    3.0370   36.3990 C.3   340  NAD340      0.1244
     38  C3N       23.3640    3.9070   36.8170 C.2   340  NAD340      0.0544
     39  C7N       23.5800    4.9180   37.9110 C.2   340  NAD340      0.2818
     40  O7N       22.6430    5.7010   38.1570 O.2   340  NAD340     -0.2670
     41  N7N       24.6900    5.0380   38.6760 N.am  340  NAD340     -0.0839
     42  C4N       21.9820    3.3750   36.3840 C.2   340  NAD340      0.0033
     43  C5N       21.9770    2.5880   35.1100 C.2   340  NAD340      0.0157
     44  C6N       23.1160    1.9170   34.7020 C.2   340  NAD340      0.0633
@<TRIPOS>BOND
     1    18    17    1
     2    17    19    2
     3    17    16    1
     4    19    20    1
     5    15    16    2
     6    15    14    1
     7    16    22    1
     8    20    21    1
     9    14    13    1
    10    22    21    2
    11    22    13    1
    12    34    33    1
    13    32    31    1
    14    13    12    1
    15    33    31    1
    16    33    35    1
    17    31    29    1
    18    12     7    1
    19    12    10    1
    20    35    36    1
    21    35    30    1
    22    44    43    2
    23    44    36    1
    24     7     6    1
    25    43    42    1
    26    36    37    1
    27    10    11    1
    28    10     8    1
    29    29    30    1
    30    29    28    1
    31     5     6    1
    32     5     4    1
    33     6     8    1
    34    42    38    2
    35    37    38    1
    36     8     9    1
    37    28    27    1
    38    38    39    1
    39     2     1    2
    40    27    24    1
    41     4     1    1
    42    23     1    1
    43    23    24    1
    44     1     3    1
    45    39    40    2
    46    39    41   am
    47    24    25    2
    48    24    26    1
