@<TRIPOS>MOLECULE
1uda_UFG_A_1.pdb
 36 38 0 0 0
SMALL
GASTEIGER

@<TRIPOS>ATOM
      1  N1        15.9130   15.3440   39.9780 N.am  341  UFG341     -0.1766
      2  C2        15.6450   16.6340   40.4000 C.1   341  UFG341      0.2845
      3  N3        16.7720   17.3990   40.6280 N.2   341  UFG341     -0.2452
      4  C4        18.1080   16.9410   40.4170 C.1   341  UFG341      0.2182
      5  C5        18.3090   15.5960   39.9490 C.2   341  UFG341      0.1242
      6  C6        17.2310   14.8330   39.7460 C.2   341  UFG341      0.0929
      7  O2        14.5180   17.0810   40.5430 O.2   341  UFG341     -0.1918
      8  O4        18.9730   17.7310   40.6410 O.2   341  UFG341     -0.2085
      9  C1D       14.7390   14.4140   39.7290 C.3   341  UFG341      0.2401
     10  C2D       14.5690   13.9400   38.2740 C.3   341  UFG341      0.2319
     11  O2D       13.6990   14.8590   37.5510 O.3   341  UFG341     -0.2157
     12  C3D       13.8710   12.5330   38.4260 C.3   341  UFG341      0.2158
     13  C4D       14.5220   12.0030   39.6950 C.3   341  UFG341      0.1799
     14  O4'       14.9870   13.1870   40.4140 O.3   341  UFG341     -0.3320
     15  O3D       12.4090   12.7210   38.6340 O.3   341  UFG341     -0.2175
     16  C5D       15.7040   11.0740   39.5800 C.3   341  UFG341      0.1813
     17  O5D       16.6030   11.8110   38.7390 O.3   341  UFG341     -0.3112
     18  PA        18.1430   11.1850   38.4590 P.3   341  UFG341      0.2189
     19  O1A       18.7670   12.1490   37.5190 O.2   341  UFG341     -0.5170
     20  O2A       18.7070   10.9150   39.8040 O.3   341  UFG341     -0.4371
     21  O3A       17.9190    9.7640   37.7210 O.3   341  UFG341     -0.2703
     22  PB        16.9980    9.4130   36.5190 P.3   341  UFG341      0.2208
     23  O1B       15.6630    8.8350   36.9330 O.3   341  UFG341     -0.4371
     24  O2B       16.8380   10.6010   35.5740 O.2   341  UFG341     -0.5170
     25  O3B       17.8960    8.3170   35.7160 O.3   341  UFG341     -0.2857
     26  C1'       17.1380    7.3860   35.0000 C.3   341  UFG341      0.2742
     27  C2'       18.0720    6.2500   34.6770 C.3   341  UFG341      0.2411
     28  C3'       19.2290    6.8040   33.8420 C.3   341  UFG341      0.2220
     29  C4'       18.6870    7.3580   32.5150 C.3   341  UFG341      0.2233
     30  C5'       17.6920    8.5110   32.8630 C.3   341  UFG341      0.1857
     31  C6'       16.8860    9.0130   31.6660 C.3   341  UFG341      0.2144
     32  O2'       18.5760    5.6750   35.9090 O.3   341  UFG341     -0.2148
     33  O3'       20.1490    5.7520   33.5890 O.3   341  UFG341     -0.2172
     34  O5'       16.6820    8.0360   33.7950 O.3   341  UFG341     -0.3252
     35  O6'       17.7850    9.5720   30.6970 O.3   341  UFG341     -0.2176
     36  F4'       18.0490    6.3750   31.6500 F     341  UFG341     -0.2317
@<TRIPOS>BOND
     1    35    31    1
     2    36    29    1
     3    31    30    1
     4    29    30    1
     5    29    28    1
     6    30    34    1
     7    33    28    1
     8    34    26    1
     9    28    27    1
    10    27    26    1
    11    27    32    1
    12    26    25    1
    13    24    22    2
    14    25    22    1
    15    22    23    1
    16    22    21    1
    17    19    18    2
    18    11    10    1
    19    21    18    1
    20    10    12    1
    21    10     9    1
    22    12    15    1
    23    12    13    1
    24    18    17    1
    25    18    20    1
    26    17    16    1
    27    16    13    1
    28    13    14    1
    29     9     1    1
    30     9    14    1
    31     6     5    2
    32     6     1    1
    33     5     4    1
    34     1     2   am
    35     2     7    2
    36     2     3    2
    37     4     3    2
    38     4     8    2
