@<TRIPOS>MOLECULE
1udb_UFG_A_1.pdb
 36 38 0 0 0
SMALL
GASTEIGER

@<TRIPOS>ATOM
      1  N1        15.8830   15.3150   39.8920 N.am  341  UFG341     -0.1766
      2  C2        15.6400   16.6150   40.3370 C.1   341  UFG341      0.2845
      3  N3        16.7630   17.3800   40.5550 N.2   341  UFG341     -0.2452
      4  C4        18.0840   16.9530   40.3290 C.1   341  UFG341      0.2182
      5  C5        18.2500   15.6040   39.8840 C.2   341  UFG341      0.1242
      6  C6        17.1900   14.8460   39.6940 C.2   341  UFG341      0.0929
      7  O2        14.5290   17.0610   40.5010 O.2   341  UFG341     -0.1918
      8  O4        18.9700   17.7450   40.5270 O.2   341  UFG341     -0.2085
      9  C1D       14.7500   14.3640   39.6790 C.3   341  UFG341      0.2401
     10  C2D       14.6120   13.8910   38.2430 C.3   341  UFG341      0.2319
     11  O2D       13.7700   14.7980   37.5040 O.3   341  UFG341     -0.2157
     12  C3D       13.9340   12.5040   38.3650 C.3   341  UFG341      0.2158
     13  C4D       14.5110   11.9940   39.6670 C.3   341  UFG341      0.1799
     14  O4'       14.9440   13.1690   40.4000 O.3   341  UFG341     -0.3320
     15  O3D       12.5080   12.6090   38.4450 O.3   341  UFG341     -0.2175
     16  C5D       15.7200   11.1130   39.5500 C.3   341  UFG341      0.1813
     17  O5D       16.6060   11.8130   38.6580 O.3   341  UFG341     -0.3112
     18  PA        18.0700   11.2140   38.4060 P.3   341  UFG341      0.2189
     19  O1A       18.7960   12.0650   37.4360 O.2   341  UFG341     -0.5170
     20  O2A       18.7550   10.8600   39.6710 O.3   341  UFG341     -0.4371
     21  O3A       17.8980    9.7870   37.6290 O.3   341  UFG341     -0.2703
     22  PB        17.0620    9.3970   36.3800 P.3   341  UFG341      0.2208
     23  O1B       15.7100    8.8140   36.6660 O.3   341  UFG341     -0.4371
     24  O2B       17.0190   10.5470   35.4230 O.2   341  UFG341     -0.5170
     25  O3B       17.9200    8.2460   35.6380 O.3   341  UFG341     -0.2857
     26  C1'       17.2810    7.3750   34.7400 C.3   341  UFG341      0.2742
     27  C2'       18.1880    6.1550   34.7070 C.3   341  UFG341      0.2411
     28  C3'       19.3990    6.2530   33.7460 C.3   341  UFG341      0.2220
     29  C4'       19.1020    6.9820   32.4250 C.3   341  UFG341      0.2233
     30  C5'       18.1570    8.1900   32.5740 C.3   341  UFG341      0.1857
     31  C6'       17.5810    8.6910   31.2440 C.3   341  UFG341      0.2144
     32  O2'       18.5670    5.7240   36.0210 O.3   341  UFG341     -0.2148
     33  O3'       20.0380    5.0020   33.4920 O.3   341  UFG341     -0.2172
     34  O5'       17.0230    7.8910   33.4150 O.3   341  UFG341     -0.3252
     35  O6'       16.6720    7.7250   30.7730 O.3   341  UFG341     -0.2176
     36  F4'       20.3130    7.4400   31.8300 F     341  UFG341     -0.2317
@<TRIPOS>BOND
     1    35    31    1
     2    31    30    1
     3    36    29    1
     4    29    30    1
     5    29    28    1
     6    30    34    1
     7    34    26    1
     8    33    28    1
     9    28    27    1
    10    27    26    1
    11    27    32    1
    12    26    25    1
    13    24    22    2
    14    25    22    1
    15    22    23    1
    16    22    21    1
    17    19    18    2
    18    11    10    1
    19    21    18    1
    20    10    12    1
    21    10     9    1
    22    12    15    1
    23    12    13    1
    24    18    17    1
    25    18    20    1
    26    17    16    1
    27    16    13    1
    28    13    14    1
    29     9     1    1
    30     9    14    1
    31     6     5    2
    32     6     1    1
    33     5     4    1
    34     1     2   am
    35     4     8    2
    36     4     3    2
    37     2     7    2
    38     2     3    2
