@<TRIPOS>MOLECULE
1udb_NAD_A_1.pdb
 44 48 0 0 0
SMALL
GASTEIGER

@<TRIPOS>ATOM
      1  PA        30.9960    4.8990   37.7140 P.3   340  NAD340      0.2189
      2  O1A       31.4020    5.9610   36.7650 O.2   340  NAD340     -0.5170
      3  O2A       31.1990    5.1950   39.1540 O.3   340  NAD340     -0.4371
      4  O5B       31.7480    3.5280   37.3760 O.3   340  NAD340     -0.3112
      5  C5B       32.2510    3.3260   36.0420 C.3   340  NAD340      0.1813
      6  C4B       33.7180    2.9790   36.1250 C.3   340  NAD340      0.1821
      7  O4B       34.1300    2.7030   34.7730 O.3   340  NAD340     -0.3135
      8  C3B       34.5960    4.1240   36.6150 C.3   340  NAD340      0.2184
      9  O3B       35.3810    3.6890   37.7350 O.3   340  NAD340     -0.2174
     10  C2B       35.3540    4.5420   35.3440 C.3   340  NAD340      0.2570
     11  O2B       36.6760    5.0340   35.6630 O.3   340  NAD340     -0.2130
     12  C1B       35.4000    3.2280   34.5810 C.3   340  NAD340      0.3186
     13  N9A       35.5550    3.3420   33.1380 N.pl3 340  NAD340     -0.1439
     14  C8A       34.8660    4.1580   32.3060 C.3   340  NAD340      0.3377
     15  N7A       35.1620    3.9770   31.0210 N.2   340  NAD340     -0.2095
     16  C5A       36.1340    2.9950   31.0380 C.2   340  NAD340      0.2526
     17  C6A       36.8030    2.3650   29.9920 C.2   340  NAD340      0.4393
     18  N6A       36.6820    2.6360   28.7080 N.pl3 340  NAD340      0.2180
     19  N1A       37.7670    1.4910   30.3320 N.2   340  NAD340      0.0021
     20  C2A       37.9030    1.2180   31.6540 C.3   340  NAD340      0.5254
     21  N3A       37.3340    1.7210   32.7070 N.2   340  NAD340     -0.0055
     22  C4A       36.4130    2.6070   32.3270 C.2   340  NAD340      0.3518
     23  O3        29.5170    4.5390   37.4360 O.3   340  NAD340     -0.2703
     24  PN        28.4700    3.5470   38.2100 P.3   340  NAD340      0.2189
     25  O1N       27.4530    4.4160   38.8260 O.2   340  NAD340     -0.5170
     26  O2N       29.2410    2.7180   39.1680 O.3   340  NAD340     -0.4371
     27  O5D       27.9040    2.8010   36.9370 O.3   340  NAD340     -0.3112
     28  C5D       28.3250    1.4520   36.7600 C.3   340  NAD340      0.1813
     29  C4D       27.7350    0.9660   35.4760 C.3   340  NAD340      0.1799
     30  O4D       26.3090    0.9200   35.7000 O.3   340  NAD340     -0.3327
     31  C3D       27.9510    1.8450   34.2590 C.3   340  NAD340      0.2158
     32  O3D       27.9790    1.0440   33.0800 O.3   340  NAD340     -0.2175
     33  C2D       26.6600    2.6700   34.2440 C.3   340  NAD340      0.2309
     34  O2D       26.3430    3.0210   32.8860 O.3   340  NAD340     -0.2158
     35  C1D       25.6580    1.6470   34.7110 C.3   340  NAD340      0.2261
     36  N1N       24.4700    2.2620   35.2630 N.pl3 340  NAD340     -0.2828
     37  C2N       24.5110    3.0310   36.4010 C.3   340  NAD340      0.1025
     38  C3N       23.3730    3.8960   36.7470 C.3   340  NAD340      0.1040
     39  C7N       23.5990    4.8410   37.8440 C.2   340  NAD340      0.2623
     40  O7N       22.6670    5.6090   38.1250 O.2   340  NAD340     -0.2716
     41  N7N       24.7430    4.8850   38.5410 N.am  340  NAD340     -0.0877
     42  C4N       22.0240    3.3840   36.3850 C.3   340  NAD340      0.0383
     43  C5N       22.1170    2.5770   35.1520 C.2   340  NAD340     -0.0098
     44  C6N       23.2100    2.0270   34.6800 C.2   340  NAD340      0.0584
@<TRIPOS>BOND
     1    18    17    1
     2    17    19    2
     3    17    16    1
     4    19    20    1
     5    15    16    2
     6    15    14    1
     7    16    22    1
     8    20    21    1
     9    14    13    1
    10    22    21    2
    11    22    13    1
    12    34    33    1
    13    32    31    1
    14    13    12    1
    15    33    31    1
    16    33    35    1
    17    31    29    1
    18    12     7    1
    19    12    10    1
    20    44    43    2
    21    44    36    1
    22    35    36    1
    23    35    30    1
    24     7     6    1
    25    43    42    1
    26    36    37    1
    27    10    11    1
    28    10     8    1
    29    29    30    1
    30    29    28    1
    31     5     6    1
    32     5     4    1
    33     6     8    1
    34    42    38    1
    35    37    38    1
    36     8     9    1
    37    38    39    1
    38    28    27    1
    39     2     1    2
    40    27    24    1
    41     4     1    1
    42    23     1    1
    43    23    24    1
    44     1     3    1
    45    39    40    2
    46    39    41   am
    47    24    25    2
    48    24    26    1
