@<TRIPOS>MOLECULE
1udc_UFM_A_1.pdb
 36 38 0 0 0
SMALL
GASTEIGER

@<TRIPOS>ATOM
      1  N1        15.6730   15.2560   39.7430 N.am  341  UFM341     -0.1766
      2  C2        15.3680   16.5480   40.1850 C.1   341  UFM341      0.2845
      3  N3        16.4930   17.3210   40.4230 N.2   341  UFM341     -0.2452
      4  C4        17.8180   16.9420   40.2440 C.1   341  UFM341      0.2182
      5  C5        18.0230   15.6000   39.8020 C.2   341  UFM341      0.1242
      6  C6        16.9750   14.8180   39.5390 C.2   341  UFM341      0.0929
      7  O2        14.1910   16.9140   40.3360 O.2   341  UFM341     -0.1918
      8  O4        18.6760   17.7860   40.4490 O.2   341  UFM341     -0.2085
      9  C1D       14.5530   14.3270   39.5240 C.3   341  UFM341      0.2401
     10  C2D       14.3550   13.8090   38.0790 C.3   341  UFM341      0.2319
     11  O2D       13.4260   14.6980   37.4270 O.3   341  UFM341     -0.2157
     12  C3D       13.6850   12.4020   38.2810 C.3   341  UFM341      0.2158
     13  C4D       14.3150   11.9020   39.5570 C.3   341  UFM341      0.1799
     14  O4D       14.6840   13.1240   40.2820 O.3   341  UFM341     -0.3320
     15  O3D       12.2520   12.4590   38.4910 O.3   341  UFM341     -0.2175
     16  C5D       15.5070   10.9870   39.4750 C.3   341  UFM341      0.1813
     17  O5D       16.3720   11.7310   38.6010 O.3   341  UFM341     -0.3112
     18  PA        17.7730   11.0730   38.2190 P.3   341  UFM341      0.2189
     19  O1A       18.4970   12.0030   37.2990 O.2   341  UFM341     -0.5170
     20  O2A       18.5930   10.6860   39.3860 O.3   341  UFM341     -0.4371
     21  O3A       17.4760    9.6730   37.4860 O.3   341  UFM341     -0.2703
     22  PB        16.4870    9.3060   36.3040 P.3   341  UFM341      0.2208
     23  O1B       15.3830    8.5100   36.8630 O.3   341  UFM341     -0.4371
     24  O2B       16.0630   10.5590   35.5750 O.2   341  UFM341     -0.5170
     25  O3B       17.3710    8.4860   35.3630 O.3   341  UFM341     -0.2857
     26  C1'       17.6080    7.1080   35.5550 C.3   341  UFM341      0.2742
     27  C2'       18.9060    6.9510   36.3370 C.3   341  UFM341      0.2409
     28  C3'       20.1120    7.5930   35.6310 C.3   341  UFM341      0.2198
     29  C4'       20.2760    6.9250   34.2440 C.3   341  UFM341      0.2144
     30  C5'       18.9680    7.1120   33.4840 C.3   341  UFM341      0.1835
     31  C6'       19.0280    6.4110   32.1070 C.3   341  UFM341      0.2142
     32  O2'       19.1370    5.5440   36.5160 O.3   341  UFM341     -0.2149
     33  O3'       21.2930    7.3320   36.4090 O.3   341  UFM341     -0.2174
     34  O4'       21.3270    7.5510   33.5220 O.3   341  UFM341     -0.2176
     35  O5'       17.8300    6.5300   34.2200 O.3   341  UFM341     -0.3254
     36  O6'       17.7790    6.6900   31.3890 O.3   341  UFM341     -0.2176
@<TRIPOS>BOND
     1    36    31    1
     2    31    30    1
     3    30    35    1
     4    30    29    1
     5    34    29    1
     6    35    26    1
     7    29    28    1
     8    25    26    1
     9    25    22    1
    10    26    27    1
    11    24    22    2
    12    28    27    1
    13    28    33    1
    14    22    23    1
    15    22    21    1
    16    27    32    1
    17    19    18    2
    18    11    10    1
    19    21    18    1
    20    10    12    1
    21    10     9    1
    22    18    17    1
    23    18    20    1
    24    12    15    1
    25    12    13    1
    26    17    16    1
    27    16    13    1
    28     9     1    1
    29     9    14    1
    30     6     1    1
    31     6     5    2
    32    13    14    1
    33     1     2   am
    34     5     4    1
    35     2     7    2
    36     2     3    2
    37     4     3    2
    38     4     8    2
