@<TRIPOS>MOLECULE
1udc_NAD_A_1.pdb
 44 48 0 0 0
SMALL
GASTEIGER

@<TRIPOS>ATOM
      1  PA        30.9970    4.9120   37.6640 P.3   340  NAD340      0.2189
      2  O1A       31.3400    6.0910   36.7780 O.2   340  NAD340     -0.5170
      3  O2A       31.2330    5.1900   39.1480 O.3   340  NAD340     -0.4371
      4  O5B       31.7260    3.5540   37.3390 O.3   340  NAD340     -0.3112
      5  C5B       32.2450    3.3530   36.0090 C.3   340  NAD340      0.1813
      6  C4B       33.6970    3.0070   36.1610 C.3   340  NAD340      0.1821
      7  O4B       34.1640    2.6580   34.8150 O.3   340  NAD340     -0.3135
      8  C3B       34.5860    4.1550   36.6550 C.3   340  NAD340      0.2184
      9  O3B       35.4340    3.6040   37.7100 O.3   340  NAD340     -0.2174
     10  C2B       35.3610    4.5640   35.3620 C.3   340  NAD340      0.2570
     11  O2B       36.7160    5.0490   35.6240 O.3   340  NAD340     -0.2130
     12  C1B       35.4200    3.2300   34.6160 C.3   340  NAD340      0.3186
     13  N9A       35.5990    3.3960   33.1310 N.pl3 340  NAD340     -0.1439
     14  C8A       34.9260    4.2420   32.3260 C.3   340  NAD340      0.3377
     15  N7A       35.2450    4.0690   31.0280 N.2   340  NAD340     -0.2095
     16  C5A       36.1810    3.0330   31.0190 C.2   340  NAD340      0.2526
     17  C6A       36.9150    2.3890   29.9760 C.2   340  NAD340      0.4393
     18  N6A       36.8570    2.6940   28.6780 N.pl3 340  NAD340      0.2180
     19  N1A       37.8200    1.4490   30.3290 N.2   340  NAD340      0.0021
     20  C2A       37.9860    1.1430   31.6710 C.3   340  NAD340      0.5254
     21  N3A       37.3600    1.6870   32.6990 N.2   340  NAD340     -0.0055
     22  C4A       36.4630    2.6160   32.3350 C.2   340  NAD340      0.3518
     23  O3        29.4990    4.5920   37.4430 O.3   340  NAD340     -0.2703
     24  PN        28.4630    3.5960   38.1600 P.3   340  NAD340      0.2189
     25  O1N       27.3680    4.4210   38.7610 O.2   340  NAD340     -0.5170
     26  O2N       29.2400    2.6760   39.0380 O.3   340  NAD340     -0.4371
     27  O5D       27.8290    2.7890   36.9130 O.3   340  NAD340     -0.3112
     28  C5D       28.3550    1.4860   36.7200 C.3   340  NAD340      0.1813
     29  C4D       27.7570    0.9150   35.4560 C.3   340  NAD340      0.1799
     30  O4D       26.3410    0.8730   35.6750 O.3   340  NAD340     -0.3327
     31  C3D       27.9810    1.7990   34.1800 C.3   340  NAD340      0.2158
     32  O3D       27.9450    0.9480   33.0260 O.3   340  NAD340     -0.2175
     33  C2D       26.7000    2.6010   34.1640 C.3   340  NAD340      0.2309
     34  O2D       26.3900    3.0690   32.8110 O.3   340  NAD340     -0.2158
     35  C1D       25.6940    1.5960   34.6620 C.3   340  NAD340      0.2263
     36  N1N       24.5060    2.2350   35.2110 N.pl3 340  NAD340     -0.2787
     37  C2N       24.5720    3.1270   36.3070 C.3   340  NAD340      0.1244
     38  C3N       23.3910    3.9340   36.6610 C.2   340  NAD340      0.0544
     39  C7N       23.4730    4.8510   37.8050 C.2   340  NAD340      0.2818
     40  O7N       22.4600    5.5720   37.9910 O.2   340  NAD340     -0.2670
     41  N7N       24.5700    4.9330   38.5620 N.am  340  NAD340     -0.0839
     42  C4N       22.0400    3.6270   36.0670 C.2   340  NAD340      0.0033
     43  C5N       22.0710    2.5010   35.0820 C.2   340  NAD340      0.0157
     44  C6N       23.2070    1.8940   34.6900 C.2   340  NAD340      0.0633
@<TRIPOS>BOND
     1    18    17    1
     2    17    19    2
     3    17    16    1
     4    19    20    1
     5    16    15    2
     6    16    22    1
     7    15    14    1
     8    20    21    1
     9    14    13    1
    10    22    21    2
    11    22    13    1
    12    34    33    1
    13    32    31    1
    14    13    12    1
    15    33    31    1
    16    33    35    1
    17    31    29    1
    18    12     7    1
    19    12    10    1
    20    35    36    1
    21    35    30    1
    22    44    43    2
    23    44    36    1
    24     7     6    1
    25    43    42    1
    26    36    37    1
    27    10    11    1
    28    10     8    1
    29    29    30    1
    30    29    28    1
    31     5     6    1
    32     5     4    1
    33    42    38    2
    34     6     8    1
    35    37    38    1
    36     8     9    1
    37    38    39    1
    38    28    27    1
    39     2     1    2
    40    27    24    1
    41     4     1    1
    42    23     1    1
    43    23    24    1
    44     1     3    1
    45    39    40    2
    46    39    41   am
    47    24    25    2
    48    24    26    1
