@<TRIPOS>MOLECULE
1udt_VIA_A_1.pdb
 33 36 0 0 0
SMALL
GASTEIGER

@<TRIPOS>ATOM
      1  C34       -0.1320   61.4670   80.1200 C.3   1000  VIA1000     0.0004
      2  C33       -0.1690   61.7920   81.5890 C.3   1000  VIA1000     0.0064
      3  C32       -1.2610   62.8640   81.9270 C.3   1000  VIA1000     0.0498
      4  C30       -1.1140   63.0310   83.4050 C.2   1000  VIA1000     0.1051
      5  N29       -1.7980   62.2800   84.3700 N.2   1000  VIA1000    -0.1827
      6  N28       -1.4140   62.6960   85.6120 N.pl3 1000  VIA1000    -0.2099
      7  C31       -1.9480   62.1110   86.8450 C.3   1000  VIA1000     0.1358
      8  C24       -0.4950   63.7000   85.4400 C.3   1000  VIA1000     0.2631
      9  C23        0.2600   64.5190   86.3460 C.1   1000  VIA1000     0.2168
     10  O27        0.1800   64.4220   87.5490 O.2   1000  VIA1000    -0.2113
     11  N22        1.1250   65.4740   85.8160 N.2   1000  VIA1000    -0.2682
     12  C21        1.3080   65.6840   84.4420 C.1   1000  VIA1000     0.1525
     13  N26        0.5970   64.9070   83.5200 N.2   1000  VIA1000    -0.3394
     14  C25       -0.2930   63.9280   84.0460 C.2   1000  VIA1000     0.1728
     15  C9         2.2230   66.7020   84.0580 C.ar  1000  VIA1000     0.1215
     16  C8         1.7310   67.6550   83.0840 C.ar  1000  VIA1000     0.0350
     17  C7         2.5680   68.7580   82.6170 C.ar  1000  VIA1000     0.1231
     18  C6         3.9520   68.8600   83.1800 C.ar  1000  VIA1000     0.0231
     19  C5         4.4660   67.9110   84.1620 C.ar  1000  VIA1000     0.0390
     20  C4         3.6090   66.8060   84.6330 C.ar  1000  VIA1000     0.1499
     21  O3         4.0190   65.8300   85.6200 O.3   1000  VIA1000    -0.4747
     22  C2         5.3040   65.8030   86.2730 C.3   1000  VIA1000     0.2056
     23  C1         5.2340   64.6230   87.2280 C.3   1000  VIA1000     0.0512
     24  S10        2.0230   69.8310   81.5610 S.O2  1000  VIA1000     0.0634
     25  O11        2.3130   69.6000   80.2940 O.2   1000  VIA1000    -0.1528
     26  O12        0.7120   69.8610   81.6110 O.2   1000  VIA1000    -0.1528
     27  N14        2.6900   71.1590   82.1270 N.3   1000  VIA1000    -0.1527
     28  C19        1.7240   72.0870   82.9630 C.3   1000  VIA1000     0.1131
     29  C18        0.8200   73.0570   82.1780 C.3   1000  VIA1000     0.0915
     30  N17        1.4260   73.6860   80.9560 N.3   1000  VIA1000    -0.2690
     31  C20        1.5570   75.1560   81.2010 C.3   1000  VIA1000     0.0897
     32  C16        2.7520   73.1450   80.4160 C.3   1000  VIA1000     0.0915
     33  C15        3.5390   72.0920   81.2850 C.3   1000  VIA1000     0.1131
@<TRIPOS>BOND
     1     1     2    1
     2    25    24    2
     3    32    30    1
     4    32    33    1
     5    30    31    1
     6    30    29    1
     7    33    27    1
     8    24    26    2
     9    24    27    1
    10    24    17    1
    11     2     3    1
    12     3     4    1
    13    27    28    1
    14    29    28    1
    15    17    16   ar
    16    17    18   ar
    17    16    15   ar
    18    18    19   ar
    19     4    14    1
    20     4     5    2
    21    13    14    2
    22    13    12    2
    23    14     8    1
    24    15    12    1
    25    15    20   ar
    26    19    20   ar
    27     5     6    1
    28    12    11    2
    29    20    21    1
    30     8     6    1
    31     8     9    1
    32     6     7    1
    33    21    22    1
    34    11     9    2
    35    22    23    1
    36     9    10    2
