@<TRIPOS>MOLECULE
1udu_CIA_A_1.pdb
 29 34 0 0 0
SMALL
GASTEIGER

@<TRIPOS>ATOM
      1  C3        24.4350   39.2430  103.9130 C.ar  1003  CIA1003     0.0026
      2  C2        24.1360   38.3240  102.8310 C.ar  1003  CIA1003     0.0002
      3  C1        22.7830   38.0950  102.3810 C.ar  1003  CIA1003     0.0023
      4  C6        21.6780   38.8160  103.0450 C.ar  1003  CIA1003     0.0279
      5  C7        20.2650   38.8320  102.8660 C.2   1003  CIA1003     0.0098
      6  C8        19.7770   39.7580  103.8580 C.2   1003  CIA1003     0.1273
      7  N9        20.8310   40.3200  104.6440 N.2   1003  CIA1003    -0.4046
      8  C5        21.9880   39.7480  104.1500 C.ar  1003  CIA1003     0.1308
      9  C4        23.3840   39.9550  104.5770 C.ar  1003  CIA1003     0.0320
     10  C13       18.2200   40.0760  104.0230 C.3   1003  CIA1003     0.1504
     11  N12       17.2740   38.9820  103.3870 N.am  1003  CIA1003    -0.2628
     12  C17       15.8670   39.0930  103.4970 C.2   1003  CIA1003     0.2468
     13  O20       15.2510   40.0230  104.0710 O.2   1003  CIA1003    -0.2730
     14  C16       14.9650   37.9990  102.9000 C.3   1003  CIA1003     0.1794
     15  N15       15.5520   37.1460  101.8010 N.am  1003  CIA1003    -0.2682
     16  C31       16.9480   37.0020  101.6110 C.2   1003  CIA1003     0.2445
     17  O32       17.4320   36.2930  100.6780 O.2   1003  CIA1003    -0.2731
     18  C11       17.9280   37.7580  102.6480 C.3   1003  CIA1003     0.1570
     19  C10       19.2610   38.1050  101.8980 C.3   1003  CIA1003     0.0580
     20  C18       14.5570   36.4650  100.9360 C.3   1003  CIA1003     0.1154
     21  C22       18.0370   41.5720  103.4140 C.ar  1003  CIA1003     0.0057
     22  C27       17.2470   42.5530  104.1340 C.ar  1003  CIA1003     0.0011
     23  C26       17.0790   43.8830  103.6150 C.ar  1003  CIA1003     0.0399
     24  C25       17.7210   44.2480  102.3330 C.ar  1003  CIA1003     0.1764
     25  O30       17.6890   45.4370  101.6740 O.3   1003  CIA1003    -0.4346
     26  C29       18.4970   45.1810  100.4870 C.3   1003  CIA1003     0.4294
     27  O28       18.9980   43.8120  100.4840 O.3   1003  CIA1003    -0.4346
     28  C24       18.4950   43.2940  101.6250 C.ar  1003  CIA1003     0.1762
     29  C23       18.6630   41.9880  102.1300 C.ar  1003  CIA1003     0.0379
@<TRIPOS>BOND
     1    27    26    1
     2    27    28    1
     3    26    25    1
     4    17    16    2
     5    20    15    1
     6    16    15   am
     7    16    18    1
     8    28    29   ar
     9    28    24   ar
    10    25    24    1
    11    15    14    1
    12    19    18    1
    13    19     5    1
    14    29    21   ar
    15    24    23   ar
    16     3     2   ar
    17     3     4   ar
    18    18    11    1
    19     2     1   ar
    20     5     4    2
    21     5     6    1
    22    14    12    1
    23     4     8   ar
    24    11    12   am
    25    11    10    1
    26    21    10    1
    27    21    22   ar
    28    12    13    2
    29    23    22   ar
    30     6    10    1
    31     6     7    2
    32     1     9   ar
    33     8     9   ar
    34     8     7    2
