@<TRIPOS>MOLECULE
1udw_CTP_A_1.pdb
 29 30 0 0 0
SMALL
GASTEIGER

@<TRIPOS>ATOM
      1  N1         8.8820   36.0340   35.1220 N.am  301  CTP301     -0.1778
      2  C2         8.7800   35.7680   36.4850 C.1   301  CTP301      0.2756
      3  N3         7.6330   35.9830   37.1760 N.2   301  CTP301     -0.3024
      4  C4         6.5010   36.4870   36.5170 C.2   301  CTP301      0.2346
      5  C5         6.5190   36.7860   35.1350 C.2   301  CTP301      0.0687
      6  C6         7.7370   36.5390   34.4890 C.2   301  CTP301      0.0836
      7  O2         9.7330   35.3200   37.1520 O.2   301  CTP301     -0.1925
      8  N4         5.3950   36.6760   37.2540 N.pl3 301  CTP301     -0.0921
      9  C1'       10.1580   35.7850   34.3810 C.3   301  CTP301      0.2400
     10  C2'       10.0300   34.7050   33.3010 C.3   301  CTP301      0.2319
     11  O2'       10.3060   33.4060   33.8220 O.3   301  CTP301     -0.2157
     12  C3'       10.9690   35.1610   32.2190 C.3   301  CTP301      0.2158
     13  C4'       11.4550   36.5400   32.6350 C.3   301  CTP301      0.1799
     14  O4'       10.5620   36.9330   33.6930 O.3   301  CTP301     -0.3320
     15  O3'       12.1620   34.4010   32.1250 O.3   301  CTP301     -0.2175
     16  C5'       11.3250   37.2600   31.3700 C.3   301  CTP301      0.1813
     17  O5'       11.5600   38.6320   31.5160 O.3   301  CTP301     -0.3112
     18  PA        13.0890   39.2120   31.1540 P.3   301  CTP301      0.2189
     19  O1A       13.2400   39.0460   29.6320 O.2   301  CTP301     -0.5170
     20  O2A       14.0970   38.3310   31.9140 O.3   301  CTP301     -0.4371
     21  O3A       13.2670   40.7720   31.6980 O.3   301  CTP301     -0.2700
     22  PB        13.5740   41.9790   30.6330 P.3   301  CTP301      0.2277
     23  O1B       13.7420   43.2190   31.5460 O.3   301  CTP301     -0.4368
     24  O2B       12.3740   42.1770   29.6760 O.2   301  CTP301     -0.5168
     25  O3B       14.9510   41.5750   29.7720 O.3   301  CTP301     -0.2258
     26  PG        16.4650   42.1820   30.0260 P.3   301  CTP301      0.5373
     27  O1G       16.3730   43.7350   29.7880 O.3   301  CTP301     -0.1143
     28  O2G       17.3220   41.4380   28.9680 O.2   301  CTP301     -0.2221
     29  O3G       16.8460   41.8620   31.4860 O.3   301  CTP301     -0.1143
@<TRIPOS>BOND
     1    28    26    2
     2    19    18    2
     3    24    22    2
     4    25    26    1
     5    25    22    1
     6    27    26    1
     7    26    29    1
     8    22    23    1
     9    22    21    1
    10    18    17    1
    11    18    21    1
    12    18    20    1
    13    16    17    1
    14    16    13    1
    15    15    12    1
    16    12    13    1
    17    12    10    1
    18    13    14    1
    19    10    11    1
    20    10     9    1
    21    14     9    1
    22     9     1    1
    23     6     1    1
    24     6     5    2
    25     1     2   am
    26     5     4    1
    27     2     7    2
    28     2     3    2
    29     4     3    2
    30     4     8    1
