@<TRIPOS>MOLECULE
1ue8_HEM_A_1.pdb
 43 50 0 0 0
SMALL
GASTEIGER

@<TRIPOS>ATOM
      1 FE        -18.7760    8.9800   81.2200 Fe    410  HEM410      0.0000
      2  CHA      -17.2830   12.1890   81.2320 C.2   410  HEM410      0.0000
      3  CHB      -20.6000    9.8700   78.5670 C.2   410  HEM410      0.0000
      4  CHC      -20.2000    5.8850   81.1840 C.2   410  HEM410      0.0000
      5  CHD      -16.8820    8.1170   83.9190 C.2   410  HEM410      0.0000
      6  NA       -18.9080   10.6660   80.1440 N.ar  410  HEM410      0.0000
      7  C1A      -18.1920   12.0440   80.2360 C.ar  410  HEM410      0.0000
      8  C2A      -18.6870   12.8530   79.2120 C.ar  410  HEM410      0.0000
      9  C3A      -19.5410   12.0810   78.6190 C.ar  410  HEM410      0.0000
     10  C4A      -19.7740   10.9020   78.9900 C.ar  410  HEM410      0.0000
     11  CMA      -20.2910   12.6250   77.4330 C.3   410  HEM410      0.0000
     12  CAA      -18.3760   14.2820   78.7950 C.3   410  HEM410      0.0000
     13  CBA      -17.5030   14.9420   79.8240 C.3   410  HEM410      0.0000
     14  CGA      -17.1290   16.3700   79.3710 C.2   410  HEM410      0.0000
     15  O1A      -16.4180   16.4550   78.3410 O.co2 410  HEM410      0.0000
     16  O2A      -17.9420   17.2860   79.6260 O.co2 410  HEM410      0.0000
     17  NB       -20.1420    8.0970   80.0710 N.2   410  HEM410      0.0000
     18  C1B      -20.8540    8.5860   78.9610 C.2   410  HEM410      0.0000
     19  C2B      -21.6010    7.6430   78.5770 C.2   410  HEM410      0.0000
     20  C3B      -21.6330    6.5360   79.1240 C.2   410  HEM410      0.0000
     21  C4B      -20.6980    6.6960   80.1570 C.2   410  HEM410      0.0000
     22  CMB      -22.4920    7.8770   77.3870 C.3   410  HEM410      0.0000
     23  CAB      -22.3960    5.4400   78.7900 C.2   410  HEM410      0.0000
     24  CBB      -22.2970    4.2810   79.5070 C.2   410  HEM410      0.0000
     25  NC       -18.5930    7.3310   82.3230 N.ar  410  HEM410      0.0000
     26  C1C      -19.2540    6.0540   82.2190 C.ar  410  HEM410      0.0000
     27  C2C      -18.7860    5.3500   83.1520 C.ar  410  HEM410      0.0000
     28  C3C      -17.9010    5.7820   83.9680 C.ar  410  HEM410      0.0000
     29  C4C      -17.6970    7.0820   83.5150 C.ar  410  HEM410      0.0000
     30  CMC      -19.2950    3.9380   83.2960 C.3   410  HEM410      0.0000
     31  CAC      -17.2510    5.1740   85.0560 C.3   410  HEM410      0.0000
     32  CBC      -17.4950    3.8720   85.4540 C.3   410  HEM410      0.0000
     33  ND       -17.4050    9.9770   82.2950 N.2   410  HEM410      0.0000
     34  C1D      -16.6230    9.4150   83.5210 C.2   410  HEM410      0.0000
     35  C2D      -15.7810   10.4010   83.9790 C.2   410  HEM410      0.0000
     36  C3D      -15.9990   11.4030   83.1700 C.2   410  HEM410      0.0000
     37  C4D      -16.8290   11.3410   82.2310 C.2   410  HEM410      0.0000
     38  CMD      -14.8290   10.3340   85.1380 C.3   410  HEM410      0.0000
     39  CAD      -15.2300   12.6810   83.3740 C.3   410  HEM410      0.0000
     40  CBD      -13.9250   12.5680   82.5700 C.3   410  HEM410      0.0000
     41  CGD      -12.9200   13.6400   82.9300 C.2   410  HEM410      0.0000
     42  O1D      -13.3830   14.7810   83.0750 O.co2 410  HEM410      0.0000
     43  O2D      -11.7440   13.4800   82.5410 O.co2 410  HEM410      0.0000
@<TRIPOS>BOND
     1    22    19    1
     2    11     9    1
     3    15    14   ar
     4     3    18    1
     5     3    10    2
     6    19    18    1
     7    19    20    2
     8     9    10   ar
     9     9     8   ar
    10    23    20    1
    11    23    24    2
    12    12     8    1
    13    12    13    1
    14    18    17    2
    15    10     6   ar
    16    20    21    1
    17     8     7   ar
    18    14    16   ar
    19    14    13    1
    20    17    21    1
    21    17     1    1
    22     6     7   ar
    23     6     1    1
    24    21     4    2
    25     7     2    2
    26     4    26    1
    27     1    33    1
    28     1    25    1
    29     2    37    1
    30    26    25   ar
    31    26    27   ar
    32    37    33    2
    33    37    36    1
    34    33    34    1
    35    25    29   ar
    36    43    41   ar
    37    40    41    1
    38    40    39    1
    39    41    42   ar
    40    27    30    1
    41    27    28   ar
    42    36    39    1
    43    36    35    2
    44    29     5    1
    45    29    28   ar
    46    34     5    2
    47    34    35    1
    48    28    31    1
    49    35    38    1
    50    31    32    1
