@<TRIPOS>MOLECULE
1ued_HEM_A_1.pdb
 43 50 0 0 0
SMALL
GASTEIGER

@<TRIPOS>ATOM
      1 FE          0.0240    3.3870   41.9710 Fe    1430  HEM1430     0.0000
      2  CHA        0.4890    6.6980   42.8430 C.2   1430  HEM1430     0.0000
      3  CHB        1.9750    2.4370   44.4870 C.2   1430  HEM1430     0.0000
      4  CHC       -0.6070    0.0820   41.1030 C.2   1430  HEM1430     0.0000
      5  CHD       -1.3750    4.3730   39.0450 C.2   1430  HEM1430     0.0000
      6  NA         1.0210    4.4260   43.4250 N.2   1430  HEM1430     0.0000
      7  C1A        1.0560    5.7480   43.6880 C.2   1430  HEM1430     0.0000
      8  C2A        1.9370    5.9910   44.8330 C.2   1430  HEM1430     0.0000
      9  C3A        2.3600    4.8020   45.2490 C.2   1430  HEM1430     0.0000
     10  C4A        1.7900    3.8080   44.3260 C.2   1430  HEM1430     0.0000
     11  CMA        3.4710    4.4700   46.2640 C.3   1430  HEM1430     0.0000
     12  CAA        2.2850    7.3180   45.5330 C.3   1430  HEM1430     0.0000
     13  CBA        3.3070    8.0460   44.6770 C.3   1430  HEM1430     0.0000
     14  CGA        3.7660    9.3660   45.3000 C.2   1430  HEM1430     0.0000
     15  O1A        4.6420   10.0440   44.6870 O.co2 1430  HEM1430     0.0000
     16  O2A        3.2330    9.7050   46.3820 O.co2 1430  HEM1430     0.0000
     17  NB         0.6440    1.5940   42.5780 N.ar  1430  HEM1430     0.0000
     18  C1B        1.4590    1.3810   43.6960 C.ar  1430  HEM1430     0.0000
     19  C2B        1.5600   -0.0180   44.0070 C.ar  1430  HEM1430     0.0000
     20  C3B        0.8160   -0.6460   43.0180 C.ar  1430  HEM1430     0.0000
     21  C4B        0.3140    0.3540   42.1290 C.ar  1430  HEM1430     0.0000
     22  CMB        2.2940   -0.6980   45.2170 C.3   1430  HEM1430     0.0000
     23  CAB        0.4980   -2.0440   42.8260 C.3   1430  HEM1430     0.0000
     24  CBB        0.2110   -2.7240   43.9630 C.3   1430  HEM1430     0.0000
     25  NC        -0.9030    2.4200   40.4620 N.2   1430  HEM1430     0.0000
     26  C1C       -1.0780    1.0960   40.2700 C.2   1430  HEM1430     0.0000
     27  C2C       -1.8580    0.8360   39.0650 C.2   1430  HEM1430     0.0000
     28  C3C       -2.0360    2.0160   38.4460 C.2   1430  HEM1430     0.0000
     29  C4C       -1.4420    3.0270   39.3550 C.2   1430  HEM1430     0.0000
     30  CMC       -2.4500   -0.5710   38.7150 C.3   1430  HEM1430     0.0000
     31  CAC       -2.6280    2.3330   37.1920 C.2   1430  HEM1430     0.0000
     32  CBC       -3.7850    1.7630   36.7520 C.2   1430  HEM1430     0.0000
     33  ND        -0.2920    5.1940   41.0690 N.ar  1430  HEM1430     0.0000
     34  C1D       -0.7930    5.4030   39.8130 C.ar  1430  HEM1430     0.0000
     35  C2D       -0.8470    6.7800   39.5050 C.ar  1430  HEM1430     0.0000
     36  C3D       -0.4270    7.4880   40.6230 C.ar  1430  HEM1430     0.0000
     37  C4D       -0.1260    6.4690   41.6230 C.ar  1430  HEM1430     0.0000
     38  CMD       -1.2080    7.3600   38.1470 C.3   1430  HEM1430     0.0000
     39  CAD       -0.3220    8.9950   40.7630 C.3   1430  HEM1430     0.0000
     40  CBD       -1.5750    9.4740   41.5230 C.3   1430  HEM1430     0.0000
     41  CGD       -1.5850   10.9920   41.7960 C.2   1430  HEM1430     0.0000
     42  O1D       -0.5190   11.6230   41.6780 O.co2 1430  HEM1430     0.0000
     43  O2D       -2.6600   11.5350   42.1630 O.co2 1430  HEM1430     0.0000
@<TRIPOS>BOND
     1    32    31    2
     2    31    28    1
     3    38    35    1
     4    28    27    2
     5    28    29    1
     6    30    27    1
     7     5    29    1
     8     5    34    2
     9    27    26    1
    10    29    25    2
    11    35    34   ar
    12    35    36   ar
    13    34    33   ar
    14    26    25    1
    15    26     4    2
    16    25     1    1
    17    36    39    1
    18    36    37   ar
    19    39    40    1
    20    33    37   ar
    21    33     1    1
    22     4    21    1
    23    40    41    1
    24    37     2    2
    25    42    41   ar
    26    41    43   ar
    27     1    17    1
    28     1     6    1
    29    21    17   ar
    30    21    20   ar
    31    17    18   ar
    32    23    20    1
    33    23    24    1
    34     2     7    1
    35    20    19   ar
    36     6     7    2
    37     6    10    1
    38     7     8    1
    39    18    19   ar
    40    18     3    1
    41    19    22    1
    42    10     3    2
    43    10     9    1
    44    13    14    1
    45    13    12    1
    46    15    14   ar
    47     8     9    2
    48     8    12    1
    49     9    11    1
    50    14    16   ar
