@<TRIPOS>MOLECULE
1ued_PG4_A_1.pdb
 13 12 0 0 0
SMALL
GASTEIGER

@<TRIPOS>ATOM
      1  O1         4.7100    4.8530   40.6960 O.3   4502  PG44502    -0.2176
      2  C1         4.0440    5.7830   41.5190 C.3   4502  PG44502     0.2140
      3  C2         3.5550    7.0280   40.7660 C.3   4502  PG44502     0.1777
      4  O2         3.3740    6.7510   39.3960 O.3   4502  PG44502    -0.3483
      5  C3         2.8340    7.8330   38.6410 C.3   4502  PG44502     0.1742
      6  C4         3.4180    7.8220   37.2230 C.3   4502  PG44502     0.1742
      7  O3         4.8180    8.0870   37.2660 O.3   4502  PG44502    -0.3484
      8  C5         5.2040    9.2700   36.5850 C.3   4502  PG44502     0.1742
      9  C6         6.7330    9.4410   36.6740 C.3   4502  PG44502     0.1742
     10  O4         7.0030   10.7090   37.2620 O.3   4502  PG44502    -0.3483
     11  C7         8.2980   10.8220   37.8240 C.3   4502  PG44502     0.1777
     12  C8         8.8290   12.2360   37.5410 C.3   4502  PG44502     0.2140
     13  O5         9.3940   12.7920   38.7120 O.3   4502  PG44502    -0.2176
@<TRIPOS>BOND
     1     8     9    1
     2     8     7    1
     3     9    10    1
     4     6     7    1
     5     6     5    1
     6    10    11    1
     7    12    11    1
     8    12    13    1
     9     5     4    1
    10     4     3    1
    11     1     2    1
    12     3     2    1
