@<TRIPOS>MOLECULE
1ueh_OXN_B_1.pdb
 24 24 0 0 0
SMALL
GASTEIGER

@<TRIPOS>ATOM
      1  C5         7.8570   40.0470   25.5690 C.3   801  OXN801      0.0040
      2  C1         6.6700   39.3560   26.1960 C.3   801  OXN801      0.0003
      3  C3         5.8200   38.6040   25.1300 C.3   801  OXN801      0.0000
      4  C4         7.2430   38.3590   27.1990 C.3   801  OXN801      0.0000
      5  C2         5.6680   40.2240   26.9600 C.3   801  OXN801      0.0000
      6  C6         8.1370   41.3650   24.8320 C.3   801  OXN801      0.0189
      7  C9         7.4960   42.5530   25.5960 C.ar  801  OXN801     -0.0226
      8  C8         9.6460   41.5950   24.6910 C.3   801  OXN801      0.0044
      9  C7         7.5700   41.2460   23.4150 C.3   801  OXN801      0.0044
     10  C10        6.3480   43.2580   25.0770 C.ar  801  OXN801     -0.0012
     11  C11        5.7510   44.3690   25.8020 C.ar  801  OXN801      0.0366
     12  C12        6.3440   44.7190   27.0420 C.ar  801  OXN801      0.1387
     13  C13        7.4490   44.0760   27.6030 C.ar  801  OXN801      0.0366
     14  C14        8.0320   42.9840   26.8730 C.ar  801  OXN801     -0.0012
     15  O15        5.8190   45.8210   27.8280 O.3   801  OXN801     -0.4727
     16  C16        4.5830   46.3740   27.4040 C.3   801  OXN801      0.2373
     17  C17        4.1590   47.4240   28.4200 C.3   801  OXN801      0.1894
     18  O18        4.8960   48.6500   28.2020 O.3   801  OXN801     -0.3471
     19  C19        6.2550   48.5980   28.6180 C.3   801  OXN801      0.1743
     20  C20        6.8600   49.9570   28.4820 C.3   801  OXN801      0.1742
     21  O21        6.2790   50.7600   29.4840 O.3   801  OXN801     -0.3483
     22  C22        6.6570   52.1330   29.4320 C.3   801  OXN801      0.1777
     23  C23        5.7390   52.9050   30.3980 C.3   801  OXN801      0.2140
     24  O24        4.5280   52.1550   30.6500 O.3   801  OXN801     -0.2176
@<TRIPOS>BOND
     1     9     6    1
     2     8     6    1
     3     6     1    1
     4     6     7    1
     5    10     7   ar
     6    10    11   ar
     7     3     2    1
     8     1     2    1
     9     7    14   ar
    10    11    12   ar
    11     2     5    1
    12     2     4    1
    13    14    13   ar
    14    12    13   ar
    15    12    15    1
    16    16    15    1
    17    16    17    1
    18    18    17    1
    19    18    19    1
    20    20    19    1
    21    20    21    1
    22    22    21    1
    23    22    23    1
    24    23    24    1
