@<TRIPOS>MOLECULE
1uei_UTP_A_1.pdb
 29 30 0 0 0
SMALL
GASTEIGER

@<TRIPOS>ATOM
      1  PA        12.6940   39.3110   31.1720 P.3   301  UTP301      0.2189
      2  O1A       12.8120   39.2890   29.6300 O.2   301  UTP301     -0.5170
      3  O2A       13.8120   38.4250   31.7750 O.3   301  UTP301     -0.4371
      4  O3A       12.9270   40.7990   31.8690 O.3   301  UTP301     -0.2700
      5  O5'       11.2220   38.5480   31.5340 O.3   301  UTP301     -0.3112
      6  PB        13.2890   42.0690   30.9110 P.3   301  UTP301      0.2277
      7  O1B       13.5240   43.2300   31.8810 O.3   301  UTP301     -0.4368
      8  O2B       12.0900   42.3760   29.9580 O.2   301  UTP301     -0.5168
      9  O3B       14.6460   41.6050   30.0640 O.3   301  UTP301     -0.2258
     10  PG        16.2070   42.1690   30.1570 P.3   301  UTP301      0.5373
     11  O1G       16.1650   43.6910   29.7770 O.3   301  UTP301     -0.1143
     12  O2G       16.8980   41.2870   29.1150 O.2   301  UTP301     -0.2221
     13  O3G       16.7290   41.9530   31.6050 O.3   301  UTP301     -0.1143
     14  C5'       11.4630   37.1950   31.4810 C.3   301  UTP301      0.1813
     15  C4'       11.1350   36.3510   32.6440 C.3   301  UTP301      0.1799
     16  O4'       10.4100   36.8060   33.7820 O.3   301  UTP301     -0.3320
     17  C1'        9.8120   35.6380   34.3240 C.3   301  UTP301      0.2401
     18  C2'        9.5470   34.7060   33.1060 C.3   301  UTP301      0.2319
     19  O2'        9.5960   33.3340   33.5050 O.3   301  UTP301     -0.2157
     20  C3'       10.5970   35.0780   32.1090 C.3   301  UTP301      0.2158
     21  O3'       11.7440   34.2420   32.0840 O.3   301  UTP301     -0.2175
     22  N1         8.5500   35.9100   35.0320 N.am  301  UTP301     -0.1766
     23  C6         7.4840   36.4940   34.3650 C.2   301  UTP301      0.0929
     24  C2         8.4460   35.5380   36.3910 C.1   301  UTP301      0.2845
     25  O2         9.3480   35.0200   37.0260 O.2   301  UTP301     -0.1918
     26  N3         7.2180   35.8090   36.9670 N.2   301  UTP301     -0.2452
     27  C4         6.0930   36.3970   36.3510 C.1   301  UTP301      0.2182
     28  O4         5.0540   36.5710   37.0030 O.2   301  UTP301     -0.2085
     29  C5         6.2670   36.7530   34.9680 C.2   301  UTP301      0.1242
@<TRIPOS>BOND
     1    12    10    2
     2     2     1    2
     3    11    10    1
     4     8     6    2
     5     9    10    1
     6     9     6    1
     7    10    13    1
     8     6     4    1
     9     6     7    1
    10     1     5    1
    11     1     3    1
    12     1     4    1
    13    14     5    1
    14    14    15    1
    15    21    20    1
    16    20    15    1
    17    20    18    1
    18    15    16    1
    19    18    19    1
    20    18    17    1
    21    16    17    1
    22    17    22    1
    23    23    29    2
    24    23    22    1
    25    29    27    1
    26    22    24   am
    27    27    26    2
    28    27    28    2
    29    24    26    2
    30    24    25    2
