@<TRIPOS>MOLECULE
1uej_CTN_A_1.pdb
 17 18 0 0 0
SMALL
GASTEIGER

@<TRIPOS>ATOM
      1  O5'       12.1490   38.7200   31.9590 O.3   301  CTN301     -0.2176
      2  C5'       12.3660   37.3640   31.7250 C.3   301  CTN301      0.2142
      3  C4'       12.4370   36.5980   32.9950 C.3   301  CTN301      0.1829
      4  O4'       11.4450   36.8890   33.9880 O.3   301  CTN301     -0.3318
      5  C1'       11.2000   35.7270   34.6890 C.3   301  CTN301      0.2400
      6  N1         9.9230   35.8820   35.4220 N.am  301  CTN301     -0.1778
      7  C6         8.7630   36.3050   34.7680 C.2   301  CTN301      0.0836
      8  C5         7.5300   36.4740   35.3930 C.2   301  CTN301      0.0687
      9  C4         7.5120   36.1870   36.7740 C.2   301  CTN301      0.2346
     10  N3         8.6610   35.7640   37.4550 N.2   301  CTN301     -0.3024
     11  C2         9.8310   35.6200   36.7860 C.1   301  CTN301      0.2756
     12  O2        10.8080   35.2360   37.4740 O.2   301  CTN301     -0.1925
     13  N4         6.3900   36.3090   37.4840 N.pl3 301  CTN301     -0.0921
     14  C2'       11.1710   34.6280   33.6380 C.3   301  CTN301      0.2319
     15  O2'       11.6000   33.3820   34.1820 O.3   301  CTN301     -0.2157
     16  C3'       12.0440   35.1960   32.5290 C.3   301  CTN301      0.2159
     17  O3'       13.2790   34.5380   32.3640 O.3   301  CTN301     -0.2175
@<TRIPOS>BOND
     1     2     1    1
     2     2     3    1
     3    17    16    1
     4    16     3    1
     5    16    14    1
     6     3     4    1
     7    14    15    1
     8    14     5    1
     9     4     5    1
    10     5     6    1
    11     7     8    2
    12     7     6    1
    13     8     9    1
    14     6    11   am
    15     9    10    2
    16     9    13    1
    17    11    10    2
    18    11    12    2
