@<TRIPOS>MOLECULE
1ueu_CTP_A_1.pdb
 29 30 0 0 0
SMALL
GASTEIGER

@<TRIPOS>ATOM
      1  N1        15.2690   28.7060   35.4640 N.am  501  CTP501     -0.1778
      2  C2        14.1790   29.4580   34.9430 C.1   501  CTP501      0.2756
      3  N3        14.3840   30.7760   34.5030 N.2   501  CTP501     -0.3024
      4  C4        15.6740   31.3660   34.5950 C.2   501  CTP501      0.2346
      5  C5        16.7400   30.6260   35.0630 C.2   501  CTP501      0.0687
      6  C6        16.5400   29.3030   35.4990 C.2   501  CTP501      0.0836
      7  O2        13.0300   28.9910   34.8770 O.2   501  CTP501     -0.1925
      8  N4        15.8550   32.6250   34.1880 N.pl3 501  CTP501     -0.0921
      9  C1'       15.2470   27.2420   35.7820 C.3   501  CTP501      0.2400
     10  C2'       13.9190   26.4750   35.7920 C.3   501  CTP501      0.2319
     11  O2'       13.4020   26.4920   37.1230 O.3   501  CTP501     -0.2157
     12  C3'       14.3800   25.0470   35.4460 C.3   501  CTP501      0.2158
     13  C4'       15.6550   25.2520   34.6180 C.3   501  CTP501      0.1799
     14  O4'       16.1290   26.5910   34.8420 O.3   501  CTP501     -0.3320
     15  O3'       14.5510   24.1460   36.5420 O.3   501  CTP501     -0.2175
     16  C5'       15.0380   25.3000   33.2220 C.3   501  CTP501      0.1813
     17  O5'       13.6450   25.3280   33.5240 O.3   501  CTP501     -0.3112
     18  PA        12.5500   26.2030   32.7420 P.3   501  CTP501      0.2189
     19  O1A       13.1900   27.2470   31.9070 O.2   501  CTP501     -0.5170
     20  O2A       11.4750   26.6210   33.6740 O.3   501  CTP501     -0.4371
     21  O3A       12.0620   25.0050   31.7830 O.3   501  CTP501     -0.2700
     22  PB        12.1580   23.4610   32.2590 P.3   501  CTP501      0.2277
     23  O1B       12.4880   23.3530   33.7040 O.3   501  CTP501     -0.4368
     24  O2B       13.0090   22.7120   31.2990 O.2   501  CTP501     -0.5168
     25  O3B       10.5920   23.0830   32.1150 O.3   501  CTP501     -0.2258
     26  PG         9.9890   21.6750   31.5910 P.3   501  CTP501      0.5373
     27  O1G        9.8690   21.6760   30.1140 O.2   501  CTP501     -0.2221
     28  O2G        8.7690   21.4120   32.3870 O.3   501  CTP501     -0.1143
     29  O3G       11.0900   20.5720   32.0050 O.3   501  CTP501     -0.1143
@<TRIPOS>BOND
     1    27    26    2
     2    24    22    2
     3    26    29    1
     4    26    25    1
     5    26    28    1
     6    21    22    1
     7    21    18    1
     8    19    18    2
     9    25    22    1
    10    22    23    1
    11    18    17    1
    12    18    20    1
    13    16    17    1
    14    16    13    1
    15     8     4    1
    16     3     4    2
    17     3     2    2
    18     4     5    1
    19    13    14    1
    20    13    12    1
    21    14     9    1
    22     7     2    2
    23     2     1   am
    24     5     6    2
    25    12    10    1
    26    12    15    1
    27     1     6    1
    28     1     9    1
    29     9    10    1
    30    10    11    1
