@<TRIPOS>MOLECULE
1uev_ATP_A_1.pdb
 31 33 0 0 0
SMALL
GASTEIGER

@<TRIPOS>ATOM
      1  PG         9.8270   22.8190   31.3150 P.3   501  ATP501      0.5373
      2  O1G        9.4010   22.3410   29.9820 O.2   501  ATP501     -0.2221
      3  O2G        9.4040   22.0460   32.5010 O.3   501  ATP501     -0.1143
      4  O3G       11.4310   22.9050   31.3150 O.3   501  ATP501     -0.1143
      5  PB        10.0450   25.6100   30.7460 P.3   501  ATP501      0.2277
      6  O1B       11.0560   25.0900   29.7980 O.2   501  ATP501     -0.5168
      7  O2B        8.9320   26.4140   30.1930 O.3   501  ATP501     -0.4368
      8  O3B        9.3890   24.3540   31.5150 O.3   501  ATP501     -0.2258
      9  PA        12.1750   26.4130   32.5110 P.3   501  ATP501      0.2189
     10  O1A       12.1230   27.0970   33.8220 O.3   501  ATP501     -0.4371
     11  O2A       13.1540   26.8910   31.5110 O.2   501  ATP501     -0.5170
     12  O3A       10.6770   26.5110   31.9280 O.3   501  ATP501     -0.2700
     13  O5'       12.3460   24.8180   32.6390 O.3   501  ATP501     -0.3112
     14  C5'       13.4880   24.1850   33.2190 C.3   501  ATP501      0.1813
     15  C4'       13.4880   24.2700   34.7320 C.3   501  ATP501      0.1821
     16  O4'       14.3200   25.4400   34.9690 O.3   501  ATP501     -0.3135
     17  C3'       12.1480   24.4790   35.4520 C.3   501  ATP501      0.2184
     18  O3'       12.0210   23.6720   36.6280 O.3   501  ATP501     -0.2174
     19  C2'       12.2150   25.9680   35.8250 C.3   501  ATP501      0.2570
     20  O2'       11.5320   26.2680   37.0200 O.3   501  ATP501     -0.2130
     21  C1'       13.7240   26.2010   36.0060 C.3   501  ATP501      0.3186
     22  N9        14.3370   27.5680   36.0230 N.pl3 501  ATP501     -0.1439
     23  C8        15.5270   27.8860   36.5440 C.3   501  ATP501      0.3377
     24  N7        15.8510   29.1280   36.1850 N.2   501  ATP501     -0.2095
     25  C5        14.8570   29.6300   35.4500 C.2   501  ATP501      0.2526
     26  C6        14.6410   30.8430   34.7950 C.2   501  ATP501      0.4393
     27  N6        15.5140   31.8520   34.8040 N.pl3 501  ATP501      0.2180
     28  N1        13.4930   30.9820   34.1050 N.2   501  ATP501      0.0021
     29  C2        12.5760   30.0350   34.0360 C.3   501  ATP501      0.5254
     30  N3        12.7630   28.8780   34.6590 N.2   501  ATP501     -0.0055
     31  C4        13.8840   28.6360   35.3600 C.2   501  ATP501      0.3518
@<TRIPOS>BOND
     1     6     5    2
     2     2     1    2
     3     7     5    1
     4     5     8    1
     5     5    12    1
     6     1     4    1
     7     1     8    1
     8     1     3    1
     9    11     9    2
    10    12     9    1
    11     9    13    1
    12     9    10    1
    13    13    14    1
    14    14    15    1
    15    29    28    1
    16    29    30    1
    17    28    26    2
    18    30    31    2
    19    15    16    1
    20    15    17    1
    21    26    27    1
    22    26    25    1
    23    16    21    1
    24    31    25    1
    25    31    22    1
    26    25    24    2
    27    17    19    1
    28    17    18    1
    29    19    21    1
    30    19    20    1
    31    21    22    1
    32    22    23    1
    33    24    23    1
