@<TRIPOS>MOLECULE
1uf5_CDT_A_1.pdb
 12 11 0 0 0
SMALL
GASTEIGER

@<TRIPOS>ATOM
      1  NT        53.3140   80.0350   -4.4530 N.am  998  CDT998     -0.0679
      2  CT        52.7360   80.2950   -3.2630 C.2   998  CDT998      0.3594
      3  OT        52.3220   81.4240   -3.0230 O.2   998  CDT998     -0.2474
      4  N         52.6080   79.2910   -2.3500 N.am  998  CDT998     -0.1760
      5  CA        52.0920   79.5120   -0.9810 C.3   998  CDT998      0.2003
      6  CB        52.6050   78.3720   -0.0750 C.3   998  CDT998      0.0450
      7  CG        52.1950   78.5570    1.4080 C.3   998  CDT998      0.0599
      8  SD        52.9160   80.0720    2.1280 S.3   998  CDT998     -0.1393
      9  CE        54.6810   79.8160    1.7900 C.3   998  CDT998      0.0692
     10  C         50.5700   79.5310   -0.9960 C.2   998  CDT998      0.3843
     11  O         49.9460   78.7450   -1.6780 O.co2 998  CDT998     -0.2437
     12  OXT       49.9260   80.4230   -0.2450 O.co2 998  CDT998     -0.2437
@<TRIPOS>BOND
     1     1     2   am
     2     2     3    2
     3     2     4   am
     4     4     5    1
     5    11    10   ar
     6    10     5    1
     7    10    12   ar
     8     5     6    1
     9     6     7    1
    10     7     8    1
    11     9     8    1
