@<TRIPOS>MOLECULE
1uf7_CDV_B_1.pdb
 11 10 0 0 0
SMALL
GASTEIGER

@<TRIPOS>ATOM
      1  NT        53.3920   80.1280   -4.3970 N.am  998  CDV998     -0.0679
      2  CT        52.7880   80.4330   -3.2230 C.2   998  CDV998      0.3594
      3  OT        52.3780   81.5700   -3.0420 O.2   998  CDV998     -0.2474
      4  N         52.6410   79.4650   -2.2640 N.am  998  CDV998     -0.1760
      5  CA        52.0710   79.7330   -0.9480 C.3   998  CDV998      0.1993
      6  CB        52.5480   78.6450    0.0420 C.3   998  CDV998      0.0311
      7  CG1       54.0640   78.7120    0.1940 C.3   998  CDV998      0.0023
      8  CG2       51.9180   78.8350    1.4270 C.3   998  CDV998      0.0023
      9  C         50.5550   79.7340   -1.0620 C.2   998  CDV998      0.3843
     10  O         49.9840   78.9130   -1.7560 O.co2 998  CDV998     -0.2437
     11  OXT       49.8480   80.6440   -0.3850 O.co2 998  CDV998     -0.2437
@<TRIPOS>BOND
     1     1     2   am
     2     2     3    2
     3     2     4   am
     4     4     5    1
     5    10     9   ar
     6     9     5    1
     7     9    11   ar
     8     5     6    1
     9     6     7    1
    10     6     8    1
