@<TRIPOS>MOLECULE
1uf8_ING_A_1.pdb
 15 15 0 0 0
SMALL
GASTEIGER

@<TRIPOS>ATOM
      1  N         15.0600   10.5840   36.4000 N.am  999  ING999     -0.1757
      2  CA        15.6660   10.7950   35.0730 C.3   999  ING999      0.2037
      3  C         17.1720   10.7820   35.1820 C.2   999  ING999      0.3846
      4  O         17.8060   10.0860   35.9360 O.co2 999  ING999     -0.2437
      5  CG        14.5340   10.2540   32.9240 C.ar  999  ING999     -0.0199
      6  CB        15.2240    9.6820   34.1220 C.3   999  ING999      0.0597
      7  CD1       15.3110   10.5230   31.7410 C.ar  999  ING999     -0.0042
      8  CD2       13.1160   10.5230   32.9290 C.ar  999  ING999     -0.0042
      9  CE1       14.6710   11.0470   30.5590 C.ar  999  ING999     -0.0003
     10  CE2       12.4730   11.0350   31.7440 C.ar  999  ING999     -0.0003
     11  CZ        13.2500   11.2860   30.5540 C.ar  999  ING999     -0.0000
     12  OXT       17.6990   11.6550   34.3210 O.co2 999  ING999     -0.2437
     13  C1        14.9470   11.5990   37.3340 C.2   999  ING999      0.3594
     14  N1        14.3700   11.3000   38.5430 N.am  999  ING999     -0.0679
     15  O1        15.3490   12.7210   37.1020 O.2   999  ING999     -0.2474
@<TRIPOS>BOND
     1    11     9   ar
     2    11    10   ar
     3     9     7   ar
     4     7     5   ar
     5    10     8   ar
     6     5     8   ar
     7     5     6    1
     8     6     2    1
     9    12     3   ar
    10     2     3    1
    11     2     1    1
    12     3     4   ar
    13     1    13   am
    14    15    13    2
    15    13    14   am
