@<TRIPOS>MOLECULE
1uf9_ATP_C_1.pdb
 31 33 0 0 0
SMALL
GASTEIGER

@<TRIPOS>ATOM
      1  PG       -34.6270   96.3550   31.9440 P.3   500  ATP500      0.5373
      2  O1G      -33.9730   95.4280   32.9170 O.3   500  ATP500     -0.1143
      3  O2G      -34.0260   97.6950   31.5270 O.2   500  ATP500     -0.2221
      4  O3G      -36.1160   96.6340   32.2230 O.3   500  ATP500     -0.1143
      5  PB       -35.0690   93.9330   30.5710 P.3   500  ATP500      0.2277
      6  O1B      -34.4540   93.3090   31.7660 O.3   500  ATP500     -0.4368
      7  O2B      -36.5360   93.8510   30.4140 O.2   500  ATP500     -0.5168
      8  O3B      -34.6450   95.4960   30.5660 O.3   500  ATP500     -0.2258
      9  PA       -35.1580   93.2040   27.8440 P.3   500  ATP500      0.2189
     10  O1A      -35.6840   91.8430   27.5670 O.3   500  ATP500     -0.4371
     11  O2A      -35.6540   94.4410   27.2160 O.2   500  ATP500     -0.5170
     12  O3A      -34.3470   93.3400   29.2480 O.3   500  ATP500     -0.2700
     13  O5'      -33.7900   93.0680   26.9920 O.3   500  ATP500     -0.3112
     14  C5'      -32.9030   94.1870   26.8610 C.3   500  ATP500      0.1813
     15  C4'      -31.8500   93.9480   25.7670 C.3   500  ATP500      0.1821
     16  O4'      -31.1330   92.7000   26.0640 O.3   500  ATP500     -0.3135
     17  C3'      -32.5290   93.7290   24.4100 C.3   500  ATP500      0.2184
     18  O3'      -31.7660   94.3710   23.3890 O.3   500  ATP500     -0.2174
     19  C2'      -32.4950   92.2350   24.2160 C.3   500  ATP500      0.2570
     20  O2'      -32.4180   91.9310   22.8220 O.3   500  ATP500     -0.2130
     21  C1'      -31.1970   91.8390   24.8970 C.3   500  ATP500      0.3186
     22  N9       -31.1440   90.3910   25.2640 N.pl3 500  ATP500     -0.1439
     23  C8       -32.0760   89.7060   25.9500 C.3   500  ATP500      0.3377
     24  N7       -31.6810   88.4350   26.0800 N.2   500  ATP500     -0.2095
     25  C5       -30.5050   88.3130   25.4810 C.2   500  ATP500      0.2526
     26  C6       -29.6260   87.2470   25.2920 C.2   500  ATP500      0.4393
     27  N6       -29.9340   86.0360   25.7490 N.pl3 500  ATP500      0.2180
     28  N1       -28.4660   87.4530   24.6220 N.2   500  ATP500      0.0021
     29  C2       -28.1560   88.6640   24.1370 C.3   500  ATP500      0.5254
     30  N3       -28.9880   89.7020   24.3020 N.2   500  ATP500     -0.0055
     31  C4       -30.1600   89.5510   24.9650 C.2   500  ATP500      0.3518
@<TRIPOS>BOND
     1    20    19    1
     2    18    17    1
     3    29    30    1
     4    29    28    1
     5    19    17    1
     6    19    21    1
     7    30    31    2
     8    17    15    1
     9    28    26    2
    10    21    22    1
    11    21    16    1
    12    31    22    1
    13    31    25    1
    14    22    23    1
    15    26    25    1
    16    26    27    1
    17    25    24    2
    18    15    16    1
    19    15    14    1
    20    23    24    1
    21    14    13    1
    22    13     9    1
    23    11     9    2
    24    10     9    1
    25     9    12    1
    26    12     5    1
    27     7     5    2
    28     8     5    1
    29     8     1    1
    30     5     6    1
    31     3     1    2
    32     1     4    1
    33     1     2    1
