@<TRIPOS>MOLECULE
1ufj_CZM_A_1.pdb
 26 28 0 0 0
SMALL
GASTEIGER

@<TRIPOS>ATOM
      1  OA         1.0510    6.0780    4.6660 O.3   180  CZM180     -0.2869
      2  CA2        1.9700    7.0490    4.9960 C.ar  180  CZM180      0.1931
      3  CA3        2.1220    7.3740    6.3490 C.ar  180  CZM180      0.0171
      4  CA4        3.0430    8.3520    6.7040 C.ar  180  CZM180     -0.0011
      5  CA5        3.8040    9.0000    5.7470 C.ar  180  CZM180     -0.0001
      6  CA6        3.6520    8.6780    4.4110 C.ar  180  CZM180      0.0047
      7  CA1        2.7480    7.7140    3.9960 C.ar  180  CZM180      0.0577
      8  CA         2.6030    7.4140    2.5970 C.2   180  CZM180      0.1020
      9  NA         1.6550    6.7150    2.0590 N.2   180  CZM180     -0.2422
     10  CC1        1.5800    6.4700    0.6450 C.ar  180  CZM180      0.0989
     11  CC6        2.3190    7.1930   -0.3020 C.ar  180  CZM180      0.0206
     12  CC5        2.1900    6.9300   -1.6690 C.ar  180  CZM180      0.0016
     13  CC4        1.3060    5.9300   -2.1000 C.ar  180  CZM180      0.0016
     14  CC3        0.5700    5.2110   -1.1480 C.ar  180  CZM180      0.0206
     15  CC2        0.7010    5.4660    0.2170 C.ar  180  CZM180      0.0989
     16  NB         0.0360    4.6950    1.2380 N.2   180  CZM180     -0.2422
     17  CB        -0.5740    3.5870    0.9650 C.2   180  CZM180      0.1020
     18  CB1       -1.2490    2.7190    1.8990 C.ar  180  CZM180      0.0577
     19  CB6       -1.6870    1.4640    1.4910 C.ar  180  CZM180      0.0047
     20  CB5       -2.2360    0.5570    2.3960 C.ar  180  CZM180     -0.0001
     21  CB4       -2.3510    0.9070    3.7340 C.ar  180  CZM180     -0.0011
     22  CB3       -1.9360    2.1490    4.1920 C.ar  180  CZM180      0.0171
     23  CB2       -1.3950    3.0550    3.2810 C.ar  180  CZM180      0.1931
     24  OB        -1.0380    4.2900    3.7610 O.3   180  CZM180     -0.2869
     25  CB7       -2.0540    2.4600    5.6510 C.3   180  CZM180      0.0344
     26  CA7        1.3300    6.7130    7.4310 C.3   180  CZM180      0.0344
@<TRIPOS>BOND
     1    13    12   ar
     2    13    14   ar
     3    12    11   ar
     4    14    15   ar
     5    11    10   ar
     6    15    10   ar
     7    15    16    1
     8    10     9    1
     9    17    16    2
    10    17    18    1
    11    19    18   ar
    12    19    20   ar
    13    18    23   ar
    14     9     8    2
    15    20    21   ar
    16     8     7    1
    17    23    24    1
    18    23    22   ar
    19    21    22   ar
    20     7     6   ar
    21     7     2   ar
    22    22    25    1
    23     6     5   ar
    24     1     2    1
    25     2     3   ar
    26     5     4   ar
    27     3     4   ar
    28     3    26    1
