@<TRIPOS>MOLECULE
1ugu_HC4_A_1.pdb
 11 11 0 0 0
SMALL
GASTEIGER

@<TRIPOS>ATOM
      1  C1        11.9180   -2.1720  -19.4230 C.2   169  HC4169      0.2343
      2  O1        11.8430   -2.0820  -20.6360 O.2   169  HC4169     -0.2831
      3  C2        12.4640   -3.3720  -18.7780 C.2   169  HC4169      0.0454
      4  C3        12.6170   -4.5130  -19.4530 C.2   169  HC4169      0.0034
      5  C1'       13.3210   -5.6850  -18.9020 C.ar  169  HC4169      0.0003
      6  C2'       13.6600   -6.7330  -19.7750 C.ar  169  HC4169      0.0033
      7  C3'       14.4240   -7.8110  -19.3180 C.ar  169  HC4169      0.0420
      8  C4'       14.9030   -7.8020  -18.0200 C.ar  169  HC4169      0.1957
      9  C5'       14.6130   -6.7430  -17.1760 C.ar  169  HC4169      0.0420
     10  C6'       13.8540   -5.6790  -17.6170 C.ar  169  HC4169      0.0033
     11  O4'       15.6560   -8.8010  -17.5610 O.3   169  HC4169     -0.2866
@<TRIPOS>BOND
     1     2     1    2
     2     6     7   ar
     3     6     5   ar
     4     4     5    1
     5     4     3    2
     6     1     3    1
     7     7     8   ar
     8     5    10   ar
     9     8    11    1
    10     8     9   ar
    11    10     9   ar
