@<TRIPOS>MOLECULE
1ugw_GAL_A_1.pdb
 12 12 0 0 0
SMALL
GASTEIGER

@<TRIPOS>ATOM
      1  C1        51.6000   54.8790   66.4450 C.3   200  GAL200      0.3024
      2  C2        52.3290   56.2270   66.1850 C.3   200  GAL200      0.2434
      3  C3        52.2690   57.1440   67.4150 C.3   200  GAL200      0.2199
      4  C4        50.8020   57.2860   67.8870 C.3   200  GAL200      0.2144
      5  C5        50.2500   55.8880   68.1320 C.3   200  GAL200      0.1836
      6  C6        48.8390   55.8830   68.6790 C.3   200  GAL200      0.2142
      7  O1        51.4950   54.1580   65.2640 O.3   200  GAL200     -0.1869
      8  O2        53.6850   55.9710   65.8490 O.3   200  GAL200     -0.2148
      9  O3        52.7810   58.4100   67.0500 O.3   200  GAL200     -0.2174
     10  O4        50.0350   57.9420   66.8770 O.3   200  GAL200     -0.2176
     11  O5        50.2660   55.1280   66.9050 O.3   200  GAL200     -0.3236
     12  O6        47.8880   56.1630   67.6700 O.3   200  GAL200     -0.2176
@<TRIPOS>BOND
     1     7     1    1
     2     8     2    1
     3     2     1    1
     4     2     3    1
     5     1    11    1
     6    10     4    1
     7    11     5    1
     8     9     3    1
     9     3     4    1
    10    12     6    1
    11     4     5    1
    12     5     6    1
