@<TRIPOS>MOLECULE
1ugx_MGC_A_1.pdb
 16 16 0 0 0
SMALL
GASTEIGER

@<TRIPOS>ATOM
      1  O6        32.0040   32.6350   26.5090 O.3   135  MGC135     -0.2176
      2  C6        32.8500   33.0820   27.5500 C.3   135  MGC135      0.2142
      3  C5        34.2970   32.5870   27.4100 C.3   135  MGC135      0.1834
      4  O5        34.3580   31.0970   27.0990 O.3   135  MGC135     -0.3262
      5  C1        35.7100   30.4760   26.9570 C.3   135  MGC135      0.2586
      6  O1        36.3570   30.4950   28.2390 O.3   135  MGC135     -0.3265
      7  CM        35.7250   29.7650   29.4700 C.3   135  MGC135      0.1769
      8  C2        36.5020   31.2500   25.9000 C.3   135  MGC135      0.1842
      9  N2        37.7340   30.5590   25.8660 N.am  135  MGC135     -0.1992
     10  C7        38.4030   30.2170   24.7300 C.2   135  MGC135      0.2420
     11  O7        37.8600   30.1380   23.6130 O.2   135  MGC135     -0.2733
     12  C8        39.8880   29.9270   24.8530 C.3   135  MGC135      0.0964
     13  C3        36.5490   32.7350   26.2580 C.3   135  MGC135      0.2094
     14  O3        37.2990   33.3920   25.2820 O.3   135  MGC135     -0.2183
     15  C4        35.1040   33.3520   26.2630 C.3   135  MGC135      0.2136
     16  O4        34.5370   33.0940   24.9530 O.3   135  MGC135     -0.2176
@<TRIPOS>BOND
     1    11    10    2
     2    10    12    1
     3    10     9   am
     4    16    15    1
     5    14    13    1
     6     9     8    1
     7     8    13    1
     8     8     5    1
     9    13    15    1
    10    15     3    1
    11     1     2    1
    12     5     4    1
    13     5     6    1
    14     4     3    1
    15     3     2    1
    16     6     7    1
