@<TRIPOS>MOLECULE
1ugy_GLA_A_1.pdb
 11 11 0 0 0
SMALL
GASTEIGER

@<TRIPOS>ATOM
      1  C1        51.6000   54.6100   66.4430 C.3   200  GLA200      0.1777
      2  C2        52.3750   55.8880   66.1460 C.3   200  GLA200      0.2141
      3  C3        52.3560   56.8120   67.3510 C.3   200  GLA200      0.2173
      4  C4        50.9200   57.0360   67.8360 C.3   200  GLA200      0.2142
      5  C5        50.2380   55.6870   68.1010 C.3   200  GLA200      0.1810
      6  C6        48.8000   55.7580   68.6030 C.3   200  GLA200      0.2141
      7  O2        53.7220   55.5480   65.8430 O.3   200  GLA200     -0.2176
      8  O3        52.9760   58.0550   67.0190 O.3   200  GLA200     -0.2175
      9  O4        50.2100   57.7790   66.8600 O.3   200  GLA200     -0.2176
     10  O5        50.2780   54.8910   66.9000 O.3   200  GLA200     -0.3481
     11  O6        47.8940   55.9580   67.5360 O.3   200  GLA200     -0.2176
@<TRIPOS>BOND
     1     7     2    1
     2     2     1    1
     3     2     3    1
     4     1    10    1
     5     9     4    1
     6    10     5    1
     7     8     3    1
     8     3     4    1
     9    11     6    1
    10     4     5    1
    11     5     6    1
