@<TRIPOS>MOLECULE
1ugy_GLC_A_1.pdb
 12 12 0 0 0
SMALL
GASTEIGER

@<TRIPOS>ATOM
      1  C1        53.2960   49.8590   69.4860 C.3   201  GLC201      0.3024
      2  C2        53.8220   48.9900   68.3470 C.3   201  GLC201      0.2434
      3  C3        54.4840   49.8880   67.2910 C.3   201  GLC201      0.2199
      4  C4        53.5510   51.0100   66.8570 C.3   201  GLC201      0.2144
      5  C5        52.8610   51.6870   68.0470 C.3   201  GLC201      0.1836
      6  C6        51.7600   52.5500   67.5540 C.3   201  GLC201      0.2142
      7  O1        52.7380   49.0840   70.4910 O.3   201  GLC201     -0.1869
      8  O2        54.7540   48.0400   68.8400 O.3   201  GLC201     -0.2148
      9  O3        54.8280   49.1180   66.1500 O.3   201  GLC201     -0.2174
     10  O4        54.3060   51.9910   66.1570 O.3   201  GLC201     -0.2176
     11  O5        52.2940   50.7350   68.9620 O.3   201  GLC201     -0.3236
     12  O6        52.3130   53.8560   67.3580 O.3   201  GLC201     -0.2176
@<TRIPOS>BOND
     1     9     3    1
     2    10     4    1
     3     4     3    1
     4     4     5    1
     5     3     2    1
     6    12     6    1
     7     6     5    1
     8     5    11    1
     9     2     8    1
    10     2     1    1
    11    11     1    1
    12     1     7    1
