@<TRIPOS>MOLECULE
1ugy_BGC_E_1.pdb
 12 12 0 0 0
SMALL
GASTEIGER

@<TRIPOS>ATOM
      1  C2        14.5360   87.9160   24.6470 C.3   201  BGC201      0.2434
      2  C3        14.1240   89.3840   24.8680 C.3   201  BGC201      0.2199
      3  C4        14.4680   89.8230   26.2820 C.3   201  BGC201      0.2144
      4  C5        15.9470   89.5800   26.4780 C.3   201  BGC201      0.1836
      5  C6        16.5170   90.0810   27.7520 C.3   201  BGC201      0.2142
      6  C1        15.9700   87.6340   25.1290 C.3   201  BGC201      0.3024
      7  O1        16.2020   86.2570   25.1770 O.3   201  BGC201     -0.1869
      8  O2        14.4400   87.5890   23.2620 O.3   201  BGC201     -0.2148
      9  O3        12.7280   89.5570   24.6270 O.3   201  BGC201     -0.2174
     10  O4        14.1640   91.2010   26.4170 O.3   201  BGC201     -0.2176
     11  O5        16.1990   88.1780   26.4360 O.3   201  BGC201     -0.3236
     12  O6        15.8870   89.4390   28.8690 O.3   201  BGC201     -0.2176
@<TRIPOS>BOND
     1     8     1    1
     2     9     2    1
     3     1     2    1
     4     1     6    1
     5     2     3    1
     6     6     7    1
     7     6    11    1
     8     3    10    1
     9     3     4    1
    10    11     4    1
    11     4     5    1
    12     5    12    1
