@<TRIPOS>MOLECULE
1uh0_MGC_A_1.pdb
 16 16 0 0 0
SMALL
GASTEIGER

@<TRIPOS>ATOM
      1  O6        16.3050   51.0350   16.3100 O.3   1200  MGC1200    -0.2176
      2  C6        16.2490   51.1220   14.9020 C.3   1200  MGC1200     0.2142
      3  C5        15.3320   50.7000   13.7530 C.3   1200  MGC1200     0.1834
      4  O5        15.1690   49.2580   13.7440 O.3   1200  MGC1200    -0.3262
      5  C1        14.3510   48.6890   12.7030 C.3   1200  MGC1200     0.2586
      6  O1        15.1170   48.5880   11.5100 O.3   1200  MGC1200    -0.3265
      7  CM        16.1600   47.8080   10.9200 C.3   1200  MGC1200     0.1769
      8  C2        12.9540   49.3700   12.7610 C.3   1200  MGC1200     0.1842
      9  N2        12.1370   48.9990   11.5890 N.am  1200  MGC1200    -0.1992
     10  C7        11.0100   48.2940   11.9050 C.2   1200  MGC1200     0.2420
     11  O7        10.6810   47.9830   13.0530 O.2   1200  MGC1200    -0.2733
     12  C8        10.1100   47.8770   10.7420 C.3   1200  MGC1200     0.0964
     13  C3        13.0740   50.9000   12.7330 C.3   1200  MGC1200     0.2094
     14  O3        11.7830   51.4930   12.7940 O.3   1200  MGC1200    -0.2183
     15  C4        13.9410   51.3650   13.9030 C.3   1200  MGC1200     0.2136
     16  O4        13.3230   51.0410   15.1400 O.3   1200  MGC1200    -0.2176
@<TRIPOS>BOND
     1    12    10    1
     2     7     6    1
     3     6     5    1
     4     9    10   am
     5     9     8    1
     6    10    11    2
     7     5     8    1
     8     5     4    1
     9    13     8    1
    10    13    14    1
    11    13    15    1
    12     4     3    1
    13     3    15    1
    14     3     2    1
    15    15    16    1
    16     2     1    1
