@<TRIPOS>MOLECULE
1uh1_MGC_A_1.pdb
 16 16 0 0 0
SMALL
GASTEIGER

@<TRIPOS>ATOM
      1  O6        16.2270   50.8080   16.3100 O.3   1200  MGC1200    -0.2176
      2  C6        16.0870   51.0090   14.9120 C.3   1200  MGC1200     0.2142
      3  C5        15.1790   50.5630   13.7660 C.3   1200  MGC1200     0.1834
      4  O5        15.0330   49.1170   13.7640 O.3   1200  MGC1200    -0.3262
      5  C1        14.2320   48.5430   12.7230 C.3   1200  MGC1200     0.2586
      6  O1        15.0010   48.4950   11.5360 O.3   1200  MGC1200    -0.3265
      7  CM        16.0680   47.7660   10.9360 C.3   1200  MGC1200     0.1769
      8  C2        12.8140   49.1810   12.7950 C.3   1200  MGC1200     0.1842
      9  N2        11.9890   48.7660   11.6440 N.am  1200  MGC1200    -0.1992
     10  C7        10.7830   48.2080   11.9820 C.2   1200  MGC1200     0.2420
     11  O7        10.3830   48.0490   13.1410 O.2   1200  MGC1200    -0.2733
     12  C8         9.8900   47.7660   10.8280 C.3   1200  MGC1200     0.0964
     13  C3        12.9020   50.7160   12.7480 C.3   1200  MGC1200     0.2094
     14  O3        11.6080   51.2920   12.8180 O.3   1200  MGC1200    -0.2183
     15  C4        13.7780   51.2170   13.9020 C.3   1200  MGC1200     0.2136
     16  O4        13.1760   50.9350   15.1540 O.3   1200  MGC1200    -0.2176
@<TRIPOS>BOND
     1    12    10    1
     2     7     6    1
     3     6     5    1
     4     9    10   am
     5     9     8    1
     6    10    11    2
     7     5     8    1
     8     5     4    1
     9    13     8    1
    10    13    14    1
    11    13    15    1
    12     4     3    1
    13     3    15    1
    14     3     2    1
    15    15    16    1
    16     2     1    1
