@<TRIPOS>MOLECULE
1uh1_AMG_C_1.pdb
 13 13 0 0 0
SMALL
GASTEIGER

@<TRIPOS>ATOM
      1  C1        30.3850   88.0800   35.3160 C.3   200  AMG200      0.2695
      2  C2        29.9760   87.6430   36.6400 C.3   200  AMG200      0.2406
      3  C3        30.2070   86.0620   36.7520 C.3   200  AMG200      0.2198
      4  C4        29.4350   85.3320   35.5810 C.3   200  AMG200      0.2144
      5  C5        29.8440   85.9270   34.2280 C.3   200  AMG200      0.1835
      6  C6        29.2320   85.3800   32.9470 C.3   200  AMG200      0.2142
      7  C7        32.3410   88.6460   33.7810 C.3   200  AMG200      0.1769
      8  O1        31.7940   87.9890   34.9790 O.3   200  AMG200     -0.3259
      9  O2        30.6710   88.2400   37.6900 O.3   200  AMG200     -0.2149
     10  O3        29.6600   85.7000   38.0820 O.3   200  AMG200     -0.2174
     11  O4        28.0840   85.5690   35.8920 O.3   200  AMG200     -0.2176
     12  O5        29.6300   87.3820   34.3170 O.3   200  AMG200     -0.3256
     13  O6        27.8720   85.7750   32.8890 O.3   200  AMG200     -0.2176
@<TRIPOS>BOND
     1    13     6    1
     2     6     5    1
     3     7     8    1
     4     5    12    1
     5     5     4    1
     6    12     1    1
     7     8     1    1
     8     1     2    1
     9     4    11    1
    10     4     3    1
    11     2     3    1
    12     2     9    1
    13     3    10    1
