@<TRIPOS>MOLECULE
1uh2_GLC_A_10.pdb
 12 12 0 0 0
SMALL
GASTEIGER

@<TRIPOS>ATOM
      1  C1        49.4690   -9.9370   37.6720 C.3   904  GLC904      0.3024
      2  C2        49.2240   -8.5830   36.9900 C.3   904  GLC904      0.2434
      3  C3        49.9950   -7.4870   37.7290 C.3   904  GLC904      0.2199
      4  C4        49.5820   -7.4830   39.1990 C.3   904  GLC904      0.2144
      5  C5        49.8310   -8.8750   39.7970 C.3   904  GLC904      0.1836
      6  C6        49.3910   -8.9850   41.2460 C.3   904  GLC904      0.2142
      7  O1        50.8130  -10.2590   37.6110 O.3   904  GLC904     -0.1869
      8  O2        49.6450   -8.6370   35.6360 O.3   904  GLC904     -0.2148
      9  O3        49.7220   -6.2210   37.1450 O.3   904  GLC904     -0.2174
     10  O4        50.3430   -6.4920   39.9120 O.3   904  GLC904     -0.2176
     11  O5        49.0930   -9.8750   39.0550 O.3   904  GLC904     -0.3236
     12  O6        48.0080   -8.7020   41.3750 O.3   904  GLC904     -0.2176
@<TRIPOS>BOND
     1     8     2    1
     2     2     1    1
     3     2     3    1
     4     9     3    1
     5     7     1    1
     6     1    11    1
     7     3     4    1
     8    11     5    1
     9     4     5    1
    10     4    10    1
    11     5     6    1
    12     6    12    1
