@<TRIPOS>MOLECULE
1uh3_ACI_A_1.pdb
 12 12 0 0 0
SMALL
GASTEIGER

@<TRIPOS>ATOM
      1  C1        24.1370   39.4210   25.4530 C.3   703  ACI703      0.1249
      2  C2        23.5200   39.0870   24.0990 C.3   703  ACI703      0.2020
      3  C3        23.6860   40.2940   23.1700 C.3   703  ACI703      0.2137
      4  C4        22.8160   41.4630   23.6270 C.3   703  ACI703      0.1872
      5  C5        22.9630   41.6670   25.1380 C.3   703  ACI703      0.0676
      6  C6        21.7470   42.3370   25.7930 C.3   703  ACI703      0.1847
      7  C7        23.3480   40.6340   25.9540 C.3   703  ACI703      0.0270
      8  N1        25.5500   39.7430   25.2810 N.3   703  ACI703     -0.1301
      9  O2        24.1530   37.9480   23.5380 O.3   703  ACI703     -0.2188
     10  O3        23.3650   39.9450   21.8380 O.3   703  ACI703     -0.2176
     11  O4        23.0810   42.5830   22.7620 O.3   703  ACI703     -0.2202
     12  O6        20.6270   41.4650   25.7280 O.3   703  ACI703     -0.2203
@<TRIPOS>BOND
     1    10     3    1
     2    11     4    1
     3     3     4    1
     4     3     2    1
     5     9     2    1
     6     4     5    1
     7     2     1    1
     8     5     6    1
     9     5     7    1
    10     8     1    1
    11     1     7    1
    12    12     6    1
