@<TRIPOS>MOLECULE
1uh3_HSD_A_1.pdb
 12 12 0 0 0
SMALL
GASTEIGER

@<TRIPOS>ATOM
      1  N1        42.4460   29.8380   34.1510 N.3   810  HSD810     -0.1301
      2  C1        42.1970   28.8250   35.1610 C.3   810  HSD810      0.1249
      3  C2        40.7170   28.4860   35.1860 C.3   810  HSD810      0.0270
      4  C3        39.7990   29.3210   35.7270 C.3   810  HSD810      0.0676
      5  C4        39.0030   29.9220   34.5750 C.3   810  HSD810      0.1847
      6  O1        39.3540   31.2860   34.4040 O.3   810  HSD810     -0.2203
      7  C5        40.2550   30.3520   36.7250 C.3   810  HSD810      0.1872
      8  O2        39.1690   30.6190   37.6020 O.3   810  HSD810     -0.2202
      9  C6        41.4360   29.7610   37.4980 C.3   810  HSD810      0.2137
     10  O3        41.8810   30.6920   38.4770 O.3   810  HSD810     -0.2176
     11  C7        42.6010   29.3920   36.5390 C.3   810  HSD810      0.2020
     12  O4        43.5040   28.5070   37.1810 O.3   810  HSD810     -0.2188
@<TRIPOS>BOND
     1     1     2    1
     2     6     5    1
     3     5     4    1
     4     2     3    1
     5     2    11    1
     6     3     4    1
     7     4     7    1
     8    11    12    1
     9    11     9    1
    10     7     9    1
    11     7     8    1
    12     9    10    1
