@<TRIPOS>MOLECULE
1uh3_GLC_A_1.pdb
 11 11 0 0 0
SMALL
GASTEIGER

@<TRIPOS>ATOM
      1  C1        21.9950   43.1670   22.1220 C.3   702  GLC702      0.1777
      2  C2        22.2460   43.2530   20.6180 C.3   702  GLC702      0.2141
      3  C3        23.4570   44.1510   20.2950 C.3   702  GLC702      0.2173
      4  C4        23.4780   45.4670   21.0990 C.3   702  GLC702      0.2142
      5  C5        23.0630   45.2460   22.5650 C.3   702  GLC702      0.1810
      6  C6        22.8470   46.5290   23.3480 C.3   702  GLC702      0.2141
      7  O2        22.4680   41.9490   20.0890 O.3   702  GLC702     -0.2176
      8  O3        23.4550   44.4610   18.9090 O.3   702  GLC702     -0.2175
      9  O4        24.8230   45.9970   21.0830 O.3   702  GLC702     -0.2176
     10  O5        21.8390   44.4850   22.6440 O.3   702  GLC702     -0.3481
     11  O6        22.1500   47.4980   22.5780 O.3   702  GLC702     -0.2176
@<TRIPOS>BOND
     1     8     3    1
     2     7     2    1
     3     3     2    1
     4     3     4    1
     5     2     1    1
     6     9     4    1
     7     4     5    1
     8     1    10    1
     9     5    10    1
    10     5     6    1
    11    11     6    1
