@<TRIPOS>MOLECULE
1uh4_GLC_A_10.pdb
 11 11 0 0 0
SMALL
GASTEIGER

@<TRIPOS>ATOM
      1  C1        49.4970   -5.5400   40.3800 C.3   904  GLC904      0.1777
      2  C2        50.4000   -4.3310   40.1190 C.3   904  GLC904      0.2141
      3  C3        51.5650   -4.3450   41.1080 C.3   904  GLC904      0.2173
      4  C4        51.0240   -4.3620   42.5390 C.3   904  GLC904      0.2142
      5  C5        50.0870   -5.5610   42.7250 C.3   904  GLC904      0.1810
      6  C6        49.4160   -5.5720   44.0840 C.3   904  GLC904      0.2141
      7  O2        50.8940   -4.3810   38.7870 O.3   904  GLC904     -0.2176
      8  O3        52.3850   -3.2030   40.9120 O.3   904  GLC904     -0.2175
      9  O4        52.1200   -4.4660   43.4590 O.3   904  GLC904     -0.2176
     10  O5        49.0390   -5.5310   41.7340 O.3   904  GLC904     -0.3481
     11  O6        48.9980   -6.8820   44.4300 O.3   904  GLC904     -0.2176
@<TRIPOS>BOND
     1     7     2    1
     2     2     1    1
     3     2     3    1
     4     1    10    1
     5     8     3    1
     6     3     4    1
     7    10     5    1
     8     4     5    1
     9     4     9    1
    10     5     6    1
    11     6    11    1
