@<TRIPOS>MOLECULE
1uh4_BGC_A_1.pdb
 11 11 0 0 0
SMALL
GASTEIGER

@<TRIPOS>ATOM
      1  C2        43.5220   29.2490   32.6280 C.3   811  BGC811      0.2141
      2  C3        44.2150   30.1830   31.6230 C.3   811  BGC811      0.2173
      3  C4        43.2320   30.5380   30.5170 C.3   811  BGC811      0.2142
      4  C5        42.0590   31.2540   31.1530 C.3   811  BGC811      0.1810
      5  C6        41.0610   31.7480   30.1170 C.3   811  BGC811      0.2141
      6  C1        42.1300   29.7710   33.0990 C.3   811  BGC811      0.1777
      7  O2        44.3760   29.0910   33.7570 O.3   811  BGC811     -0.2176
      8  O3        45.3490   29.5290   31.0790 O.3   811  BGC811     -0.2175
      9  O4        43.8190   31.3260   29.4560 O.3   811  BGC811     -0.2176
     10  O5        41.3630   30.3240   32.0160 O.3   811  BGC811     -0.3481
     11  O6        40.6690   33.0940   30.3640 O.3   811  BGC811     -0.2176
@<TRIPOS>BOND
     1     9     3    1
     2     5    11    1
     3     5     4    1
     4     3     4    1
     5     3     2    1
     6     8     2    1
     7     4    10    1
     8     2     1    1
     9    10     6    1
    10     1     6    1
    11     1     7    1
