@<TRIPOS>MOLECULE
1uh5_NAD_A_1.pdb
 44 48 0 0 0
SMALL
GASTEIGER

@<TRIPOS>ATOM
      1  PA        51.7010   89.2200   40.7800 P.3   501  NAD501      0.2189
      2  O1A       52.8740   89.3630   39.8900 O.2   501  NAD501     -0.5170
      3  O2A       51.0780   90.1640   41.7470 O.3   501  NAD501     -0.4371
      4  O5B       50.6940   88.1100   40.1990 O.3   501  NAD501     -0.3112
      5  C5B       51.0210   87.2360   39.0560 C.3   501  NAD501      0.1813
      6  C4B       51.3010   85.8710   39.6170 C.3   501  NAD501      0.1821
      7  O4B       51.6030   84.9810   38.4710 O.3   501  NAD501     -0.3135
      8  C3B       52.5730   85.7360   40.5420 C.3   501  NAD501      0.2184
      9  O3B       52.1770   85.3180   41.8860 O.3   501  NAD501     -0.2174
     10  C2B       53.4820   84.7430   39.8310 C.3   501  NAD501      0.2570
     11  O2B       54.3240   83.9680   40.6120 O.3   501  NAD501     -0.2130
     12  C1B       52.4350   83.9770   39.0060 C.3   501  NAD501      0.3186
     13  N9A       53.0140   83.2540   37.8810 N.pl3 501  NAD501     -0.1439
     14  C8A       53.9470   83.5910   36.8950 C.3   501  NAD501      0.3377
     15  N7A       54.1940   82.6030   36.0380 N.2   501  NAD501     -0.2095
     16  C5A       53.4350   81.5540   36.4110 C.2   501  NAD501      0.2526
     17  C6A       53.2630   80.1880   35.8750 C.2   501  NAD501      0.4393
     18  N6A       53.9190   79.7550   34.8140 N.pl3 501  NAD501      0.2180
     19  N1A       52.3560   79.3940   36.5760 N.2   501  NAD501      0.0021
     20  C2A       51.6580   79.7730   37.6630 C.3   501  NAD501      0.5254
     21  N3A       51.7820   81.0580   38.2160 N.2   501  NAD501     -0.0055
     22  C4A       52.6840   81.9230   37.5590 C.2   501  NAD501      0.3518
     23  O3        50.9690   90.1720   39.6940 O.3   501  NAD501     -0.2703
     24  PN        49.6380   91.1560   39.6410 P.3   501  NAD501      0.2189
     25  O1N       50.1110   92.5090   39.3420 O.2   501  NAD501     -0.5170
     26  O2N       48.8320   90.8910   40.8830 O.3   501  NAD501     -0.4371
     27  O5D       48.8890   90.6230   38.3280 O.3   501  NAD501     -0.3112
     28  C5D       48.2620   89.3070   38.3030 C.3   501  NAD501      0.1813
     29  C4D       47.2860   89.2850   37.1870 C.3   501  NAD501      0.1799
     30  O4D       46.4870   90.5460   37.2150 O.3   501  NAD501     -0.3327
     31  C3D       47.9200   89.2870   35.7630 C.3   501  NAD501      0.2158
     32  O3D       47.0620   88.5650   34.8540 O.3   501  NAD501     -0.2175
     33  C2D       47.9930   90.7890   35.4020 C.3   501  NAD501      0.2309
     34  O2D       48.1980   90.9690   34.0290 O.3   501  NAD501     -0.2158
     35  C1D       46.6000   91.2560   35.9520 C.3   501  NAD501      0.2263
     36  N1N       46.3440   92.7070   36.2920 N.pl3 501  NAD501     -0.2787
     37  C2N       47.3150   93.4770   37.0660 C.3   501  NAD501      0.1244
     38  C3N       47.5370   94.8080   36.9160 C.2   501  NAD501      0.0544
     39  C7N       48.5500   95.5610   37.8010 C.2   501  NAD501      0.2818
     40  O7N       48.4920   96.8130   37.8330 O.2   501  NAD501     -0.2670
     41  N7N       49.4680   94.8850   38.5150 N.am  501  NAD501     -0.0839
     42  C4N       46.8050   95.6460   35.8630 C.2   501  NAD501      0.0033
     43  C5N       45.8510   94.8420   35.0110 C.2   501  NAD501      0.0157
     44  C6N       45.6630   93.4470   35.2420 C.2   501  NAD501      0.0633
@<TRIPOS>BOND
     1    34    33    1
     2    18    17    1
     3    32    31    1
     4    43    44    2
     5    43    42    1
     6    44    36    1
     7    33    31    1
     8    33    35    1
     9    31    29    1
    10    42    38    2
    11    17    16    1
    12    17    19    2
    13    35    36    1
    14    35    30    1
    15    15    16    2
    16    15    14    1
    17    36    37    1
    18    16    22    1
    19    19    20    1
    20    14    13    1
    21    38    37    1
    22    38    39    1
    23    29    30    1
    24    29    28    1
    25    22    13    1
    26    22    21    2
    27    20    21    1
    28    39    40    2
    29    39    41   am
    30    13    12    1
    31    28    27    1
    32    27    24    1
    33     7    12    1
    34     7     6    1
    35    12    10    1
    36     5     6    1
    37     5     4    1
    38    25    24    2
    39     6     8    1
    40    24    23    1
    41    24    26    1
    42    23     1    1
    43    10     8    1
    44    10    11    1
    45     2     1    2
    46     4     1    1
    47     8     9    1
    48     1     3    1
