@<TRIPOS>MOLECULE
1uh5_TCL_A_1.pdb
 17 18 0 0 0
SMALL
GASTEIGER

@<TRIPOS>ATOM
      1  C1        49.4020   95.5010   33.6830 C.ar  502  TCL502      0.0566
      2  C2        50.0860   96.4660   34.4810 C.ar  502  TCL502      0.0611
      3  C6        49.7050   94.1360   33.8580 C.ar  502  TCL502      0.2307
      4  C5        50.7130   93.7400   34.8540 C.ar  502  TCL502      0.1840
      5  C4        51.3810   94.7290   35.6350 C.ar  502  TCL502      0.0417
      6  C3        51.0890   96.1030   35.4710 C.ar  502  TCL502      0.0147
      7  C11       54.3270   90.2400   33.2130 C.ar  502  TCL502      0.0587
      8  C10       53.5540   89.6320   34.2930 C.ar  502  TCL502      0.0259
      9  C9        52.4590   90.3580   34.8630 C.ar  502  TCL502      0.0929
     10  C8        52.1110   91.7080   34.3690 C.ar  502  TCL502      0.1559
     11  C12       54.0090   91.5490   32.7150 C.ar  502  TCL502      0.0146
     12  C13       52.9040   92.2670   33.3000 C.ar  502  TCL502      0.0392
     13  O7        50.9900   92.3750   35.0020 O.3   502  TCL502     -0.4494
     14 CL14       49.6860   98.1520   34.2550 Cl    502  TCL502     -0.0821
     15 CL15       55.6390   89.3930   32.5190 Cl    502  TCL502     -0.0822
     16 CL16       51.5620   89.5850   36.1580 Cl    502  TCL502     -0.0790
     17  O17       49.0830   93.2190   33.1300 O.3   502  TCL502     -0.2833
@<TRIPOS>BOND
     1    15     7    1
     2    11     7   ar
     3    11    12   ar
     4    17     3    1
     5     7     8   ar
     6    12    10   ar
     7     1     3   ar
     8     1     2   ar
     9     3     4   ar
    10    14     2    1
    11     8     9   ar
    12    10     9   ar
    13    10    13    1
    14     2     6   ar
    15     4    13    1
    16     4     5   ar
    17     9    16    1
    18     6     5   ar
