@<TRIPOS>MOLECULE
1uhe_NSN_A_1.pdb
 13 12 0 0 0
SMALL
GASTEIGER

@<TRIPOS>ATOM
      1  C1       -16.3970   84.9570   16.1080 C.3    25  NSN25       0.0216
      2  C2       -16.0900   84.6000   14.7300 C.3    25  NSN25       0.1062
      3  C3       -16.3610   83.3220   14.2350 C.3    25  NSN25       0.1993
      4  O1       -16.6010   83.2750   13.0320 O.3    25  NSN25      -0.2189
      5  N1       -15.5410   85.6830   13.8900 N.3    25  NSN25      -0.2084
      6  C4       -14.5580   86.9850   14.2480 C.3    25  NSN25       0.1634
      7  C5       -14.0300   87.3500   12.8480 C.3    25  NSN25       0.1408
      8  C6       -12.9420   86.4340   12.3040 C.2    25  NSN25       0.3668
      9  O2       -12.4600   85.5440   13.0410 O.co2  25  NSN25      -0.2456
     10  O3       -12.5400   86.6370   11.1360 O.co2  25  NSN25      -0.2456
     11  C7       -15.6000   88.0290   14.6740 C.2    25  NSN25       0.2771
     12  N2       -15.0810   88.9710   15.2810 N.am   25  NSN25      -0.0866
     13  O4       -16.7700   87.7770   14.3520 O.2    25  NSN25      -0.2701
@<TRIPOS>BOND
     1    10     8   ar
     2     8     7    1
     3     8     9   ar
     4     7     6    1
     5     4     3    1
     6     5     6    1
     7     5     2    1
     8     3     2    1
     9     6    11    1
    10    13    11    2
    11    11    12   am
    12     2     1    1
