@<TRIPOS>MOLECULE
1uhh_CZP_A_1.pdb
 32 36 0 0 0
SMALL
GASTEIGER

@<TRIPOS>ATOM
      1  O25       -5.0680   -3.4280   -4.6560 O.3   1001  CZP1001    -0.2866
      2  C22       -4.1750   -2.5580   -4.0860 C.ar  1001  CZP1001     0.1957
      3  C23       -3.6580   -1.5270   -4.8290 C.ar  1001  CZP1001     0.0421
      4  C24       -2.8010   -0.6150   -4.2930 C.ar  1001  CZP1001     0.0056
      5  C21       -3.7060   -2.7080   -2.7960 C.ar  1001  CZP1001     0.0421
      6  C20       -2.8060   -1.7980   -2.2650 C.ar  1001  CZP1001     0.0056
      7  C19       -2.3370   -0.7490   -3.0040 C.ar  1001  CZP1001     0.0297
      8  C6        -1.3940    0.2580   -2.4670 C.2   1001  CZP1001     0.1562
      9  N7        -1.1390    1.3430   -3.2550 N.2   1001  CZP1001    -0.3989
     10  C8        -0.3460    2.3190   -2.9020 C.2   1001  CZP1001     0.1904
     11  C26       -0.0730    3.5050   -3.8360 C.3   1001  CZP1001     0.0668
     12  C27        1.1520    3.3420   -4.6790 C.3   1001  CZP1001     0.0073
     13  C28        1.4310    4.6460   -5.3940 C.3   1001  CZP1001     0.0004
     14  C29        2.4250    4.2470   -6.4660 C.3   1001  CZP1001     0.0000
     15  C30        2.0480    2.8030   -6.8280 C.3   1001  CZP1001     0.0000
     16  C31        1.0230    2.3470   -5.8030 C.3   1001  CZP1001     0.0004
     17  C9         0.2340    2.1850   -1.5710 C.2   1001  CZP1001     0.3539
     18  N4        -0.0240    1.1230   -0.8040 N.am  1001  CZP1001    -0.1262
     19  C5        -0.8210    0.1250   -1.2090 C.3   1001  CZP1001     0.2691
     20  N1         1.0780    3.0310   -0.9770 N.2   1001  CZP1001    -0.0277
     21  C2         1.4610    2.5280    0.3350 C.3   1001  CZP1001     0.3887
     22  C3         0.6600    1.2530    0.3680 C.2   1001  CZP1001     0.3886
     23  O18        0.6180    0.4680    1.2960 O.2   1001  CZP1001    -0.2391
     24  O32        0.9180    3.3240    1.4200 O.3   1001  CZP1001    -0.1608
     25  C10        2.9910    2.4260    0.2760 C.3   1001  CZP1001     0.1198
     26  C11        3.5800    1.8230    1.5380 C.ar  1001  CZP1001    -0.0145
     27  C12        4.0000    0.4870    1.5630 C.ar  1001  CZP1001    -0.0007
     28  C13        4.5420   -0.0530    2.7350 C.ar  1001  CZP1001     0.0417
     29  C14        4.6620    0.7660    3.8870 C.ar  1001  CZP1001     0.1957
     30  O17        5.1630    0.2970    5.0570 O.3   1001  CZP1001    -0.2866
     31  C15        4.2590    2.0940    3.8410 C.ar  1001  CZP1001     0.0417
     32  C16        3.7150    2.6210    2.6460 C.ar  1001  CZP1001    -0.0007
@<TRIPOS>BOND
     1    15    14    1
     2    15    16    1
     3    14    13    1
     4    16    12    1
     5    13    12    1
     6     3     4   ar
     7     3     2   ar
     8    12    11    1
     9     1     2    1
    10     4     7   ar
    11     2     5   ar
    12    11    10    1
    13     9    10    2
    14     9     8    2
    15     7     8    1
    16     7     6   ar
    17    10    17    1
    18     5     6   ar
    19     8    19    1
    20    17    20    2
    21    17    18    1
    22    19    18    1
    23    20    21    1
    24    18    22   am
    25    25    21    1
    26    25    26    1
    27    21    22    1
    28    21    24    1
    29    22    23    2
    30    26    27   ar
    31    26    32   ar
    32    27    28   ar
    33    32    31   ar
    34    28    29   ar
    35    31    29   ar
    36    29    30    1
