@<TRIPOS>MOLECULE
1uhi_CZI_A_1.pdb
 34 38 0 0 0
SMALL
GASTEIGER

@<TRIPOS>ATOM
      1  I         -5.4370    0.3700    5.0690 I     1001  CZI1001    -0.0425
      2  C14       -4.7700   -0.8750    3.4960 C.ar  1001  CZI1001     0.0300
      3  C15       -4.8010   -0.4310    2.1940 C.ar  1001  CZI1001     0.0055
      4  C16       -4.3300   -1.2580    1.1430 C.ar  1001  CZI1001    -0.0036
      5  C13       -4.2610   -2.1560    3.7700 C.ar  1001  CZI1001     0.0055
      6  C12       -3.7750   -2.9740    2.7260 C.ar  1001  CZI1001    -0.0036
      7  C11       -3.7990   -2.5420    1.4420 C.ar  1001  CZI1001    -0.0147
      8  C10       -3.2690   -3.4130    0.3270 C.3   1001  CZI1001     0.1200
      9  C2        -1.7460   -3.3870    0.2360 C.3   1001  CZI1001     0.3915
     10  O33       -1.2350   -4.1500    1.3370 O.3   1001  CZI1001    -0.1337
     11  O34       -0.0850   -3.6880    2.1060 O.3   1001  CZI1001    -0.0302
     12  N1        -1.2990   -3.8900   -1.0590 N.2   1001  CZI1001    -0.0275
     13  C9        -0.4900   -3.0120   -1.6670 C.2   1001  CZI1001     0.3543
     14  N4        -0.2700   -1.9260   -0.9320 N.am  1001  CZI1001    -0.1262
     15  C3        -1.0080   -2.0710    0.2340 C.2   1001  CZI1001     0.3887
     16  O18       -1.0380   -1.2910    1.1660 O.2   1001  CZI1001    -0.2391
     17  C5         0.5220   -0.9250   -1.3400 C.3   1001  CZI1001     0.2691
     18  C8         0.1680   -3.1690   -2.9400 C.2   1001  CZI1001     0.1948
     19  C26       -0.0780   -4.4010   -3.7870 C.3   1001  CZI1001     0.0931
     20  C27       -0.8960   -4.1730   -4.9570 C.ar  1001  CZI1001    -0.0149
     21  C28       -2.1450   -4.8330   -5.0440 C.ar  1001  CZI1001    -0.0038
     22  C29       -2.8940   -4.6190   -6.1830 C.ar  1001  CZI1001    -0.0003
     23  C30       -2.4240   -3.7710   -7.1590 C.ar  1001  CZI1001    -0.0000
     24  C31       -1.1660   -3.1510   -7.1140 C.ar  1001  CZI1001    -0.0003
     25  C32       -0.3850   -3.3700   -5.9680 C.ar  1001  CZI1001    -0.0038
     26  N7         0.9450   -2.1540   -3.3250 N.2   1001  CZI1001    -0.3986
     27  C6         1.1700   -1.0480   -2.5740 C.2   1001  CZI1001     0.1563
     28  C19        2.1040   -0.0100   -3.1220 C.ar  1001  CZI1001     0.0297
     29  C20        2.6290   -0.1740   -4.3890 C.ar  1001  CZI1001     0.0056
     30  C21        3.4960    0.7270   -4.9710 C.ar  1001  CZI1001     0.0421
     31  C24        2.5060    1.1110   -2.3990 C.ar  1001  CZI1001     0.0056
     32  C23        3.3990    2.0330   -3.0060 C.ar  1001  CZI1001     0.0421
     33  C22        3.9210    1.8370   -4.2700 C.ar  1001  CZI1001     0.1957
     34  O25        4.8000    2.6660   -4.9380 O.3   1001  CZI1001    -0.2866
@<TRIPOS>BOND
     1    23    24   ar
     2    23    22   ar
     3    24    25   ar
     4    22    21   ar
     5    25    20   ar
     6    21    20   ar
     7    30    29   ar
     8    30    33   ar
     9    20    19    1
    10    34    33    1
    11    29    28   ar
    12    33    32   ar
    13    19    18    1
    14    26    18    2
    15    26    27    2
    16    28    27    1
    17    28    31   ar
    18    32    31   ar
    19    18    13    1
    20    27    17    1
    21    13    12    2
    22    13    14    1
    23    17    14    1
    24    12     9    1
    25    14    15   am
    26    15     9    1
    27    15    16    2
    28     9     8    1
    29     9    10    1
    30     8     7    1
    31     4     7   ar
    32     4     3   ar
    33    10    11    1
    34     7     6   ar
    35     3     2   ar
    36     6     5   ar
    37     2     5   ar
    38     2     1    1
