@<TRIPOS>MOLECULE
1uhj_CZB_A_1.pdb
 34 38 0 0 0
SMALL
GASTEIGER

@<TRIPOS>ATOM
      1  O18       -1.1380    1.2490    0.7510 O.2   1001  CZB1001    -0.2391
      2  C3        -1.1960    0.3180    1.5360 C.2   1001  CZB1001     0.3887
      3  N4        -0.4330   -0.8000    1.4140 N.am  1001  CZB1001    -0.1262
      4  C5         0.4050   -1.1520    0.4180 C.3   1001  CZB1001     0.2691
      5  C9        -0.6800   -1.5910    2.4550 C.2   1001  CZB1001     0.3543
      6  C8        -0.0350   -2.9110    2.4880 C.2   1001  CZB1001     0.1948
      7  C26       -0.2410   -3.8290    3.6580 C.3   1001  CZB1001     0.0931
      8  C27       -1.0120   -5.0420    3.3550 C.ar  1001  CZB1001    -0.0149
      9  C28       -2.2060   -5.2090    4.0110 C.ar  1001  CZB1001    -0.0038
     10  C29       -2.9660   -6.3310    3.7770 C.ar  1001  CZB1001    -0.0003
     11  C30       -2.5450   -7.2460    2.8350 C.ar  1001  CZB1001    -0.0000
     12  C31       -1.3460   -7.0620    2.1250 C.ar  1001  CZB1001    -0.0003
     13  C32       -0.5420   -5.9520    2.4110 C.ar  1001  CZB1001    -0.0038
     14  N7         0.7980   -3.2150    1.4830 N.2   1001  CZB1001    -0.3986
     15  C6         1.0420   -2.4110    0.4470 C.2   1001  CZB1001     0.1563
     16  C19        2.0430   -2.8360   -0.5870 C.ar  1001  CZB1001     0.0297
     17  C20        2.5930   -4.1020   -0.5220 C.ar  1001  CZB1001     0.0056
     18  C21        3.5010   -4.5870   -1.4500 C.ar  1001  CZB1001     0.0421
     19  C24        2.4460   -2.0320   -1.6490 C.ar  1001  CZB1001     0.0056
     20  C23        3.3660   -2.5190   -2.5860 C.ar  1001  CZB1001     0.0421
     21  C22        3.8850   -3.8020   -2.4900 C.ar  1001  CZB1001     0.1957
     22  O25        4.8190   -4.3080   -3.3220 O.3   1001  CZB1001    -0.2866
     23  N1        -1.5800   -1.0640    3.2910 N.2   1001  CZB1001    -0.0275
     24  C2        -1.9930    0.2480    2.8370 C.3   1001  CZB1001     0.3915
     25  O33       -1.4380    1.3230    3.5940 O.3   1001  CZB1001    -0.1337
     26  O34       -0.2510    0.9980    4.3860 O.3   1001  CZB1001    -0.0302
     27  C10       -3.5150    0.2860    2.8860 C.3   1001  CZB1001     0.1200
     28  C11       -4.0320    1.4430    2.0870 C.ar  1001  CZB1001    -0.0147
     29  C12       -4.0510    2.6870    2.6660 C.ar  1001  CZB1001    -0.0035
     30  C13       -4.5010    3.7820    1.9480 C.ar  1001  CZB1001     0.0064
     31  C14       -4.9270    3.6130    0.6300 C.ar  1001  CZB1001     0.0345
     32 BR17       -5.5060    5.1550   -0.3220 Br    1001  CZB1001    -0.0490
     33  C15       -4.9180    2.3580    0.0410 C.ar  1001  CZB1001     0.0064
     34  C16       -4.4720    1.2680    0.7640 C.ar  1001  CZB1001    -0.0035
@<TRIPOS>BOND
     1    22    21    1
     2    20    21   ar
     3    20    19   ar
     4    21    18   ar
     5    19    16   ar
     6    18    17   ar
     7    16    17   ar
     8    16    15    1
     9    32    31    1
    10    33    31   ar
    11    33    34   ar
    12     4    15    1
    13     4     3    1
    14    15    14    2
    15    31    30   ar
    16     1     2    2
    17    34    28   ar
    18     3     2   am
    19     3     5    1
    20    14     6    2
    21     2    24    1
    22    30    29   ar
    23    28    29   ar
    24    28    27    1
    25    12    13   ar
    26    12    11   ar
    27    13     8   ar
    28     5     6    1
    29     5    23    2
    30     6     7    1
    31    11    10   ar
    32    24    27    1
    33    24    23    1
    34    24    25    1
    35     8     7    1
    36     8     9   ar
    37    25    26    1
    38    10     9   ar
