@<TRIPOS>MOLECULE
1uhk_CZN_A_1.pdb
 37 42 0 0 0
SMALL
GASTEIGER

@<TRIPOS>ATOM
      1  O21       -0.9780    1.1210    0.6920 O.2   1001  CZN1001    -0.2391
      2  C3        -0.9940    0.1950    1.4790 C.2   1001  CZN1001     0.3887
      3  N4        -0.2530   -0.9430    1.3110 N.am  1001  CZN1001    -0.1262
      4  C5         0.6100   -1.2660    0.3220 C.3   1001  CZN1001     0.2691
      5  C9        -0.4820   -1.7590    2.3280 C.2   1001  CZN1001     0.3543
      6  C8         0.1920   -3.0610    2.3750 C.2   1001  CZN1001     0.1948
      7  N7         1.0270   -3.3460    1.3970 N.2   1001  CZN1001    -0.3986
      8  C6         1.2470   -2.5190    0.3730 C.2   1001  CZN1001     0.1563
      9  C22        2.2430   -2.9560   -0.6480 C.ar  1001  CZN1001     0.0297
     10  C23        2.8010   -4.2270   -0.5740 C.ar  1001  CZN1001     0.0056
     11  C24        3.7240   -4.6870   -1.5040 C.ar  1001  CZN1001     0.0421
     12  C25        4.1150   -3.8770   -2.5460 C.ar  1001  CZN1001     0.1957
     13  C26        3.5790   -2.6150   -2.6150 C.ar  1001  CZN1001     0.0421
     14  C27        2.6430   -2.1470   -1.6950 C.ar  1001  CZN1001     0.0056
     15  O28        5.0450   -4.3360   -3.4480 O.3   1001  CZN1001    -0.2866
     16  C29       -0.0010   -4.0140    3.5250 C.3   1001  CZN1001     0.0931
     17  C30       -0.8510   -5.1930    3.2200 C.ar  1001  CZN1001    -0.0149
     18  C31       -2.0440   -5.3370    3.9120 C.ar  1001  CZN1001    -0.0038
     19  C32       -2.8470   -6.4260    3.6570 C.ar  1001  CZN1001    -0.0003
     20  C33       -2.4840   -7.3490    2.7040 C.ar  1001  CZN1001    -0.0000
     21  C34       -1.2990   -7.1930    2.0100 C.ar  1001  CZN1001    -0.0003
     22  C35       -0.4700   -6.1130    2.2600 C.ar  1001  CZN1001    -0.0038
     23  N1        -1.3640   -1.2480    3.1880 N.2   1001  CZN1001    -0.0275
     24  C2        -1.7890    0.0760    2.7610 C.3   1001  CZN1001     0.3915
     25  O36       -1.2430    1.0620    3.6360 O.3   1001  CZN1001    -0.1337
     26  O37       -0.0060    0.8870    3.9370 O.3   1001  CZN1001    -0.0302
     27  C10       -3.3040    0.1220    2.7150 C.3   1001  CZN1001     0.1200
     28  C11       -3.8030    1.5150    2.3690 C.ar  1001  CZN1001    -0.0147
     29  C12       -4.2090    1.7830    1.0810 C.ar  1001  CZN1001    -0.0040
     30  C13       -4.6900    3.0570    0.7450 C.ar  1001  CZN1001    -0.0003
     31  C14       -5.0740    3.3730   -0.5510 C.ar  1001  CZN1001    -0.0000
     32  C18       -4.7410    4.0800    1.8110 C.ar  1001  CZN1001    -0.0000
     33  C19       -4.3010    3.7700    3.0840 C.ar  1001  CZN1001    -0.0003
     34  C20       -3.8620    2.4810    3.3650 C.ar  1001  CZN1001    -0.0040
     35  C17       -5.2050    5.3560    1.4900 C.ar  1001  CZN1001    -0.0000
     36  C16       -5.6020    5.6370    0.1850 C.ar  1001  CZN1001    -0.0000
     37  C15       -5.5480    4.6540   -0.8340 C.ar  1001  CZN1001    -0.0000
@<TRIPOS>BOND
     1    15    12    1
     2    13    12   ar
     3    13    14   ar
     4    12    11   ar
     5    14     9   ar
     6    11    10   ar
     7    37    31   ar
     8    37    36   ar
     9     9    10   ar
    10     9     8    1
    11    31    30   ar
    12    36    35   ar
    13     4     8    1
    14     4     3    1
    15     8     7    2
    16     1     2    2
    17    30    29   ar
    18    30    32   ar
    19    29    28   ar
    20     3     2   am
    21     3     5    1
    22     7     6    2
    23     2    24    1
    24    35    32   ar
    25    32    33   ar
    26    21    22   ar
    27    21    20   ar
    28    22    17   ar
    29     5     6    1
    30     5    23    2
    31    28    27    1
    32    28    34   ar
    33     6    16    1
    34    20    19   ar
    35    27    24    1
    36    24    23    1
    37    24    25    1
    38    33    34   ar
    39    17    16    1
    40    17    18   ar
    41    25    26    1
    42    19    18   ar
