@<TRIPOS>MOLECULE
1uhl_444_B_1.pdb
 31 32 0 0 0
SMALL
GASTEIGER

@<TRIPOS>ATOM
      1  O13       77.4080   -4.3270   12.4080 O.2   1002  4441002    -0.1497
      2  S12       76.8970   -3.6950   13.6440 S.O2  1002  4441002     0.0768
      3  O14       77.9670   -3.9060   14.5870 O.2   1002  4441002    -0.1497
      4  C01       77.0000   -2.0960   13.4090 C.ar  1002  4441002     0.1254
      5  C02       76.3630   -1.1970   14.2740 C.ar  1002  4441002     0.0202
      6  C03       76.4420    0.1800   14.0360 C.ar  1002  4441002     0.0014
      7  C04       77.1900    0.6740   12.9550 C.ar  1002  4441002     0.0001
      8  C05       77.8490   -0.2300   12.0870 C.ar  1002  4441002     0.0014
      9  C06       77.7470   -1.6120   12.3210 C.ar  1002  4441002     0.0202
     10  N15       75.3740   -4.2050   14.1190 N.pl3 1002  4441002    -0.1818
     11  C16       74.1220   -4.2850   13.2670 C.3   1002  4441002     0.2186
     12  C19       72.8140   -3.5540   13.7580 C.3   1002  4441002     0.4174
     13  F22       72.9400   -2.2560   13.7050 F     1002  4441002    -0.1681
     14  F21       72.4370   -3.9010   14.9870 F     1002  4441002    -0.1681
     15  F20       71.7670   -3.6920   12.9720 F     1002  4441002    -0.1681
     16  C23       75.3650   -4.9650   15.3290 C.ar  1002  4441002     0.0691
     17  C24       74.9670   -4.3730   16.5520 C.ar  1002  4441002     0.0159
     18  C25       75.0460   -5.0840   17.7540 C.ar  1002  4441002    -0.0000
     19  C28       75.8430   -6.2820   15.3240 C.ar  1002  4441002     0.0159
     20  C27       75.9280   -6.9730   16.5270 C.ar  1002  4441002    -0.0000
     21  C26       75.5230   -6.4020   17.7630 C.ar  1002  4441002     0.0216
     22  C33       75.7260   -7.1680   19.0870 C.3   1002  4441002     0.3171
     23  C34       75.2730   -8.5920   19.2010 C.3   1002  4441002     0.4344
     24  F36       75.7810   -9.0400   20.3000 F     1002  4441002    -0.1668
     25  F37       75.6520   -9.2330   18.1030 F     1002  4441002    -0.1668
     26  F35       74.0040   -8.7100   19.4580 F     1002  4441002    -0.1668
     27  O42       75.2120   -6.4880   20.2500 O.3   1002  4441002    -0.2033
     28  C38       77.2820   -7.2960   19.1990 C.3   1002  4441002     0.4344
     29  F39       77.6560   -8.0270   20.1890 F     1002  4441002    -0.1668
     30  F40       77.6640   -7.9560   18.1450 F     1002  4441002    -0.1668
     31  F41       78.0340   -6.1850   19.3000 F     1002  4441002    -0.1668
@<TRIPOS>BOND
     1     8     9   ar
     2     8     7   ar
     3     9     4   ar
     4     1     2    2
     5     7     6   ar
     6    15    12    1
     7    11    12    1
     8    11    10    1
     9     4     2    1
    10     4     5   ar
    11     2    10    1
    12     2     3    2
    13    13    12    1
    14    12    14    1
    15     6     5   ar
    16    10    16    1
    17    19    16   ar
    18    19    20   ar
    19    16    17   ar
    20    20    21   ar
    21    17    18   ar
    22    18    21   ar
    23    21    22    1
    24    25    23    1
    25    30    28    1
    26    22    28    1
    27    22    23    1
    28    22    27    1
    29    28    31    1
    30    28    29    1
    31    23    26    1
    32    23    24    1
