@<TRIPOS>MOLECULE
1uhl_MEI_A_1.pdb
 19 18 0 0 0
SMALL
GASTEIGER

@<TRIPOS>ATOM
      1  C1        49.3640   -7.4670   33.7720 C.3   1001  MEI1001     0.1739
      2  O1        49.1440   -7.6620   32.3720 O.3   1001  MEI1001    -0.3559
      3  C2        48.7040   -8.9150   31.8970 C.3   1001  MEI1001     0.0930
      4  C3        48.2120   -9.8630   33.0250 C.3   1001  MEI1001     0.0296
      5  C4        49.9760   -9.3830   31.2070 C.3   1001  MEI1001     0.0296
      6  C5        47.6140   -8.6580   30.8690 C.3   1001  MEI1001     0.0272
      7  C6        48.1890   -8.5050   29.4690 C.3   1001  MEI1001     0.0024
      8  C7        47.2100   -7.8390   28.5220 C.3   1001  MEI1001     0.0001
      9  C8        46.5330   -8.8770   27.6200 C.3   1001  MEI1001     0.0000
     10  C9        45.9970   -8.1530   26.3750 C.3   1001  MEI1001     0.0000
     11  C10       45.5280   -9.7170   28.4400 C.3   1001  MEI1001     0.0003
     12  C11       44.2100   -9.0120   28.4480 C.3   1001  MEI1001     0.0043
     13  C12       43.6500   -8.3570   29.4540 C.3   1001  MEI1001     0.0222
     14  C13       42.3970   -7.8370   28.9330 C.2   1001  MEI1001    -0.0374
     15  C14       42.1290   -8.3470   27.5660 C.3   1001  MEI1001     0.0266
     16  C15       41.5530   -6.9650   29.5070 C.2   1001  MEI1001     0.0777
     17  C16       40.2670   -6.5710   28.8170 C.2   1001  MEI1001     0.3873
     18  O2        39.9990   -5.9020   27.7720 O.co2 1001  MEI1001    -0.2406
     19  O3        39.3290   -7.0200   29.4100 O.co2 1001  MEI1001    -0.2406
@<TRIPOS>BOND
     1    10     9    1
     2    15    14    1
     3     9    11    1
     4     9     8    1
     5    18    17   ar
     6    11    12    1
     7    12    13    1
     8     8     7    1
     9    17    19   ar
    10    17    16    1
    11    14    13    1
    12    14    16    2
    13     7     6    1
    14     6     3    1
    15     5     3    1
    16     3     2    1
    17     3     4    1
    18     2     1    1
