@<TRIPOS>MOLECULE
1uho_VDN_A_1.pdb
 34 37 0 0 0
SMALL
GASTEIGER

@<TRIPOS>ATOM
      1  C1         5.6490   65.4120   87.0210 C.3   1000  VDN1000     0.0512
      2  C2         5.7430   66.6070   86.0660 C.3   1000  VDN1000     0.2056
      3  O3         4.4480   66.6520   85.4510 O.3   1000  VDN1000    -0.4748
      4  C4         4.0080   67.5630   84.5120 C.ar  1000  VDN1000     0.1489
      5  C5         4.7360   68.6130   83.9760 C.ar  1000  VDN1000     0.0390
      6  C6         4.1480   69.5230   82.9770 C.ar  1000  VDN1000     0.0231
      7  C7         2.8470   69.3290   82.5550 C.ar  1000  VDN1000     0.1231
      8  C8         2.0440   68.2070   83.1130 C.ar  1000  VDN1000     0.0341
      9  C9         2.5480   67.3570   84.0270 C.ar  1000  VDN1000     0.1114
     10  S10        2.0960   70.3610   81.3670 S.O2  1000  VDN1000     0.0634
     11  O11        2.7000   70.0390   80.0920 O.2   1000  VDN1000    -0.1528
     12  O12        0.6740   70.0870   81.4400 O.2   1000  VDN1000    -0.1528
     13  C13        2.4760   77.1960   80.3320 C.3   1000  VDN1000     0.0188
     14  N14        2.3960   71.9420   81.7810 N.3   1000  VDN1000    -0.1527
     15  C15        1.1750   72.7260   82.1090 C.3   1000  VDN1000     0.1131
     16  C16        1.4820   74.2080   82.4240 C.3   1000  VDN1000     0.0915
     17  N17        2.1900   74.8440   81.2890 N.3   1000  VDN1000    -0.2702
     18  C18        3.4390   74.0920   81.0100 C.3   1000  VDN1000     0.0915
     19  C19        3.1720   72.6020   80.7070 C.3   1000  VDN1000     0.1131
     20  C20        2.4460   76.2650   81.5690 C.3   1000  VDN1000     0.0722
     21  C21        1.7020   66.2710   84.5530 C.1   1000  VDN1000     0.1184
     22  N22        1.5970   66.0250   85.8910 N.2   1000  VDN1000    -0.2785
     23  C23        0.8150   65.0230   86.5150 C.1   1000  VDN1000     0.2158
     24  C24        0.0570   64.1950   85.5420 C.3   1000  VDN1000     0.2637
     25  N25        0.2170   64.5080   84.1510 N.pl3 1000  VDN1000    -0.1572
     26  N26        0.9970   65.4980   83.6910 N.2   1000  VDN1000    -0.1078
     27  O27        0.7890   64.8850   87.7210 O.2   1000  VDN1000    -0.2113
     28  C28       -0.8350   63.1290   85.4640 C.2   1000  VDN1000     0.1253
     29  N29       -1.2030   62.8030   84.1100 N.2   1000  VDN1000    -0.3955
     30  C30       -0.5450   63.6620   83.4020 C.2   1000  VDN1000     0.1799
     31  C31       -1.3830   62.3720   86.6690 C.3   1000  VDN1000     0.0646
     32  C32       -0.5440   63.8060   81.8860 C.3   1000  VDN1000     0.0765
     33  C33        0.5810   63.0560   81.1290 C.3   1000  VDN1000     0.0089
     34  C34        0.2000   61.5910   80.9110 C.3   1000  VDN1000     0.0005
@<TRIPOS>BOND
     1    11    10    2
     2    13    20    1
     3    19    18    1
     4    19    14    1
     5    34    33    1
     6    18    17    1
     7    33    32    1
     8    17    20    1
     9    17    16    1
    10    10    12    2
    11    10    14    1
    12    10     7    1
    13    14    15    1
    14    32    30    1
    15    15    16    1
    16     7     6   ar
    17     7     8   ar
    18     6     5   ar
    19     8     9   ar
    20    30    29    2
    21    30    25    1
    22    26    25    1
    23    26    21    2
    24     5     4   ar
    25     9     4   ar
    26     9    21    1
    27    29    28    2
    28    25    24    1
    29     4     3    1
    30    21    22    2
    31     3     2    1
    32    28    24    1
    33    28    31    1
    34    24    23    1
    35    22    23    2
    36     2     1    1
    37    23    27    2
