@<TRIPOS>MOLECULE
1uib_NAG_A_1.pdb
 14 14 0 0 0
SMALL
GASTEIGER

@<TRIPOS>ATOM
      1  C1         0.6990   27.1020   34.3020 C.3   501  NAG501      0.1665
      2  C2         0.2050   26.3770   35.5560 C.3   501  NAG501      0.1576
      3  C3        -1.2100   26.8730   35.8730 C.3   501  NAG501      0.2069
      4  C4        -1.3900   28.4070   35.7440 C.3   501  NAG501      0.2134
      5  C5        -0.7820   28.9740   34.4450 C.3   501  NAG501      0.1809
      6  C6        -0.6980   30.5060   34.5050 C.3   501  NAG501      0.2141
      7  C7         0.5540   24.0780   36.3030 C.2   501  NAG501      0.2420
      8  C8         0.1220   22.6130   36.0730 C.3   501  NAG501      0.0964
      9  N2         0.2160   24.9360   35.3460 N.am  501  NAG501     -0.2019
     10  O3        -1.5720   26.4690   37.1970 O.3   501  NAG501     -0.2184
     11  O4        -2.7890   28.7150   35.7850 O.3   501  NAG501     -0.2176
     12  O5         0.5350   28.5080   34.3230 O.3   501  NAG501     -0.3489
     13  O6        -1.6470   31.1180   33.6410 O.3   501  NAG501     -0.2176
     14  O7         1.3480   24.3600   37.2050 O.2   501  NAG501     -0.2733
@<TRIPOS>BOND
     1    13     6    1
     2     1    12    1
     3     1     2    1
     4    12     5    1
     5     5     6    1
     6     5     4    1
     7     9     2    1
     8     9     7   am
     9     2     3    1
    10     4    11    1
    11     4     3    1
    12     3    10    1
    13     8     7    1
    14     7    14    2
