@<TRIPOS>MOLECULE
1uih_NAG_A_1.pdb
 14 14 0 0 0
SMALL
GASTEIGER

@<TRIPOS>ATOM
      1  C1         0.7680   27.0130   34.6890 C.3   501  NAG501      0.1665
      2  C2         0.2770   26.3020   35.9690 C.3   501  NAG501      0.1576
      3  C3        -1.1590   26.7570   36.2440 C.3   501  NAG501      0.2069
      4  C4        -1.3570   28.2860   36.1010 C.3   501  NAG501      0.2134
      5  C5        -0.7400   28.8220   34.7790 C.3   501  NAG501      0.1809
      6  C6        -0.8920   30.3470   34.6780 C.3   501  NAG501      0.2141
      7  C7         0.7900   24.0480   36.7770 C.2   501  NAG501      0.2420
      8  C8         0.1210   22.6530   36.8390 C.3   501  NAG501      0.0964
      9  N2         0.3360   24.8520   35.8160 N.am  501  NAG501     -0.2019
     10  O3        -1.5420   26.3510   37.5620 O.3   501  NAG501     -0.2184
     11  O4        -2.7620   28.5760   36.1290 O.3   501  NAG501     -0.2176
     12  O5         0.6300   28.4250   34.7290 O.3   501  NAG501     -0.3489
     13  O6         0.3640   31.0120   34.7430 O.3   501  NAG501     -0.2176
     14  O7         1.8460   24.2550   37.3850 O.2   501  NAG501     -0.2733
@<TRIPOS>BOND
     1     6    13    1
     2     6     5    1
     3     1    12    1
     4     1     2    1
     5    12     5    1
     6     5     4    1
     7     9     2    1
     8     9     7   am
     9     2     3    1
    10     4    11    1
    11     4     3    1
    12     3    10    1
    13     7     8    1
    14     7    14    2
