@<TRIPOS>MOLECULE
1uim_PLP_A_1.pdb
 15 15 0 0 0
SMALL
GASTEIGER

@<TRIPOS>ATOM
      1  N1         6.3700   22.0250   39.5480 N.ar  400  PLP400     -0.2452
      2  C2         7.6620   21.8210   39.9310 C.ar  400  PLP400      0.0978
      3  C2A        8.7650   22.1620   38.9400 C.3   400  PLP400      0.0555
      4  C3         7.9450   21.3130   41.1860 C.ar  400  PLP400      0.2049
      5  O3         9.2630   21.1120   41.5750 O.3   400  PLP400     -0.2857
      6  C4         6.9100   21.0070   42.0620 C.ar  400  PLP400      0.0182
      7  C4A        7.2740   20.4410   43.4580 C.3   400  PLP400      0.0342
      8  C5         5.5830   21.2280   41.6400 C.ar  400  PLP400      0.0261
      9  C6         5.3440   21.7330   40.3930 C.ar  400  PLP400      0.0965
     10  C5A        4.3490   20.9320   42.5020 C.3   400  PLP400      0.1815
     11  O4P        4.1510   21.8110   43.6120 O.3   400  PLP400     -0.2653
     12  P          3.2590   21.3680   44.8640 P.3   400  PLP400      0.5329
     13  O1P        3.4110   19.9140   45.0960 O.3   400  PLP400     -0.1145
     14  O2P        1.7760   21.6550   44.3310 O.2   400  PLP400     -0.2224
     15  O3P        3.5640   22.3040   45.9570 O.3   400  PLP400     -0.1145
@<TRIPOS>BOND
     1     3     2    1
     2     1     2   ar
     3     1     9   ar
     4     2     4   ar
     5     9     8   ar
     6     4     5    1
     7     4     6   ar
     8     8     6   ar
     9     8    10    1
    10     6     7    1
    11    10    11    1
    12    11    12    1
    13    14    12    2
    14    12    13    1
    15    12    15    1
