@<TRIPOS>MOLECULE
1uin_PLP_A_1.pdb
 15 15 0 0 0
SMALL
GASTEIGER

@<TRIPOS>ATOM
      1  N1        47.3120   47.0940   11.0330 N.ar  513  PLP513     -0.2452
      2  C2        47.0880   45.8690   11.6020 C.ar  513  PLP513      0.0978
      3  C2A       48.2850   45.0530   12.1050 C.3   513  PLP513      0.0555
      4  C3        45.7890   45.3770   11.7040 C.ar  513  PLP513      0.2049
      5  O3        45.5650   44.1520   12.2880 O.3   513  PLP513     -0.2857
      6  C4        44.7180   46.1240   11.2300 C.ar  513  PLP513      0.0182
      7  C4A       43.3020   45.5430   11.3690 C.3   513  PLP513      0.0342
      8  C5        44.9860   47.3810   10.6470 C.ar  513  PLP513      0.0261
      9  C6        46.2820   47.8390   10.5630 C.ar  513  PLP513      0.0965
     10  C5A       43.9100   48.2850   10.0880 C.3   513  PLP513      0.1815
     11  O4P       43.1400   48.9160   11.1210 O.3   513  PLP513     -0.2653
     12  P         41.6580   49.5050   10.8300 P.3   513  PLP513      0.5329
     13  O1P       41.0220   48.6100    9.8500 O.2   513  PLP513     -0.2224
     14  O2P       42.0030   50.8870   10.1850 O.3   513  PLP513     -0.1145
     15  O3P       41.0240   49.7470   12.1360 O.3   513  PLP513     -0.1145
@<TRIPOS>BOND
     1    13    12    2
     2    10     8    1
     3    10    11    1
     4    14    12    1
     5     9     8   ar
     6     9     1   ar
     7     8     6   ar
     8    12    11    1
     9    12    15    1
    10     1     2   ar
    11     6     7    1
    12     6     4   ar
    13     2     4   ar
    14     2     3    1
    15     4     5    1
