@<TRIPOS>MOLECULE
1uio_HPR_A_1.pdb
 19 21 0 0 0
SMALL
GASTEIGER

@<TRIPOS>ATOM
      1  N1         0.5640   21.0700   38.4730 N.2   353  HPR353     -0.1458
      2  C2         1.5320   20.6900   39.3050 C.3   353  HPR353      0.4017
      3  N3         2.6840   20.2180   38.8590 N.2   353  HPR353     -0.0334
      4  C4         2.9090   20.1010   37.5230 C.2   353  HPR353      0.3528
      5  C5         1.9770   20.4680   36.6300 C.2   353  HPR353      0.2446
      6  C6         0.7270   20.9960   37.0950 C.1   353  HPR353      0.1792
      7  O6         0.5480   22.3630   36.5960 O.2   353  HPR353     -0.2203
      8  N7         2.4740   20.2310   35.3860 N.2   353  HPR353     -0.2054
      9  C8         3.7140   19.7320   35.5290 C.3   353  HPR353      0.3382
     10  N9         3.9810   19.6230   36.8430 N.pl3 353  HPR353     -0.1435
     11  C1'        5.1300   18.9680   37.4310 C.3   353  HPR353      0.3186
     12  C2'        5.4900   17.6840   36.5840 C.3   353  HPR353      0.2570
     13  O2'        5.7740   16.5650   37.4380 O.3   353  HPR353     -0.2130
     14  C3'        6.7010   18.0020   35.6970 C.3   353  HPR353      0.2186
     15  O3'        7.5270   16.8440   35.5170 O.3   353  HPR353     -0.2174
     16  C4'        7.2890   19.0350   36.8220 C.3   353  HPR353      0.1851
     17  O4'        6.2810   19.7910   37.3660 O.3   353  HPR353     -0.3134
     18  C5'        8.3620   19.9700   36.2610 C.3   353  HPR353      0.2143
     19  O5'        8.0020   20.3970   34.9250 O.3   353  HPR353     -0.2176
@<TRIPOS>BOND
     1    19    18    1
     2     8     9    1
     3     8     5    2
     4    15    14    1
     5     9    10    1
     6    14    12    1
     7    14    16    1
     8    18    16    1
     9    12    11    1
    10    12    13    1
    11     7     6    2
    12     5     6    1
    13     5     4    1
    14    16    17    1
    15    10    11    1
    16    10     4    1
    17     6     1    2
    18    17    11    1
    19     4     3    2
    20     1     2    1
    21     3     2    1
