@<TRIPOS>MOLECULE
1uip_PUR_A_1.pdb
 18 20 0 0 0
SMALL
GASTEIGER

@<TRIPOS>ATOM
      1  N1         0.4450   20.6020   38.4580 N.2   353  PUR353     -0.2189
      2  C2         1.3930   20.3480   39.3440 C.2   353  PUR353      0.3347
      3  N3         2.6050   19.9870   38.9600 N.2   353  PUR353     -0.0132
      4  C4         2.9030   19.8640   37.6290 C.2   353  PUR353      0.3444
      5  C5         1.9880   20.0970   36.6890 C.2   353  PUR353      0.1644
      6  C6         0.6870   20.4920   37.0860 C.3   353  PUR353      0.1822
      7  N7         2.5580   19.8940   35.4780 N.2   353  PUR353     -0.2187
      8  C8         3.8250   19.5410   35.6840 C.3   353  PUR353      0.3373
      9  N9         4.0420   19.4910   37.0050 N.pl3 353  PUR353     -0.1440
     10  C1'        5.1780   18.9000   37.6570 C.3   353  PUR353      0.3186
     11  C2'        5.5790   17.6190   36.8660 C.3   353  PUR353      0.2570
     12  O2'        5.8460   16.5450   37.7770 O.3   353  PUR353     -0.2130
     13  C3'        6.8180   17.9390   35.9980 C.3   353  PUR353      0.2186
     14  O3'        7.7090   16.8180   35.9010 O.3   353  PUR353     -0.2174
     15  C4'        7.3420   19.0250   37.0850 C.3   353  PUR353      0.1851
     16  O4'        6.2970   19.7530   37.6080 O.3   353  PUR353     -0.3134
     17  C5'        8.3520   19.9950   36.4800 C.3   353  PUR353      0.2143
     18  O5'        7.9450   20.3560   35.1410 O.3   353  PUR353     -0.2176
@<TRIPOS>BOND
     1    18    17    1
     2     7     8    1
     3     7     5    2
     4     8     9    1
     5    14    13    1
     6    13    11    1
     7    13    15    1
     8    17    15    1
     9     5     6    1
    10     5     4    1
    11    11    10    1
    12    11    12    1
    13     9     4    1
    14     9    10    1
    15    15    16    1
    16     6     1    1
    17    16    10    1
    18     4     3    2
    19     1     2    2
    20     3     2    1
