@<TRIPOS>MOLECULE
1uiw_HEM_A_1.pdb
 43 50 0 0 0
SMALL
GASTEIGER

@<TRIPOS>ATOM
      1  CHA       18.9990   27.8410  -22.0750 C.2   142  HEM142      0.0000
      2  CHB       22.2160   30.7800  -19.7700 C.2   142  HEM142      0.0000
      3  CHC       22.6890   27.4600  -16.1800 C.2   142  HEM142      0.0000
      4  CHD       19.8740   24.3090  -18.6810 C.2   142  HEM142      0.0000
      5  C1A       19.8460   28.9130  -21.7880 C.ar  142  HEM142      0.0000
      6  C2A       20.0880   30.0660  -22.6470 C.ar  142  HEM142      0.0000
      7  C3A       20.9870   30.8660  -22.0050 C.ar  142  HEM142      0.0000
      8  C4A       21.3120   30.2640  -20.7180 C.ar  142  HEM142      0.0000
      9  CMA       21.5930   32.1980  -22.5120 C.3   142  HEM142      0.0000
     10  CAA       19.4590   30.2890  -24.0680 C.3   142  HEM142      0.0000
     11  CBA       18.2120   31.1890  -24.0580 C.3   142  HEM142      0.0000
     12  CGA       17.8050   31.4550  -25.4840 C.2   142  HEM142      0.0000
     13  O1A       18.3840   32.3660  -26.1130 O.co2 142  HEM142      0.0000
     14  O2A       16.9180   30.7180  -25.9810 O.co2 142  HEM142      0.0000
     15  C1B       22.6390   30.1370  -18.5980 C.2   142  HEM142      0.0000
     16  C2B       23.6410   30.6460  -17.6560 C.2   142  HEM142      0.0000
     17  C3B       23.7680   29.7130  -16.6660 C.2   142  HEM142      0.0000
     18  C4B       22.8470   28.6190  -16.9550 C.2   142  HEM142      0.0000
     19  CMB       24.3810   32.0010  -17.8170 C.3   142  HEM142      0.0000
     20  CAB       24.6850   29.7560  -15.3980 C.2   142  HEM142      0.0000
     21  CBB       25.8600   30.4090  -15.3520 C.2   142  HEM142      0.0000
     22  C1C       22.0370   26.2880  -16.5590 C.ar  142  HEM142      0.0000
     23  C2C       22.1920   24.9650  -15.9470 C.ar  142  HEM142      0.0000
     24  C3C       21.4230   24.0890  -16.6670 C.ar  142  HEM142      0.0000
     25  C4C       20.7420   24.8410  -17.7250 C.ar  142  HEM142      0.0000
     26  CMC       23.0700   24.6650  -14.6910 C.3   142  HEM142      0.0000
     27  CAC       21.2250   22.5690  -16.4330 C.2   142  HEM142      0.0000
     28  CBC       22.1760   21.7320  -15.9380 C.2   142  HEM142      0.0000
     29  C1D       19.3980   24.9650  -19.8160 C.2   142  HEM142      0.0000
     30  C2D       18.6300   24.3130  -20.8570 C.2   142  HEM142      0.0000
     31  C3D       18.3580   25.3740  -21.9090 C.2   142  HEM142      0.0000
     32  C4D       18.9990   26.5960  -21.4200 C.2   142  HEM142      0.0000
     33  CMD       18.1400   22.8450  -20.9010 C.3   142  HEM142      0.0000
     34  CAD       17.5800   25.1250  -23.2330 C.3   142  HEM142      0.0000
     35  CBD       18.6070   24.6270  -24.2710 C.3   142  HEM142      0.0000
     36  CGD       18.0320   24.3590  -25.6620 C.2   142  HEM142      0.0000
     37  O1D       18.5800   24.9010  -26.6520 O.co2 142  HEM142      0.0000
     38  O2D       17.0630   23.5810  -25.7810 O.co2 142  HEM142      0.0000
     39  NA        20.5820   29.0780  -20.6130 N.ar  142  HEM142      0.0000
     40  NB        22.1740   28.8930  -18.1350 N.2   142  HEM142      0.0000
     41  NC        21.1670   26.1780  -17.6540 N.ar  142  HEM142      0.0000
     42  ND        19.6160   26.3100  -20.1890 N.2   142  HEM142      0.0000
     43 FE         20.5740   27.7750  -18.9190 Fe    142  HEM142      0.0000
@<TRIPOS>BOND
     1    37    36   ar
     2    13    12   ar
     3    14    12   ar
     4    38    36   ar
     5    36    35    1
     6    12    11    1
     7    35    34    1
     8    10    11    1
     9    10     6    1
    10    34    31    1
    11     6     7   ar
    12     6     5   ar
    13     9     7    1
    14     1     5    2
    15     1    32    1
    16     7     8   ar
    17    31    32    1
    18    31    30    2
    19     5    39   ar
    20    32    42    2
    21    33    30    1
    22    30    29    1
    23     8    39   ar
    24     8     2    2
    25    39    43    1
    26    42    29    1
    27    42    43    1
    28    29     4    2
    29     2    15    1
    30    43    40    1
    31    43    41    1
    32     4    25    1
    33    15    40    2
    34    15    16    1
    35    40    18    1
    36    19    16    1
    37    25    41   ar
    38    25    24   ar
    39    16    17    2
    40    41    22   ar
    41    18    17    1
    42    18     3    2
    43    24    27    1
    44    24    23   ar
    45    17    20    1
    46    22     3    1
    47    22    23   ar
    48    27    28    2
    49    23    26    1
    50    20    21    2
