@<TRIPOS>MOLECULE
1uj2_ADP_A_1.pdb
 27 29 0 0 0
SMALL
GASTEIGER

@<TRIPOS>ATOM
      1  PB         5.1450    8.4970   54.3100 P.3   2302  ADP2302     0.5373
      2  O1B        4.7360    7.1000   54.5060 O.3   2302  ADP2302    -0.1143
      3  O2B        6.2360    8.6030   53.1650 O.2   2302  ADP2302    -0.2221
      4  O3B        3.9540    9.3590   53.9920 O.3   2302  ADP2302    -0.1143
      5  PA         6.9220   10.1870   55.7040 P.3   2302  ADP2302     0.2231
      6  O1A        8.2600    9.6320   55.9410 O.3   2302  ADP2302    -0.4370
      7  O2A        6.9520   10.9780   54.4790 O.2   2302  ADP2302    -0.5169
      8  O3A        5.8550    9.0510   55.5680 O.3   2302  ADP2302    -0.2261
      9  O5'        6.4380   11.1690   56.8460 O.3   2302  ADP2302    -0.3111
     10  C5'        5.2430   11.1100   57.6390 C.3   2302  ADP2302     0.1813
     11  C4'        5.2790   12.3360   58.6280 C.3   2302  ADP2302     0.1821
     12  O4'        5.5800   11.7530   59.8900 O.3   2302  ADP2302    -0.3135
     13  C3'        6.4000   13.3840   58.3780 C.3   2302  ADP2302     0.2184
     14  O3'        5.9410   14.7360   58.5690 O.3   2302  ADP2302    -0.2174
     15  C2'        7.5240   13.0280   59.3380 C.3   2302  ADP2302     0.2570
     16  O2'        8.3420   14.1440   59.7430 O.3   2302  ADP2302    -0.2130
     17  C1'        6.7830   12.2920   60.4610 C.3   2302  ADP2302     0.3186
     18  N9         7.5300   11.1120   60.9840 N.pl3 2302  ADP2302    -0.1439
     19  C8         8.1010   10.1580   60.2050 C.3   2302  ADP2302     0.3377
     20  N7         8.6790    9.2620   60.9620 N.2   2302  ADP2302    -0.2095
     21  C5         8.5130    9.5960   62.2120 C.2   2302  ADP2302     0.2526
     22  C6         8.8830    9.0480   63.4440 C.2   2302  ADP2302     0.4393
     23  N6         9.5890    7.9130   63.4740 N.pl3 2302  ADP2302     0.2180
     24  N1         8.5260    9.6850   64.6320 N.2   2302  ADP2302     0.0021
     25  C2         7.8040   10.8480   64.6470 C.3   2302  ADP2302     0.5254
     26  N3         7.4330   11.3890   63.4470 N.2   2302  ADP2302    -0.0055
     27  C4         7.7590   10.8040   62.2360 C.2   2302  ADP2302     0.3518
@<TRIPOS>BOND
     1     3     1    2
     2     4     1    1
     3     1     2    1
     4     1     8    1
     5     7     5    2
     6     8     5    1
     7     5     6    1
     8     5     9    1
     9     9    10    1
    10    10    11    1
    11    13    14    1
    12    13    11    1
    13    13    15    1
    14    11    12    1
    15    15    16    1
    16    15    17    1
    17    12    17    1
    18    19    20    1
    19    19    18    1
    20    17    18    1
    21    20    21    2
    22    18    27    1
    23    21    27    1
    24    21    22    1
    25    27    26    2
    26    22    23    1
    27    22    24    2
    28    26    25    1
    29    24    25    1
