@<TRIPOS>MOLECULE
1uj2_C5P_A_1.pdb
 21 22 0 0 0
SMALL
GASTEIGER

@<TRIPOS>ATOM
      1  O3P        2.3750    8.3730   51.3270 O.2   2301  C5P2301    -0.2224
      2  P          1.9750    9.8980   51.5480 P.3   2301  C5P2301     0.5327
      3  O1P        3.1950   10.7550   51.4930 O.3   2301  C5P2301    -0.1145
      4  O2P        1.1800    9.9840   52.8060 O.3   2301  C5P2301    -0.1145
      5  O5'        1.0580   10.2570   50.2460 O.3   2301  C5P2301    -0.2675
      6  C5'       -0.1870    9.5970   49.9380 C.3   2301  C5P2301     0.1859
      7  C4'       -1.3510   10.4040   50.5120 C.3   2301  C5P2301     0.1801
      8  O4'       -1.4010   11.7530   49.9390 O.3   2301  C5P2301    -0.3320
      9  C3'       -2.7690    9.8110   50.3080 C.3   2301  C5P2301     0.2158
     10  O3'       -3.2210    9.1910   51.5000 O.3   2301  C5P2301    -0.2175
     11  C2'       -3.6550   10.9950   49.8870 C.3   2301  C5P2301     0.2319
     12  O2'       -4.8230   11.1940   50.6500 O.3   2301  C5P2301    -0.2157
     13  C1'       -2.7210   12.2000   49.9430 C.3   2301  C5P2301     0.2400
     14  N1        -2.9160   13.1960   48.8750 N.am  2301  C5P2301    -0.1778
     15  C2        -3.5150   14.4460   49.2130 C.1   2301  C5P2301     0.2756
     16  N3        -3.6900   15.3630   48.2180 N.2   2301  C5P2301    -0.3024
     17  C4        -3.3010   15.0720   46.9470 C.2   2301  C5P2301     0.2346
     18  C5        -2.7020   13.8300   46.5910 C.2   2301  C5P2301     0.0687
     19  C6        -2.5320   12.9340   47.5710 C.2   2301  C5P2301     0.0836
     20  O2        -3.8640   14.6860   50.3950 O.2   2301  C5P2301    -0.1925
     21  N4        -3.4900   15.9920   46.0070 N.pl3 2301  C5P2301    -0.0921
@<TRIPOS>BOND
     1    21    17    1
     2    18    17    1
     3    18    19    2
     4    17    16    2
     5    19    14    1
     6    16    15    2
     7    14    15   am
     8    14    13    1
     9    15    20    2
    10    11    13    1
    11    11     9    1
    12    11    12    1
    13     6     5    1
    14     6     7    1
    15     8    13    1
    16     8     7    1
    17     5     2    1
    18     9     7    1
    19     9    10    1
    20     1     2    2
    21     3     2    1
    22     2     4    1
