@<TRIPOS>MOLECULE
1ujw_GP1_A_1.pdb
 16 16 0 0 0
SMALL
GASTEIGER

@<TRIPOS>ATOM
      1  C1B       21.8730   12.9580   99.2970 C.3   801  GP1801      0.3410
      2  C2B       21.9450   11.6690  100.1210 C.2   801  GP1801      0.1787
      3  C3B       22.5350   10.4370   99.4160 C.2   801  GP1801      0.2556
      4  C4B       22.7820   10.5180   97.8830 C.2   801  GP1801      0.2675
      5  C5B       22.6380   11.8570   97.1220 C.2   801  GP1801      0.1942
      6  C6B       21.8920   11.8690   95.7560 C.3   801  GP1801      0.2488
      7  N2B       22.6670   12.0550  101.3550 N.pl3 801  GP1801     -0.1228
      8  O1B       23.0020   13.8180   99.6980 O.3   801  GP1801     -0.2277
      9  O3B       22.0140    9.1360   99.8490 O.2   801  GP1801     -0.2817
     10  O4B       24.1400   10.0930   97.6810 O.2   801  GP1801     -0.2801
     11  O5B       21.1860   10.6640   95.4580 O.3   801  GP1801     -0.2115
     12  O6B       22.1000   12.9260   97.9040 O.2   801  GP1801     -0.4462
     13  O7B       22.8230   16.0370   98.5640 O.3   801  GP1801     -0.1145
     14  P4B       23.8660   14.9810   98.8740 P.3   801  GP1801      0.5355
     15  O8B       24.8790   15.5230   99.8610 O.3   801  GP1801     -0.1145
     16  O9B       24.5410   14.3610   97.6390 O.2   801  GP1801     -0.2223
@<TRIPOS>BOND
     1    11     6    1
     2     6     5    1
     3     5     4    2
     4     5    12    1
     5    16    14    2
     6    10     4    1
     7     4     3    1
     8    12     1    1
     9    13    14    1
    10    14     8    1
    11    14    15    1
    12     1     8    1
    13     1     2    1
    14     3     9    1
    15     3     2    2
    16     2     7    1
