@<TRIPOS>MOLECULE
1ujw_LIM_A_1.pdb
 17 16 0 0 0
SMALL
GASTEIGER

@<TRIPOS>ATOM
      1  C1J      -16.7820   48.3330  102.9700 C.3   812  LIM812      0.1847
      2  C2J      -16.0140   49.5570  103.5530 C.3   812  LIM812      0.0684
      3  C3J      -16.5950   49.9740  104.9380 C.3   812  LIM812      0.1546
      4  C4J      -15.7070   49.6500  106.1570 C.3   812  LIM812      0.0330
      5  C5J      -16.5280   49.7940  107.4490 C.3   812  LIM812      0.0026
      6  C6J      -15.7360   49.6180  108.7460 C.3   812  LIM812      0.0001
      7  C7J      -14.9920   50.9070  109.1030 C.3   812  LIM812      0.0000
      8  C8J      -14.2270   50.7850  110.4170 C.3   812  LIM812      0.0000
      9  C9J      -13.4860   52.0790  110.7420 C.3   812  LIM812      0.0000
     10  C0X      -12.3120   51.7980  111.6790 C.3   812  LIM812      0.0000
     11  C1X      -11.3240   52.9610  111.6810 C.3   812  LIM812      0.0000
     12  C2X      -11.7460   53.9350  112.7750 C.3   812  LIM812      0.0000
     13  C3X      -10.7190   55.0040  113.1250 C.3   812  LIM812      0.0000
     14  C4X       -9.3230   54.4370  113.3520 C.3   812  LIM812      0.0000
     15  C5X       -9.3790   53.2290  114.2750 C.3   812  LIM812      0.0000
     16  O1J      -16.7510   47.3070  103.9850 O.3   812  LIM812     -0.2203
     17  O2J      -16.8520   51.3690  104.9690 O.3   812  LIM812     -0.2231
@<TRIPOS>BOND
     1     1     2    1
     2     1    16    1
     3     2     3    1
     4     3    17    1
     5     3     4    1
     6     4     5    1
     7     5     6    1
     8     6     7    1
     9     7     8    1
    10     8     9    1
    11     9    10    1
    12    10    11    1
    13    11    12    1
    14    12    13    1
    15    13    14    1
    16    14    15    1
