@<TRIPOS>MOLECULE
1uk0_FRM_A_1.pdb
 28 31 0 0 0
SMALL
GASTEIGER

@<TRIPOS>ATOM
      1  C1         7.0370   -7.5740   32.4270 C.2   501  FRM501     -0.0231
      2  C2         7.6430   -6.3620   32.5520 C.2   501  FRM501      0.0055
      3  C3         7.1280   -5.5140   33.4930 C.2   501  FRM501      0.1508
      4  C4         6.0830   -5.8630   34.3050 C.2   501  FRM501      0.1215
      5  C5         5.4480   -7.0710   34.2310 C.2   501  FRM501     -0.0062
      6  C6         5.9450   -7.9070   33.2540 C.3   501  FRM501      0.0526
      7  N10        7.6270   -4.2770   33.5690 N.2   501  FRM501     -0.3424
      8  C11        7.0720   -3.3030   34.2440 C.1   501  FRM501      0.1258
      9  N12        6.0080   -3.5860   34.9520 N.2   501  FRM501     -0.2706
     10  C13        5.6180   -4.8250   35.1480 C.1   501  FRM501      0.2162
     11  O14        4.8250   -5.0650   36.0130 O.2   501  FRM501     -0.2085
     12  C17        7.8290   -2.0230   34.4140 C.3   501  FRM501      0.1272
     13  C20        6.9420   -0.7860   34.5150 C.3   501  FRM501      0.0355
     14  C23        7.0100    0.1110   33.3230 C.3   501  FRM501      0.0736
     15  N26        8.3280    0.7270   33.3880 N.3   501  FRM501     -0.2686
     16  C29        9.1010    0.7190   32.1530 C.3   501  FRM501      0.0986
     17  C30        8.4580    1.6530   31.1910 C.2   501  FRM501     -0.0130
     18  C31        7.7330    2.6910   31.5380 C.2   501  FRM501     -0.0237
     19  C32        7.4740    2.9150   33.0090 C.3   501  FRM501      0.0434
     20  C33        8.3310    2.0400   33.9090 C.3   501  FRM501      0.0771
     21  C40        7.3850    3.7690   30.6040 C.ar  501  FRM501     -0.0040
     22  C42        8.0180    4.0080   29.3980 C.ar  501  FRM501      0.0020
     23  C43        7.7990    5.2390   28.8330 C.ar  501  FRM501      0.0296
     24  C44        7.0120    6.1780   29.4630 C.ar  501  FRM501      0.1401
     25  C45        6.3660    5.9710   30.6270 C.ar  501  FRM501      0.0296
     26  C46        6.5260    4.7310   31.1360 C.ar  501  FRM501      0.0020
     27  C7         8.8280   -6.0100   31.7050 C.3   501  FRM501      0.0334
     28  F1         6.7170    7.3180   28.8710 F     501  FRM501     -0.2042
@<TRIPOS>BOND
     1    23    22   ar
     2    23    24   ar
     3    28    24    1
     4    22    21   ar
     5    24    25   ar
     6    21    26   ar
     7    21    18    1
     8    25    26   ar
     9    17    18    2
    10    17    16    1
    11    18    19    1
    12    27     2    1
    13    16    15    1
    14     1     2    2
    15     1     6    1
    16     2     3    1
    17    19    20    1
    18     6     5    1
    19    14    15    1
    20    14    13    1
    21    15    20    1
    22     3     7    2
    23     3     4    1
    24     7     8    2
    25     5     4    2
    26     8    12    1
    27     8     9    2
    28     4    10    1
    29    12    13    1
    30     9    10    2
    31    10    11    2
