@<TRIPOS>MOLECULE
1uk1_FRQ_A_1.pdb
 29 32 0 0 0
SMALL
GASTEIGER

@<TRIPOS>ATOM
      1  C1         7.6140   -7.7970   32.1870 C.ar  501  FRQ501      0.0036
      2  C2         8.1890   -6.5390   32.2300 C.ar  501  FRQ501      0.0164
      3  C3         7.6850   -5.5770   33.0970 C.ar  501  FRQ501      0.0769
      4  C4         6.5890   -5.8690   33.8730 C.ar  501  FRQ501      0.1370
      5  C5         6.0230   -7.0990   33.8040 C.ar  501  FRQ501      0.1532
      6  C6         6.5240   -8.0790   32.9930 C.ar  501  FRQ501      0.0305
      7  N10        8.2480   -4.3570   33.2710 N.am  501  FRQ501     -0.2046
      8  C11        7.7040   -3.4420   34.0540 C.1   501  FRQ501      0.2825
      9  N12        6.6400   -3.7060   34.7200 N.2   501  FRQ501     -0.2452
     10  C13        6.0480   -4.8680   34.7540 C.1   501  FRQ501      0.2196
     11  O14        5.1070   -5.0400   35.5180 O.2   501  FRQ501     -0.2084
     12  O15        8.2020   -2.3610   34.1990 O.2   501  FRQ501     -0.1919
     13  C16        9.5310   -4.0410   32.7140 C.3   501  FRQ501      0.1091
     14  C17        9.3860   -3.4660   31.3230 C.3   501  FRQ501      0.0241
     15  C20        8.9980   -2.0130   31.2620 C.3   501  FRQ501      0.0191
     16  C23        9.4010   -1.4750   29.8970 C.3   501  FRQ501      0.0724
     17  N26        9.0110   -0.0870   29.7140 N.3   501  FRQ501     -0.2687
     18  C29        8.6410    0.7200   30.8850 C.3   501  FRQ501      0.0986
     19  C30        8.4270    2.1540   30.5010 C.2   501  FRQ501     -0.0130
     20  C31        8.5790    2.6760   29.2750 C.2   501  FRQ501     -0.0237
     21  C32        8.9560    1.7710   28.1380 C.3   501  FRQ501      0.0434
     22  C33        8.4970    0.3440   28.4150 C.3   501  FRQ501      0.0771
     23  C40        8.2340    4.0760   29.0770 C.ar  501  FRQ501     -0.0042
     24  C42        8.4500    4.9790   30.1090 C.ar  501  FRQ501     -0.0003
     25  C43        8.0450    6.2940   29.9790 C.ar  501  FRQ501     -0.0000
     26  C44        7.4740    6.7300   28.8000 C.ar  501  FRQ501     -0.0000
     27  C45        7.3110    5.8440   27.7390 C.ar  501  FRQ501     -0.0000
     28  C46        7.6690    4.5130   27.8910 C.ar  501  FRQ501     -0.0003
     29  F53        4.9480   -7.3330   34.5090 F     501  FRQ501     -0.2033
@<TRIPOS>BOND
     1    27    28   ar
     2    27    26   ar
     3    28    23   ar
     4    21    22    1
     5    21    20    1
     6    22    17    1
     7    26    25   ar
     8    23    20    1
     9    23    24   ar
    10    20    19    2
    11    17    16    1
    12    17    18    1
    13    16    15    1
    14    25    24   ar
    15    19    18    1
    16    15    14    1
    17    14    13    1
    18     1     2   ar
    19     1     6   ar
    20     2     3   ar
    21    13     7    1
    22     6     5   ar
    23     3     7    1
    24     3     4   ar
    25     7     8   am
    26     5     4   ar
    27     5    29    1
    28     4    10    1
    29     8    12    2
    30     8     9    2
    31     9    10    2
    32    10    11    2
