@<TRIPOS>MOLECULE
1uk4_III_G_1.pdb
 39 37 0 0 0
SMALL
GASTEIGER

@<TRIPOS>ATOM
      1  N         73.1220   -4.5540   -0.4520 N.3     1  ASN1       -0.1225
      2  CA        73.8090   -4.0630    0.7720 C.3     1  ASN1        0.1785
      3  C         73.1240   -2.7880    1.2720 C.2     1  ASN1        0.2598
      4  O         73.5740   -1.6840    0.9490 O.2     1  ASN1       -0.2718
      5  CB        75.2810   -3.7510    0.4420 C.3     1  ASN1        0.1169
      6  CG        76.0880   -3.3730    1.6740 C.2     1  ASN1        0.2627
      7  OD1       77.0650   -2.6510    1.5770 O.2     1  ASN1       -0.2716
      8  ND2       75.6720   -3.8740    2.8470 N.am    1  ASN1       -0.0877
      9  N         72.0570   -2.9370    2.0530 N.am    2  SER2       -0.1938
     10  CA        71.3470   -1.7800    2.5660 C.3     2  SER2        0.2055
     11  C         72.0090   -1.1950    3.8100 C.2     2  SER2        0.2644
     12  O         72.3610   -1.9340    4.7310 O.2     2  SER2       -0.2714
     13  CB        69.8940   -2.1520    2.8690 C.3     2  SER2        0.2130
     14  OG        69.8200   -3.1860    3.8250 O.3     2  SER2       -0.2179
     15  N         72.1450    0.1320    3.8490 N.am    3  THR3       -0.1936
     16  CA        72.7810    0.8020    4.9830 C.3     3  THR3        0.2028
     17  C         71.9750    1.9860    5.5220 C.2     3  THR3        0.2642
     18  O         72.2340    3.1400    5.1780 O.2     3  THR3       -0.2714
     19  CB        74.1740    1.3120    4.5920 C.3     3  THR3        0.1808
     20  OG1       74.8880    0.2730    3.9130 O.3     3  THR3       -0.2208
     21  CG2       74.9570    1.7180    5.8250 C.3     3  THR3        0.0379
     22  N         71.0120    1.6820    6.3840 N.am    4  LEU4       -0.1963
     23  CA        70.1370    2.6710    7.0160 C.3     4  LEU4        0.1728
     24  C         69.3150    1.8100    7.9450 C.2     4  LEU4        0.2612
     25  O         68.8930    2.2390    9.0160 O.2     4  LEU4       -0.2715
     26  CB        69.2080    3.3260    5.9920 C.3     4  LEU4        0.0311
     27  CG        67.9650    4.0230    6.5630 C.3     4  LEU4        0.0022
     28  CD1       68.2900    5.4640    6.9390 C.3     4  LEU4        0.0001
     29  CD2       66.8490    3.9850    5.5280 C.3     4  LEU4        0.0001
     30  N         69.1110    0.5840    7.4670 N.am    5  GLN5       -0.2040
     31  CA        68.3770   -0.5080    8.0980 C.3     5  GLN5        0.1157
     32  C         68.1430   -0.4250    9.6090 C.3     5  GLN5        0.2208
     33  O         67.3250   -0.8550   10.4830 O.3     5  GLN5       -0.0346
     34  CB        69.1000   -1.8120    7.7410 C.3     5  GLN5        0.0331
     35  CG        68.4360   -3.0930    8.1950 C.3     5  GLN5        0.0904
     36  CD        69.1620   -4.3150    7.6840 C.2     5  GLN5        0.2608
     37  OE1       70.3860   -4.4030    7.7730 O.2     5  GLN5       -0.2717
     38  NE2       68.4110   -5.2700    7.1490 N.am    5  GLN5       -0.0878
     39  OXT       67.6860   -1.4300   10.1850 O.3     5  GLN5       -0.1862
@<TRIPOS>BOND
     1     1     2    1
     2     5     2    1
     3     5     6    1
     4     2     3    1
     5     4     3    2
     6     3     9   am
     7     7     6    2
     8     6     8   am
     9     9    10    1
    10    10    13    1
    11    10    11    1
    12    13    14    1
    13    11    15   am
    14    11    12    2
    15    15    16    1
    16    20    19    1
    17    19    16    1
    18    19    21    1
    19    16    17    1
    20    18    17    2
    21    17    22   am
    22    29    27    1
    23    26    27    1
    24    26    23    1
    25    22    23    1
    26    27    28    1
    27    23    24    1
    28    38    36   am
    29    30    24   am
    30    30    31    1
    31    36    37    2
    32    36    35    1
    33    34    31    1
    34    34    35    1
    35    24    25    2
    36    32    39    1
    37    39    33    1
