@<TRIPOS>MOLECULE
1ukg_MMA_A_1.pdb
 13 13 0 0 0
SMALL
GASTEIGER

@<TRIPOS>ATOM
      1  C1         4.4930   42.0770   25.5140 C.3   1251  MMA1251     0.2695
      2  C2         3.4280   41.1650   24.8930 C.3   1251  MMA1251     0.2406
      3  C3         2.8670   40.2210   25.9570 C.3   1251  MMA1251     0.2198
      4  C4         4.0080   39.4440   26.6120 C.3   1251  MMA1251     0.2144
      5  C5         5.0500   40.4230   27.1700 C.3   1251  MMA1251     0.1835
      6  C6         6.2580   39.7060   27.7420 C.3   1251  MMA1251     0.2142
      7  C7         4.7430   43.8940   27.0430 C.3   1251  MMA1251     0.1769
      8  O1         3.9180   42.8750   26.4940 O.3   1251  MMA1251    -0.3259
      9  O2         4.0120   40.4070   23.8440 O.3   1251  MMA1251    -0.2149
     10  O3         1.9470   39.3180   25.3640 O.3   1251  MMA1251    -0.2174
     11  O4         3.4960   38.6370   27.6620 O.3   1251  MMA1251    -0.2176
     12  O5         5.5350   41.2910   26.1170 O.3   1251  MMA1251    -0.3256
     13  O6         6.9490   38.9810   26.7330 O.3   1251  MMA1251    -0.2176
@<TRIPOS>BOND
     1     9     2    1
     2     2     1    1
     3     2     3    1
     4    10     3    1
     5     1    12    1
     6     1     8    1
     7     3     4    1
     8    12     5    1
     9     8     7    1
    10     4     5    1
    11     4    11    1
    12    13     6    1
    13     5     6    1
