@<TRIPOS>MOLECULE
1uki_537_A_1.pdb
 17 20 0 0 0
SMALL
GASTEIGER

@<TRIPOS>ATOM
      1  C1         5.4650   39.8790   31.2530 C.ar    0  5370        0.0000
      2  C2         4.2560   39.1260   31.4130 C.ar    0  5370        0.0013
      3  C3         3.2720   39.1480   30.3920 C.ar    0  5370        0.0190
      4  C4         3.4840   39.9400   29.1740 C.ar    0  5370        0.0396
      5  C5         4.7070   40.6850   29.0410 C.ar    0  5370        0.0032
      6  C6         5.6910   40.6550   30.0780 C.ar    0  5370        0.0001
      7  C11        1.1410   38.4620   29.4940 C.3     0  5370        0.1055
      8  C12        0.0940   37.6890   29.8350 C.2     0  5370        0.0894
      9  C13       -1.0220   37.5440   28.9580 C.2     0  5370        0.0129
     10  C14       -0.9780   38.2640   27.6940 C.2     0  5370       -0.0203
     11  C15        0.1710   39.0930   27.3600 C.3     0  5370        0.0520
     12  C16        1.2610   39.1890   28.2960 C.2     0  5370        0.0100
     13  C20        2.4590   39.9530   28.1150 C.2     0  5370        0.1888
     14  C21        2.0580   38.4190   30.5010 C.2     0  5370        0.0897
     15  O22        2.6270   40.6450   27.0280 O.2     0  5370       -0.2872
     16  N23        1.5710   37.6050   31.4900 N.2     0  5370       -0.1520
     17  N24        0.3750   37.1710   31.0650 N.2     0  5370       -0.1520
@<TRIPOS>BOND
     1    15    13    1
     2    11    10    1
     3    11    12    1
     4    10     9    2
     5    13    12    2
     6    13     4    1
     7    12     7    1
     8     9     8    1
     9     5     4   ar
    10     5     6   ar
    11     4     3   ar
    12     7     8    1
    13     7    14    1
    14     8    17    2
    15     6     1   ar
    16     3    14    1
    17     3     2   ar
    18    14    16    2
    19    17    16    1
    20     1     2   ar
