@<TRIPOS>MOLECULE
1ukm_NAG_B_1.pdb
 14 14 0 0 0
SMALL
GASTEIGER

@<TRIPOS>ATOM
      1  C1         7.2480   -8.7150   45.3550 C.3   1022  NAG1022     0.1665
      2  C2         7.7630   -8.4860   43.9240 C.3   1022  NAG1022     0.1576
      3  C3         6.9790   -9.3770   42.9680 C.3   1022  NAG1022     0.2069
      4  C4         7.1830  -10.8190   43.3860 C.3   1022  NAG1022     0.2134
      5  C5         6.6810  -10.9940   44.8230 C.3   1022  NAG1022     0.1809
      6  C6         6.8840  -12.4060   45.3370 C.3   1022  NAG1022     0.2141
      7  C7         8.6330   -6.3990   43.0950 C.2   1022  NAG1022     0.2420
      8  C8         8.3890   -4.9450   42.7260 C.3   1022  NAG1022     0.0964
      9  N2         7.5960   -7.0940   43.5520 N.am  1022  NAG1022    -0.2019
     10  O3         7.4470   -9.1870   41.6410 O.3   1022  NAG1022    -0.2184
     11  O4         6.4660  -11.6820   42.5130 O.3   1022  NAG1022    -0.2176
     12  O5         7.4140  -10.1030   45.7130 O.3   1022  NAG1022    -0.3489
     13  O6         8.1550  -12.5500   45.9560 O.3   1022  NAG1022    -0.2176
     14  O7         9.7600   -6.8840   42.9640 O.2   1022  NAG1022    -0.2733
@<TRIPOS>BOND
     1    10     3    1
     2    11     4    1
     3     8     7    1
     4    14     7    2
     5     3     4    1
     6     3     2    1
     7     7     9   am
     8     4     5    1
     9     9     2    1
    10     2     1    1
    11     5     6    1
    12     5    12    1
    13     6    13    1
    14     1    12    1
