@<TRIPOS>MOLECULE
1ukq_BGC_A_1.pdb
 11 11 0 0 0
SMALL
GASTEIGER

@<TRIPOS>ATOM
      1  C2        39.4710   47.3940   23.0230 C.3   704  BGC704      0.2409
      2  C3        39.1430   48.2350   21.7800 C.3   704  BGC704      0.1899
      3  C4        40.5200   48.6850   21.1270 C.3   704  BGC704      0.0681
      4  C5        41.6240   47.5380   21.0260 C.3   704  BGC704      0.1534
      5  C6        43.1130   47.9420   20.8030 C.3   704  BGC704      0.2116
      6  C1        40.3040   46.1980   22.5940 C.3   704  BGC704      0.3022
      7  O1        40.3140   45.2780   23.7030 O.3   704  BGC704     -0.1869
      8  O2        38.2800   46.9490   23.6830 O.3   704  BGC704     -0.2149
      9  O3        38.3310   49.3000   22.2820 O.3   704  BGC704     -0.2201
     10  O5        41.6140   46.7180   22.2420 O.3   704  BGC704     -0.3263
     11  O6        43.5420   48.9670   21.7020 O.3   704  BGC704     -0.2177
@<TRIPOS>BOND
     1     5     4    1
     2     5    11    1
     3     4     3    1
     4     4    10    1
     5     3     2    1
     6     2     9    1
     7     2     1    1
     8    10     6    1
     9     6     1    1
    10     6     7    1
    11     1     8    1
