@<TRIPOS>MOLECULE
1ukq_ACI_A_1.pdb
 11 11 0 0 0
SMALL
GASTEIGER

@<TRIPOS>ATOM
      1  C1        45.0700   51.3300   17.7210 C.3   702  ACI702      0.1247
      2  C2        46.3430   50.4830   17.7080 C.3   702  ACI702      0.1995
      3  C3        46.9120   50.2300   19.0870 C.3   702  ACI702      0.1837
      4  C4        47.4050   51.6040   19.6110 C.3   702  ACI702      0.0383
      5  C5        46.5330   52.8540   19.2130 C.3   702  ACI702      0.0372
      6  C6        47.2660   54.1860   18.8700 C.3   702  ACI702      0.1822
      7  C7        45.3450   52.6670   18.4560 C.3   702  ACI702      0.0244
      8  N1        43.9670   50.4570   18.1950 N.3   702  ACI702     -0.1301
      9  O2        46.0050   49.2460   17.1890 O.3   702  ACI702     -0.2189
     10  O3        47.9400   49.2360   18.9750 O.3   702  ACI702     -0.2204
     11  O6        48.2120   54.6720   19.8450 O.3   702  ACI702     -0.2204
@<TRIPOS>BOND
     1     9     2    1
     2     2     1    1
     3     2     3    1
     4     1     8    1
     5     1     7    1
     6     7     5    1
     7     6     5    1
     8     6    11    1
     9    10     3    1
    10     3     4    1
    11     5     4    1
