@<TRIPOS>MOLECULE
1ukq_G6D_A_1.pdb
 10 10 0 0 0
SMALL
GASTEIGER

@<TRIPOS>ATOM
      1  C1        39.8830   50.3830   19.3180 C.3   703  G6D703      0.3021
      2  O2        39.3100   49.7550   16.8690 O.3   703  G6D703     -0.2149
      3  C2        40.1770   50.4330   17.7790 C.3   703  G6D703      0.2409
      4  C3A       41.6480   49.9150   17.5930 C.3   703  G6D703      0.1898
      5  O3A       41.9240   49.7370   16.2120 O.3   703  G6D703     -0.2201
      6  C4A       42.5820   50.9760   18.2620 C.3   703  G6D703      0.0653
      7  C5A       42.1830   51.2640   19.7450 C.3   703  G6D703      0.1206
      8  O5        40.7310   51.4500   19.8760 O.3   703  G6D703     -0.3290
      9  C6A       42.8460   52.5170   20.3350 C.3   703  G6D703      0.0322
     10  O1        40.2950   49.0630   19.7390 O.3   703  G6D703     -0.1869
@<TRIPOS>BOND
     1     5     4    1
     2     2     3    1
     3     4     3    1
     4     4     6    1
     5     3     1    1
     6     6     7    1
     7     1    10    1
     8     1     8    1
     9     7     8    1
    10     7     9    1
