@<TRIPOS>MOLECULE
1ukq_GLC_A_1.pdb
 12 12 0 0 0
SMALL
GASTEIGER

@<TRIPOS>ATOM
      1  C1        48.4700   52.0630   21.7990 C.3   701  GLC701      0.3024
      2  C2        49.6170   50.9630   21.8610 C.3   701  GLC701      0.2434
      3  C3        50.0060   50.8620   23.3370 C.3   701  GLC701      0.2199
      4  C4        50.2680   52.3340   23.8840 C.3   701  GLC701      0.2144
      5  C5        48.8430   52.9170   24.1910 C.3   701  GLC701      0.1836
      6  C6        48.6470   54.4590   24.4890 C.3   701  GLC701      0.2142
      7  O1        47.3580   51.5200   21.0520 O.3   701  GLC701     -0.1869
      8  O2        49.1710   49.7270   21.2910 O.3   701  GLC701     -0.2148
      9  O3        51.1300   50.0270   23.5260 O.3   701  GLC701     -0.2174
     10  O4        51.1610   52.3360   25.0190 O.3   701  GLC701     -0.2176
     11  O5        47.9380   52.5470   23.0770 O.3   701  GLC701     -0.3236
     12  O6        49.3680   55.3690   23.6380 O.3   701  GLC701     -0.2176
@<TRIPOS>BOND
     1     7     1    1
     2     8     2    1
     3     1     2    1
     4     1    11    1
     5     2     3    1
     6    11     5    1
     7     3     9    1
     8     3     4    1
     9    12     6    1
    10     4     5    1
    11     4    10    1
    12     5     6    1
