@<TRIPOS>MOLECULE
1uks_GLC_A_1.pdb
 11 11 0 0 0
SMALL
GASTEIGER

@<TRIPOS>ATOM
      1  C1        49.4120   53.7530   26.9650 C.3   701  GLC701      0.1777
      2  C2        50.5360   53.2110   27.9330 C.3   701  GLC701      0.2141
      3  C3        49.9320   52.5110   29.1450 C.3   701  GLC701      0.2173
      4  C4        48.9800   53.5270   29.8430 C.3   701  GLC701      0.2142
      5  C5        47.7600   53.8130   28.9040 C.3   701  GLC701      0.1810
      6  C6        46.8490   54.9080   29.6030 C.3   701  GLC701      0.2141
      7  O2        51.4230   52.2630   27.2910 O.3   701  GLC701     -0.2176
      8  O3        50.9830   52.0270   30.0220 O.3   701  GLC701     -0.2175
      9  O4        48.5650   52.9930   31.1150 O.3   701  GLC701     -0.2176
     10  O5        48.2200   54.3580   27.6110 O.3   701  GLC701     -0.3481
     11  O6        47.4680   56.1970   29.4710 O.3   701  GLC701     -0.2176
@<TRIPOS>BOND
     1     1    10    1
     2     1     2    1
     3     7     2    1
     4    10     5    1
     5     2     3    1
     6     5     6    1
     7     5     4    1
     8     3     4    1
     9     3     8    1
    10    11     6    1
    11     4     9    1
