@<TRIPOS>MOLECULE
1uks_ACI_A_1.pdb
 12 12 0 0 0
SMALL
GASTEIGER

@<TRIPOS>ATOM
      1  C1        49.2900   52.2440   21.7630 C.3   702  ACI702      0.1249
      2  C2        50.3200   51.3910   22.5660 C.3   702  ACI702      0.2020
      3  C3        50.0960   51.4280   24.1060 C.3   702  ACI702      0.2137
      4  C4        49.8540   52.8400   24.6860 C.3   702  ACI702      0.1872
      5  C5        49.0920   53.8260   23.7620 C.3   702  ACI702      0.0676
      6  C6        48.3140   54.9950   24.3520 C.3   702  ACI702      0.1847
      7  C7        48.9580   53.6100   22.3840 C.3   702  ACI702      0.0270
      8  N1        48.0740   51.4080   21.5140 N.3   702  ACI702     -0.1301
      9  O2        50.1830   50.0030   22.1800 O.3   702  ACI702     -0.2188
     10  O3        51.3010   50.9440   24.7220 O.3   702  ACI702     -0.2176
     11  O4        49.0450   52.7640   25.9240 O.3   702  ACI702     -0.2202
     12  O6        49.3080   55.9730   24.6370 O.3   702  ACI702     -0.2203
@<TRIPOS>BOND
     1     8     1    1
     2     1     7    1
     3     1     2    1
     4     9     2    1
     5     7     5    1
     6     2     3    1
     7     5     6    1
     8     5     4    1
     9     3     4    1
    10     3    10    1
    11     6    12    1
    12     4    11    1
