@<TRIPOS>MOLECULE
1uks_GAL_A_1.pdb
 12 12 0 0 0
SMALL
GASTEIGER

@<TRIPOS>ATOM
      1  C1        40.2170   50.0240   17.6830 C.3   704  GAL704      0.3024
      2  C2        40.9910   50.9850   16.7450 C.3   704  GAL704      0.2434
      3  C3        42.4410   50.2610   16.7950 C.3   704  GAL704      0.2199
      4  C4        43.0300   50.5610   18.2420 C.3   704  GAL704      0.2144
      5  C5        42.0210   50.0760   19.3670 C.3   704  GAL704      0.1836
      6  C6        42.4360   50.7300   20.7060 C.3   704  GAL704      0.2142
      7  O1        38.8310   50.0060   17.3470 O.3   704  GAL704     -0.1869
      8  O2        40.2780   51.2190   15.4810 O.3   704  GAL704     -0.2148
      9  O3        43.3180   50.6790   15.7480 O.3   704  GAL704     -0.2174
     10  O4        44.3370   49.9250   18.5300 O.3   704  GAL704     -0.2176
     11  O5        40.6040   50.4770   19.0340 O.3   704  GAL704     -0.3236
     12  O6        42.5400   52.1510   20.5330 O.3   704  GAL704     -0.2176
@<TRIPOS>BOND
     1     8     2    1
     2     9     3    1
     3     2     3    1
     4     2     1    1
     5     3     4    1
     6     7     1    1
     7     1    11    1
     8     4    10    1
     9     4     5    1
    10    11     5    1
    11     5     6    1
    12    12     6    1
