@<TRIPOS>MOLECULE
1ukt_GAL_A_1.pdb
 12 12 0 0 0
SMALL
GASTEIGER

@<TRIPOS>ATOM
      1  C1        41.9200   42.4520   23.9250 C.3   704  GAL704      0.3024
      2  C2        41.1370   43.3880   24.8570 C.3   704  GAL704      0.2434
      3  C3        40.7520   44.6230   24.0580 C.3   704  GAL704      0.2199
      4  C4        42.0450   45.3540   23.6880 C.3   704  GAL704      0.2144
      5  C5        42.9390   44.4450   22.8160 C.3   704  GAL704      0.1836
      6  C6        44.3320   45.0770   22.5890 C.3   704  GAL704      0.2142
      7  O1        42.2740   41.2560   24.6080 O.3   704  GAL704     -0.1869
      8  O2        39.9730   42.7570   25.3690 O.3   704  GAL704     -0.2148
      9  O3        39.9090   45.4600   24.8380 O.3   704  GAL704     -0.2174
     10  O4        41.7950   46.6310   23.0720 O.3   704  GAL704     -0.2176
     11  O5        43.0910   43.1460   23.4440 O.3   704  GAL704     -0.3236
     12  O6        44.9300   45.4770   23.8190 O.3   704  GAL704     -0.2176
@<TRIPOS>BOND
     1     6     5    1
     2     6    12    1
     3     5    11    1
     4     5     4    1
     5    10     4    1
     6    11     1    1
     7     4     3    1
     8     1     7    1
     9     1     2    1
    10     3     9    1
    11     3     2    1
    12     2     8    1
