@<TRIPOS>MOLECULE
1ukt_ACI_A_1.pdb
 12 12 0 0 0
SMALL
GASTEIGER

@<TRIPOS>ATOM
      1  C1        47.8770   51.3150   20.5620 C.3   701  ACI701      0.1462
      2  C2        49.2710   50.7390   20.7620 C.3   701  ACI701      0.2065
      3  C3        49.6050   50.7190   22.2440 C.3   701  ACI701      0.2179
      4  C4        49.7690   52.1540   22.7350 C.3   701  ACI701      0.2053
      5  C5        48.5170   52.9900   22.4500 C.2   701  ACI701      0.0180
      6  C6        48.1250   54.2160   23.2730 C.3   701  ACI701      0.2066
      7  C7        47.6400   52.6100   21.3920 C.2   701  ACI701     -0.0084
      8  N1        46.8940   50.2690   20.8450 N.3   701  ACI701     -0.1254
      9  O2        49.3240   49.4140   20.2450 O.3   701  ACI701     -0.2184
     10  O3        50.8150   50.0050   22.4300 O.3   701  ACI701     -0.2172
     11  O4        50.0660   52.1610   24.1290 O.3   701  ACI701     -0.2157
     12  O6        48.4780   54.0360   24.6360 O.3   701  ACI701     -0.2155
@<TRIPOS>BOND
     1     9     2    1
     2     1     2    1
     3     1     8    1
     4     1     7    1
     5     2     3    1
     6     7     5    2
     7     3    10    1
     8     3     4    1
     9     5     4    1
    10     5     6    1
    11     4    11    1
    12     6    12    1
