@<TRIPOS>MOLECULE
1ukt_GLC_A_1.pdb
 11 11 0 0 0
SMALL
GASTEIGER

@<TRIPOS>ATOM
      1  C1        40.8420   46.6580   22.0040 C.3   703  GLC703      0.1777
      2  C2        41.5610   46.6840   20.6630 C.3   703  GLC703      0.2141
      3  C3        42.3250   47.9820   20.5220 C.3   703  GLC703      0.2173
      4  C4        41.3150   49.1180   20.4910 C.3   703  GLC703      0.2142
      5  C5        40.5090   49.1560   21.7970 C.3   703  GLC703      0.1810
      6  C6        39.3370   50.1360   21.6550 C.3   703  GLC703      0.2141
      7  O2        42.4440   45.5890   20.5140 O.3   703  GLC703     -0.2176
      8  O3        43.0720   47.9610   19.3080 O.3   703  GLC703     -0.2175
      9  O4        41.9550   50.3620   20.1840 O.3   703  GLC703     -0.2176
     10  O5        39.9920   47.8280   22.0830 O.3   703  GLC703     -0.3481
     11  O6        38.5440   50.0990   22.8370 O.3   703  GLC703     -0.2176
@<TRIPOS>BOND
     1     8     3    1
     2     9     4    1
     3     4     3    1
     4     4     5    1
     5     7     2    1
     6     3     2    1
     7     2     1    1
     8     6     5    1
     9     6    11    1
    10     5    10    1
    11     1    10    1
