@<TRIPOS>MOLECULE
1ukv_GDP_Y_1.pdb
 28 30 0 0 0
SMALL
GASTEIGER

@<TRIPOS>ATOM
      1  PB        12.5910  -30.7660    5.0470 P.3   1207  GDP1207     0.5373
      2  O1B       13.6540  -30.7720    6.0450 O.3   1207  GDP1207    -0.1143
      3  O2B       13.0320  -31.3310    3.7150 O.2   1207  GDP1207    -0.2221
      4  O3B       11.3210  -31.4570    5.4420 O.3   1207  GDP1207    -0.1143
      5  O3A       12.0690  -29.2440    4.5290 O.3   1207  GDP1207    -0.2261
      6  PA        11.3180  -28.2120    5.4680 P.3   1207  GDP1207     0.2231
      7  O1A       10.0520  -28.3160    4.8450 O.2   1207  GDP1207    -0.5169
      8  O2A       11.2510  -28.4110    6.9800 O.3   1207  GDP1207    -0.4370
      9  O5'       11.9520  -26.8280    4.9880 O.3   1207  GDP1207    -0.3111
     10  C5'       13.2350  -26.4400    5.3800 C.3   1207  GDP1207     0.1813
     11  C4'       13.3710  -24.9420    5.2370 C.3   1207  GDP1207     0.1799
     12  O4'       13.2920  -24.3920    3.8540 O.3   1207  GDP1207    -0.3326
     13  C3'       12.2890  -24.0820    5.9770 C.3   1207  GDP1207     0.2158
     14  O3'       12.9790  -22.8620    6.4440 O.3   1207  GDP1207    -0.2175
     15  C2'       11.2860  -23.7200    4.9180 C.3   1207  GDP1207     0.2310
     16  O2'       10.4920  -22.5740    5.2200 O.3   1207  GDP1207    -0.2158
     17  C1'       12.1610  -23.5890    3.6930 C.3   1207  GDP1207     0.2293
     18  N9        11.4810  -23.9500    2.4160 N.pl3 1207  GDP1207    -0.2354
     19  C8        10.7540  -25.0480    2.0880 C.3   1207  GDP1207     0.2246
     20  N7        10.3070  -25.0210    0.8980 N.2   1207  GDP1207    -0.2322
     21  C5        10.7570  -23.8100    0.3530 C.2   1207  GDP1207     0.2182
     22  C6        10.5670  -23.2400   -0.9270 C.1   1207  GDP1207     0.2372
     23  O6         9.9320  -23.7220   -1.8520 O.2   1207  GDP1207    -0.2069
     24  N1        11.2050  -21.9970   -1.0640 N.2   1207  GDP1207    -0.2485
     25  C2        11.9410  -21.3660   -0.0710 C.1   1207  GDP1207     0.2531
     26  N2        12.4790  -20.1910   -0.3830 N.pl3 1207  GDP1207    -0.0226
     27  N3        12.1160  -21.9090    1.1660 N.2   1207  GDP1207    -0.3074
     28  C4        11.5000  -23.1140    1.2670 C.2   1207  GDP1207     0.2300
@<TRIPOS>BOND
     1    23    22    2
     2    24    22    2
     3    24    25    2
     4    22    21    1
     5    26    25    1
     6    25    27    2
     7    21    20    2
     8    21    28    1
     9    20    19    1
    10    27    28    2
    11    28    18    1
    12    19    18    1
    13    18    17    1
    14    17    12    1
    15    17    15    1
    16     3     1    2
    17    12    11    1
    18     5     1    1
    19     5     6    1
    20     7     6    2
    21    15    16    1
    22    15    13    1
    23     9    10    1
    24     9     6    1
    25     1     4    1
    26     1     2    1
    27    11    10    1
    28    11    13    1
    29     6     8    1
    30    13    14    1
