@<TRIPOS>MOLECULE
1ukv_GER_Y_1.pdb
 20 19 0 0 0
SMALL
GASTEIGER

@<TRIPOS>ATOM
      1  C1       -12.4480  -67.2630   26.4430 C.3   1206  GER1206     0.0300
      2  C2       -11.7740  -68.5260   25.9100 C.2   1206  GER1206    -0.0342
      3  C3       -12.2670  -69.3630   24.9440 C.2   1206  GER1206    -0.0478
      4  C4       -13.6340  -69.0210   24.3250 C.3   1206  GER1206     0.0260
      5  C5       -11.4360  -70.6080   24.5130 C.3   1206  GER1206     0.0263
      6  C6       -10.0680  -70.9900   25.0960 C.3   1206  GER1206     0.0297
      7  C7       -10.1760  -72.2000   26.0200 C.2   1206  GER1206    -0.0342
      8  C8        -9.1060  -73.0010   26.2910 C.2   1206  GER1206    -0.0478
      9  C9        -7.7670  -72.6500   25.6340 C.3   1206  GER1206     0.0260
     10  C10       -9.4080  -74.1890   27.2410 C.3   1206  GER1206     0.0263
     11  C11       -9.5510  -75.6400   26.7630 C.3   1206  GER1206     0.0297
     12  C12      -10.5980  -76.3730   27.5750 C.2   1206  GER1206    -0.0342
     13  C13      -10.9600  -77.6800   27.4070 C.2   1206  GER1206    -0.0478
     14  C14      -10.2660  -78.5140   26.3150 C.3   1206  GER1206     0.0260
     15  C15      -12.0380  -78.2780   28.3280 C.3   1206  GER1206     0.0263
     16  C16      -13.5220  -78.3460   28.0020 C.3   1206  GER1206     0.0297
     17  C17      -14.2130  -77.0180   28.2770 C.2   1206  GER1206    -0.0342
     18  C18      -15.3410  -76.6320   27.6060 C.2   1206  GER1206    -0.0478
     19  C19      -15.9160  -77.5930   26.5460 C.3   1206  GER1206     0.0260
     20  C20      -15.8790  -75.2380   28.0330 C.3   1206  GER1206     0.0260
@<TRIPOS>BOND
     1     4     3    1
     2     5     3    1
     3     5     6    1
     4     3     2    2
     5     6     7    1
     6     9     8    1
     7     2     1    1
     8     7     8    2
     9     8    10    1
    10    14    13    1
    11    19    18    1
    12    11    10    1
    13    11    12    1
    14    13    12    2
    15    13    15    1
    16    18    20    1
    17    18    17    2
    18    16    17    1
    19    16    15    1
