@<TRIPOS>MOLECULE
1uky_ADP_A_1.pdb
 27 29 0 0 0
SMALL
GASTEIGER

@<TRIPOS>ATOM
      1  PB        13.8830   33.4150    6.4440 P.3   205  ADP205      0.5373
      2  O1B       12.6340   33.4790    7.1590 O.3   205  ADP205     -0.1143
      3  O2B       14.2650   32.1580    5.8740 O.2   205  ADP205     -0.2221
      4  O3B       15.0790   33.9610    7.1580 O.3   205  ADP205     -0.1143
      5  PA        12.8490   35.6510    4.7510 P.3   205  ADP205      0.2231
      6  O1A       12.7620   36.8020    5.6400 O.3   205  ADP205     -0.4370
      7  O2A       11.5790   35.1620    4.2740 O.2   205  ADP205     -0.5169
      8  O3A       13.6520   34.4390    5.3000 O.3   205  ADP205     -0.2261
      9  O5'       13.6050   36.1420    3.4550 O.3   205  ADP205     -0.3111
     10  C5'       14.8870   36.7990    3.5450 C.3   205  ADP205      0.1813
     11  C4'       14.9240   38.1840    2.8630 C.3   205  ADP205      0.1821
     12  O4'       14.9580   38.1210    1.4100 O.3   205  ADP205     -0.3135
     13  C3'       13.6690   39.0600    3.1990 C.3   205  ADP205      0.2184
     14  O3'       13.9890   40.4560    3.0520 O.3   205  ADP205     -0.2174
     15  C2'       12.6500   38.6320    2.0990 C.3   205  ADP205      0.2570
     16  O2'       11.9600   39.7650    1.5690 O.3   205  ADP205     -0.2130
     17  C1'       13.5890   38.0120    1.0820 C.3   205  ADP205      0.3186
     18  N9        13.1470   37.1410    0.0640 N.pl3 205  ADP205     -0.1439
     19  C8        12.4500   36.0110    0.3190 C.3   205  ADP205      0.3377
     20  N7        12.3460   35.2670   -0.7390 N.2   205  ADP205     -0.2095
     21  C5        12.9980   35.9110   -1.7740 C.2   205  ADP205      0.2526
     22  C6        13.2330   35.5670   -3.1320 C.2   205  ADP205      0.4393
     23  N6        12.8250   34.4350   -3.7110 N.pl3 205  ADP205      0.2180
     24  N1        13.9220   36.4610   -3.8170 N.2   205  ADP205      0.0021
     25  C2        14.3310   37.5810   -3.1910 C.3   205  ADP205      0.5254
     26  N3        14.2020   38.0390   -1.9580 N.2   205  ADP205     -0.0055
     27  C4        13.4990   37.1350   -1.2480 C.2   205  ADP205      0.3518
@<TRIPOS>BOND
     1    24    25    1
     2    24    22    2
     3    23    22    1
     4    25    26    1
     5    22    21    1
     6    26    27    2
     7    21    27    1
     8    21    20    2
     9    27    18    1
    10    20    19    1
    11    18    19    1
    12    18    17    1
    13    17    12    1
    14    17    15    1
    15    12    11    1
    16    16    15    1
    17    15    13    1
    18    11    13    1
    19    11    10    1
    20    14    13    1
    21     9    10    1
    22     9     5    1
    23     7     5    2
    24     5     8    1
    25     5     6    1
    26     8     1    1
    27     3     1    2
    28     1     4    1
    29     1     2    1
