@<TRIPOS>MOLECULE
1ukz_ADP_A_1.pdb
 27 29 0 0 0
SMALL
GASTEIGER

@<TRIPOS>ATOM
      1  PB        13.6150   32.9840    6.3130 P.3   205  ADP205      0.5373
      2  O1B       12.3830   33.0430    7.0410 O.3   205  ADP205     -0.1143
      3  O2B       13.9670   31.6950    5.7780 O.2   205  ADP205     -0.2221
      4  O3B       14.7200   33.4360    7.2540 O.3   205  ADP205     -0.1143
      5  PA        12.6020   35.1880    4.6140 P.3   205  ADP205      0.2231
      6  O1A       12.5350   36.2400    5.5510 O.3   205  ADP205     -0.4370
      7  O2A       11.3270   34.6980    4.1680 O.2   205  ADP205     -0.5169
      8  O3A       13.4880   34.0480    5.2000 O.3   205  ADP205     -0.2261
      9  O5'       13.3540   35.7120    3.3730 O.3   205  ADP205     -0.3111
     10  C5'       14.6090   36.3660    3.5690 C.3   205  ADP205      0.1813
     11  C4'       14.6420   37.7620    2.9470 C.3   205  ADP205      0.1821
     12  O4'       14.6920   37.6410    1.5240 O.3   205  ADP205     -0.3135
     13  C3'       13.4080   38.6790    3.2520 C.3   205  ADP205      0.2184
     14  O3'       13.8030   40.0240    3.1110 O.3   205  ADP205     -0.2174
     15  C2'       12.4120   38.2770    2.1580 C.3   205  ADP205      0.2570
     16  O2'       11.5980   39.3690    1.6680 O.3   205  ADP205     -0.2130
     17  C1'       13.3310   37.6830    1.0890 C.3   205  ADP205      0.3186
     18  N9        12.8750   36.8240    0.0560 N.pl3 205  ADP205     -0.1439
     19  C8        12.1820   35.7060    0.3840 C.3   205  ADP205      0.3377
     20  N7        12.0870   34.9190   -0.6190 N.2   205  ADP205     -0.2095
     21  C5        12.7160   35.4920   -1.6800 C.2   205  ADP205      0.2526
     22  C6        12.9140   35.1130   -3.0170 C.2   205  ADP205      0.4393
     23  N6        12.4850   33.9580   -3.4980 N.pl3 205  ADP205      0.2180
     24  N1        13.5720   35.9770   -3.7910 N.2   205  ADP205      0.0021
     25  C2        14.0250   37.1360   -3.3020 C.3   205  ADP205      0.5254
     26  N3        13.9110   37.6120   -2.0610 N.2   205  ADP205     -0.0055
     27  C4        13.2250   36.7370   -1.2560 C.2   205  ADP205      0.3518
@<TRIPOS>BOND
     1    24    25    1
     2    24    22    2
     3    23    22    1
     4    25    26    1
     5    22    21    1
     6    26    27    2
     7    21    27    1
     8    21    20    2
     9    27    18    1
    10    20    19    1
    11    18    19    1
    12    18    17    1
    13    17    12    1
    14    17    15    1
    15    12    11    1
    16    16    15    1
    17    15    13    1
    18    11    13    1
    19    11    10    1
    20    14    13    1
    21     9    10    1
    22     9     5    1
    23     7     5    2
    24     5     8    1
    25     5     6    1
    26     8     1    1
    27     3     1    2
    28     1     2    1
    29     1     4    1
