@<TRIPOS>MOLECULE
1ukz_AMP_A_1.pdb
 23 25 0 0 0
SMALL
GASTEIGER

@<TRIPOS>ATOM
      1  P         14.8500   32.9520   12.8210 P.3   206  AMP206      0.5327
      2  O1P       16.0300   33.3070   11.9450 O.2   206  AMP206     -0.2224
      3  O2P       14.0250   34.0830   12.9460 O.3   206  AMP206     -0.1145
      4  O3P       14.2070   31.7550   12.3790 O.3   206  AMP206     -0.1145
      5  O5'       15.5430   32.6280   14.2130 O.3   206  AMP206     -0.2675
      6  C5'       16.2620   33.6190   14.9410 C.3   206  AMP206      0.1860
      7  C4'       17.1190   33.0580   16.0380 C.3   206  AMP206      0.1823
      8  O4'       16.2920   32.5220   17.0900 O.3   206  AMP206     -0.3135
      9  C3'       17.9710   31.8470   15.5520 C.3   206  AMP206      0.2184
     10  O3'       19.1920   32.2150   14.9210 O.3   206  AMP206     -0.2174
     11  C2'       18.2850   31.1170   16.8680 C.3   206  AMP206      0.2570
     12  O2'       19.1650   31.9180   17.6430 O.3   206  AMP206     -0.2130
     13  C1'       16.7850   31.2200   17.2410 C.3   206  AMP206      0.3186
     14  N9        15.9430   30.0890   17.1220 N.pl3 206  AMP206     -0.1439
     15  C8        15.1170   30.0350   16.0360 C.3   206  AMP206      0.3377
     16  N7        14.5680   28.8820   15.9490 N.2   206  AMP206     -0.2095
     17  C5        15.0120   28.1030   16.9860 C.2   206  AMP206      0.2526
     18  C6        14.7510   26.7900   17.3650 C.2   206  AMP206      0.4393
     19  N6        13.9760   25.9970   16.6060 N.pl3 206  AMP206      0.2180
     20  N1        15.3470   26.3470   18.4930 N.2   206  AMP206      0.0021
     21  C2        16.1610   27.1530   19.1710 C.3   206  AMP206      0.5254
     22  N3        16.5250   28.4210   18.9190 N.2   206  AMP206     -0.0055
     23  C4        15.9020   28.8820   17.7810 C.2   206  AMP206      0.3518
@<TRIPOS>BOND
     1     2     1    2
     2     4     1    1
     3     1     3    1
     4     1     5    1
     5     5     6    1
     6    10     9    1
     7     6     7    1
     8     9     7    1
     9     9    11    1
    10    16    15    1
    11    16    17    2
    12    15    14    1
    13     7     8    1
    14    19    18    1
    15    11    13    1
    16    11    12    1
    17    17    18    1
    18    17    23    1
    19     8    13    1
    20    14    13    1
    21    14    23    1
    22    18    20    2
    23    23    22    2
    24    20    21    1
    25    22    21    1
